data_mof_unit_52751.cif
_audit_creation_date              2012-12-10T17:02:58-0500
_audit_creation_method            fapswitch 2.2
_symmetry_space_group_name_H-M    P1
_symmetry_Int_Tables_number       1
_space_group_crystal_system       triclinic
_cell_length_a                    9.807708
_cell_length_b                    11.069368
_cell_length_c                    13.440682
_cell_angle_alpha                 94.434004
_cell_angle_beta                  81.40571
_cell_angle_gamma                 111.639287
_cell_volume                      1340.72980231

loop_
_atom_site_label
_atom_site_type_symbol
_atom_type_description
_atom_site_fract_x
_atom_site_fract_y
_atom_site_fract_z
_atom_type_partial_charge
C1    C     C_R   0.557299 0.745856 0.507392 0.818126
C2    C     C_R   0.432841 0.479727 0.971315 0.083117
C3    C     C_R   0.458188 0.450059 0.867120 0.084885
C4    C     C_R   0.533884 0.474687 0.035498 0.074545
C5    C     C_R   0.649824 0.429536 0.996589 0.165934
C6    C     C_R   0.662178 0.387100 0.896590 -0.244702
C7    C     C_R   0.566634 0.395244 0.833238 -0.196218
C8    C     C_R   0.523612 0.513301 0.137384 -0.240742
C9    C     C_R   0.733560 0.458050 0.160800 -0.194457
C10   C     C_R   0.373018 0.474694 0.799797 -0.101972
C11   C     C_2   0.592178 0.885977 0.511821 -0.185145
C12   C     C_R   0.420864 0.482791 0.690399 0.783474
C13   C     C_2   0.487302 0.932355 0.499839 -0.206855
C14   C     C_2   0.410392 0.115101 0.489243 -0.350279
C15   C     C_2   0.515417 0.071233 0.503201 -0.153302
C16   C     C_2   0.922110 0.489457 0.491714 -0.071954
C17   C     C_2   0.077014 0.509027 0.509358 -0.066563
C18   C     C_R   0.442903 0.254404 0.492861 0.859626
C19   C     C_R   0.577433 0.509927 0.309484 0.798286
C20   C     C_R   0.750125 0.423996 0.058960 -0.197471
C21   C     C_R   0.617634 0.499516 0.200677 -0.048168
C22   C     C_R   0.249532 0.506978 0.838280 -0.183241
C23   C     C_R   0.215068 0.522419 0.941204 -0.152647
C24   C     C_R   0.306598 0.511852 0.007098 -0.179130
Cu1   Cu    Cu3+1 0.362000 0.479240 0.482530 0.950664
Cu2   Cu    Cu3+1 0.638000 0.520760 0.517470 0.946530
H1    H     H_    0.806807 0.446313 0.208993 0.146244
H2    H     H_    0.377277 0.866248 0.486995 0.179933
H3    H     H_    0.301172 0.048609 0.475222 0.163420
H4    H     H_    0.125627 0.576570 0.568539 0.154963
H5    H     H_    0.872736 0.420551 0.433476 0.157635
H6    H     H_    0.106242 0.385214 0.400045 0.196291
H7    H     H_    0.895107 0.617274 0.598255 0.197208
H8    H     H_    0.746162 0.347131 0.867075 0.149758
H9    H     H_    0.838543 0.389347 0.029558 0.133471
H10   H     H_    0.441315 0.552495 0.170528 0.146087
H11   H     H_    0.181684 0.524263 0.788497 0.150050
H12   H     H_    0.273285 0.526761 0.085686 0.126963
H13   H     H_    0.119214 0.547095 0.970033 0.140927
H14   H     H_    0.577130 0.354853 0.757979 0.174630
H15   H     H_    0.623910 0.139067 0.517142 0.191643
N1    N     N_2   0.845330 0.551960 0.543750 -0.284798
N2    N     N_2   0.154690 0.448120 0.456210 -0.279941
O1    O     O_R   0.426290 0.668220 0.490680 -0.583837
O2    O     O_R   0.659360 0.703290 0.520190 -0.560497
O3    O     O_R   0.326580 0.473880 0.629020 -0.574607
O4    O     O_R   0.559660 0.508940 0.658530 -0.575177
O5    O     O_R   0.340640 0.296710 0.479810 -0.560451
O6    O     O_R   0.573710 0.331780 0.509320 -0.588382
O7    O     O_R   0.440340 0.491060 0.341470 -0.576265
O8    O     O_R   0.673420 0.526120 0.370980 -0.579499
C25   C     C_1   0.740553 0.970849 0.528892 0.253320
N3    N     N_1   0.858797 0.038378 0.542462 -0.291429

loop_
_geom_bond_atom_site_label_1
_geom_bond_atom_site_label_2
_ccdc_geom_bond_type
C24   H12   S    
C23   C24   A    
C17   N2    D    
C13   H2    S    
C6    C7    A    
Cu1   O7    S    
C16   N1    D    
C14   C18   S    
C9    C20   A    
C2    C4    A    
C19   O7    A    
C4    C8    A    
C9    C21   A    
Cu1   N2    S    
C2    C3    A    
C18   O5    A    
C3    C10   A    
Cu2   O8    S    
C10   C22   A    
C16   H5    S    
C17   H4    S    
C11   C13   D    
Cu1   O5    S    
C1    O2    A    
C10   C12   S    
Cu2   O4    S    
C12   O4    A    
C23   H13   S    
H7    N1    S    
Cu1   O1    S    
C19   C21   S    
H6    N2    S    
C8    C21   A    
C3    C7    A    
C13   C15   S    
Cu2   N1    S    
C2    C24   A    
C5    C6    A    
C15   H15   S    
C19   O8    A    
C25   N3    T    
C9    H1    S    
C12   O3    A    
C8    H10   S    
Cu2   O6    S    
C5    C20   A    
C14   C15   D    
C16   C17   S    
C11   C25   S    
C1    O1    A    
Cu2   O2    S    
Cu1   Cu2   S    
C7    H14   S    
C22   H11   S    
Cu1   O3    S    
C20   H9    S    
C22   C23   A    
C6    H8    S    
C18   O6    A    
C14   H3    S    
C4    C5    A    
C1    C11   S    
