data_mof_unit_61386.cif
_audit_creation_date              2012-12-10T19:21:02-0500
_audit_creation_method            fapswitch 2.2
_symmetry_space_group_name_H-M    P1
_symmetry_Int_Tables_number       1
_space_group_crystal_system       triclinic
_cell_length_a                    14.768178
_cell_length_b                    15.99649
_cell_length_c                    17.090104
_cell_angle_alpha                 89.754146
_cell_angle_beta                  94.162275
_cell_angle_gamma                 90.133
_cell_volume                      4026.65545463

loop_
_atom_site_label
_atom_site_type_symbol
_atom_type_description
_atom_site_fract_x
_atom_site_fract_y
_atom_site_fract_z
_atom_type_partial_charge
C1    C     C_R   0.499893 0.340882 0.499897 0.828331
C2    C     C_R   0.500107 0.659118 0.500103 0.828113
C3    C     C_R   0.499894 0.912689 0.499217 0.015250
C4    C     C_R   0.500107 0.087310 0.500769 0.015196
C5    C     C_R   0.518248 0.955412 0.569912 -0.213296
C6    C     C_R   0.481753 0.044587 0.430074 -0.213199
C7    C     C_1   0.500134 0.823170 0.499764 0.059765
C8    C     C_1   0.499866 0.176829 0.500224 0.059829
C9    C     C_1   0.499775 0.251842 0.499968 -0.101990
C10   C     C_1   0.500225 0.748157 0.500025 -0.102205
C11   C     C_R   0.946962 0.477135 0.431979 0.305918
C12   C     C_R   0.053038 0.522867 0.568022 0.305950
C13   C     C_R   0.902771 0.499760 0.499353 -0.078033
C14   C     C_R   0.097229 0.500242 0.500648 -0.078098
C15   C     C_R   0.957161 0.522503 0.567026 -0.225665
C16   C     C_R   0.042839 0.477499 0.432976 -0.225602
C17   C     C_1   0.802651 0.499935 0.499833 0.253906
C18   C     C_1   0.197349 0.500066 0.500168 0.254045
C19   C     C_R   0.511365 0.498467 0.651023 0.850315
C20   C     C_R   0.488638 0.501534 0.348983 0.850491
C21   C     C_R   0.518122 0.494956 0.736650 -0.103491
C22   C     C_R   0.481891 0.505098 0.263368 -0.103213
C23   C     C_R   0.472140 0.554834 0.778934 0.196487
C24   C     C_R   0.527504 0.445004 0.221045 0.196383
C25   C     C_R   0.474208 0.549475 0.860265 -0.157195
C26   C     C_R   0.525457 0.450401 0.139719 -0.157078
C27   C     C_R   0.521786 0.484328 0.900752 0.291320
C28   C     C_R   0.478282 0.515817 0.099282 0.291330
C29   C     C_R   0.568504 0.425841 0.858769 -0.149411
C30   C     C_R   0.431928 0.574531 0.141311 -0.149334
C31   C     C_R   0.567224 0.430026 0.776890 0.065313
C32   C     C_R   0.433201 0.570306 0.223189 0.065126
C33   C     C_R   0.481527 0.957324 0.428920 0.291577
C34   C     C_R   0.518473 0.042674 0.571066 0.291551
Cu1   Cu    Cu3+1 0.589220 0.500000 0.499980 1.041951
Cu2   Cu    Cu3+1 0.410780 0.500000 0.500020 1.042098
H1    H     H_    0.560896 0.403273 0.108540 0.197857
H2    H     H_    0.438456 0.596422 0.891403 0.197880
H3    H     H_    0.605073 0.376051 0.890441 0.168908
H4    H     H_    0.395668 0.624531 0.109683 0.168919
H5    H     H_    0.467612 0.079060 0.375842 0.196806
H6    H     H_    0.532389 0.920939 0.624144 0.196719
H7    H     H_    0.074946 0.459877 0.380487 0.181265
H8    H     H_    0.925053 0.540126 0.619514 0.181225
N1    N     N_2   0.524438 0.474931 0.983443 -0.221014
N2    N     N_2   0.475647 0.525239 0.016595 -0.221070
N3    N     N_1   0.276710 0.499980 0.499980 -0.139391
N4    N     N_1   0.723290 0.500020 0.500020 -0.139458
O1    O     O_R   0.575320 0.380310 0.499960 -0.552713
O2    O     O_R   0.424680 0.619690 0.500040 -0.552675
O3    O     O_R   0.424640 0.380310 0.500000 -0.574384
O4    O     O_R   0.575360 0.619690 0.500000 -0.574415
O5    O     O_R   0.583590 0.499240 0.613900 -0.590237
O6    O     O_R   0.416410 0.500760 0.386100 -0.590164
O7    O     O_R   0.432900 0.499240 0.613940 -0.532540
O8    O     O_R   0.567100 0.500760 0.386060 -0.532657
Br1   Br    Br    0.591444 0.352543 0.271411 -0.420461
Br2   Br    Br    0.407669 0.646983 0.728534 -0.419893
C35   C     C_3   0.615390 0.363312 0.733670 -0.728653
H9    H     H_    0.645013 0.314508 0.774212 0.245077
H10   H     H_    0.566842 0.332222 0.690363 0.229772
H11   H     H_    0.671596 0.391581 0.702813 0.241485
C36   C     C_3   0.385495 0.637263 0.266483 -0.728666
H12   H     H_    0.356125 0.686231 0.225989 0.245355
H13   H     H_    0.329167 0.609276 0.297386 0.241444
H14   H     H_    0.434283 0.668094 0.309769 0.229651
Br3   Br    Br    0.455878 0.901509 0.330573 -0.465606
Br4   Br    Br    0.544117 0.098489 0.669413 -0.465419
Br5   Br    Br    0.878588 0.445217 0.337082 -0.407811
Br6   Br    Br    0.121412 0.554786 0.662919 -0.407573

loop_
_geom_bond_atom_site_label_1
_geom_bond_atom_site_label_2
_ccdc_geom_bond_type
Cu1   O1    S    
C7    C10   T    
C5    H6    S    
C17   N4    T    
C26   H1    S    
C14   C16   A    
C19   O7    A    
C25   H2    S    
Cu1   O5    S    
C1    O3    A    
C11   C16   A    
C14   C18   S    
C26   C28   A    
Cu1   Cu2   S    
C12   C15   A    
C13   C17   S    
C4    C8    S    
C5    C34   A    
C19   O5    A    
C11   Br5   S    
C36   H14   S    
C30   H4    S    
C35   H9    S    
C29   C31   A    
Cu2   O7    S    
C6    C33   A    
N1    N2    D    
C18   N3    T    
C30   C32   A    
C11   C13   A    
C16   H7    S    
C28   N2    S    
C21   C31   A    
Cu2   O6    S    
Cu2   O3    S    
C2    O4    A    
Cu1   N4    S    
C28   C30   A    
C19   C21   S    
C20   C22   S    
C15   H8    S    
C23   Br2   S    
C4    C34   A    
C20   O8    A    
C13   C15   A    
C21   C23   A    
C36   H13   S    
C22   C24   A    
C35   H10   S    
C25   C27   A    
C27   N1    S    
C3    C33   A    
C34   Br4   S    
C36   H12   S    
C2    C10   S    
C1    C9    S    
C22   C32   A    
Cu2   O2    S    
C27   C29   A    
C33   Br3   S    
Cu2   N3    S    
C4    C6    A    
C23   C25   A    
C31   C35   S    
Cu1   O4    S    
C12   Br6   S    
C8    C9    T    
C35   H11   S    
C2    O2    A    
C3    C7    S    
Cu1   O8    S    
C1    O1    A    
C29   H3    S    
C20   O6    A    
C24   C26   A    
C32   C36   S    
C12   C14   A    
C24   Br1   S    
C3    C5    A    
C6    H5    S    
