data_mof_unit_49936.cif
_audit_creation_date              2012-12-10T16:38:35-0500
_audit_creation_method            fapswitch 2.2
_symmetry_space_group_name_H-M    P1
_symmetry_Int_Tables_number       1
_space_group_crystal_system       triclinic
_cell_length_a                    10.817897
_cell_length_b                    10.847364
_cell_length_c                    17.743152
_cell_angle_alpha                 98.079552
_cell_angle_beta                  73.232531
_cell_angle_gamma                 98.564538
_cell_volume                      1960.82971588

loop_
_atom_site_label
_atom_site_type_symbol
_atom_type_description
_atom_site_fract_x
_atom_site_fract_y
_atom_site_fract_z
_atom_type_partial_charge
C1    C     C_R   0.157340 0.479275 0.517764 0.844261
C2    C     C_R   0.530937 0.337970 0.927843 -0.166652
C3    C     C_R   0.593045 0.273448 0.966533 0.033423
C4    C     C_R   0.843321 0.520489 0.482356 0.893023
C5    C     C_R   0.602925 0.323498 0.043427 0.065976
C6    C     C_R   0.517401 0.414262 0.086284 0.028237
C7    C     C_R   0.691039 0.286225 0.080700 0.107232
C8    C     C_R   0.671326 0.317782 0.162399 -0.230231
C9    C     C_R   0.524318 0.463537 0.162491 -0.254087
C10   C     C_2   0.981301 0.527890 0.474997 -0.352618
C11   C     C_2   0.021215 0.471928 0.524580 -0.295256
C12   C     C_R   0.275105 0.625999 0.843612 0.365215
C13   C     C_2   0.539486 0.965555 0.472299 0.363302
C14   C     C_2   0.455969 0.036339 0.524375 -0.426816
C15   C     C_R   0.466777 0.168408 0.518550 0.933940
C16   C     C_R   0.529980 0.832861 0.481909 0.765277
C17   C     C_R   0.564210 0.435942 0.287822 0.798352
C18   C     C_R   0.434383 0.561591 0.713181 0.880220
C19   C     C_R   0.390051 0.571770 0.801260 -0.346144
C20   C     C_R   0.589589 0.407244 0.202548 -0.027517
C21   C     C_R   0.234319 0.632890 0.926666 0.447345
C22   C     C_3   0.813435 0.225872 0.035732 -0.440475
C23   C     C_R   0.459075 0.519983 0.843227 0.402313
C24   C     C_3   0.936115 0.292443 0.058038 -0.352383
C25   C     C_3   0.060098 0.256779 0.996289 -0.881684
C26   C     C_3   0.607708 0.993037 0.341420 -0.300254
C27   C     C_3   0.623732 0.142622 0.929191 -0.434605
C28   C     C_3   0.726627 0.143817 0.848443 -0.332597
C29   C     C_3   0.779060 0.017057 0.822154 -0.880128
C30   C     C_3   0.014448 0.626138 0.985607 -0.308916
C31   C     C_3   0.115627 0.591448 0.779876 -0.211555
C32   C     C_3   0.675178 0.585888 0.814240 -0.280320
C33   C     C_3   0.238280 0.494203 0.177618 -0.426297
C34   C     C_R   0.406209 0.508626 0.925353 -0.105503
C35   C     C_3   0.207315 0.354934 0.191720 -0.342597
C36   C     C_3   0.123928 0.338628 0.276035 -0.836597
C37   C     C_R   0.299600 0.574022 0.967696 -0.125571
C38   C     C_R   0.461290 0.438707 0.966821 0.058636
C39   C     C_R   0.432220 0.458048 0.050283 0.039163
C40   C     C_R   0.316465 0.514497 0.092419 0.080144
C41   C     C_R   0.256346 0.575536 0.050161 -0.176860
H1    H     H_    0.172233 0.622367 0.082369 0.174983
H2    H     H_    0.146525 0.305324 0.014230 0.256484
H3    H     H_    0.936000 0.395546 0.063367 0.223261
H4    H     H_    0.937426 0.266190 0.116071 0.219964
H5    H     H_    0.800303 0.126002 0.047245 0.196302
H6    H     H_    0.832119 0.230857 0.971834 0.230956
H7    H     H_    0.514651 0.028924 0.345179 0.167905
H8    H     H_    0.602510 0.891015 0.321362 0.166913
H9    H     H_    0.685002 0.041607 0.295762 0.184710
H10   H     H_    0.828778 0.995457 0.864665 0.263601
H11   H     H_    0.698563 0.941872 0.818395 0.259172
H12   H     H_    0.050674 0.578946 0.429106 0.144349
H13   H     H_    0.850210 0.019506 0.762913 0.254193
H14   H     H_    0.682600 0.164993 0.803039 0.232146
H15   H     H_    0.808903 0.217579 0.850551 0.215332
H16   H     H_    0.651018 0.089714 0.969775 0.205918
H17   H     H_    0.532750 0.088280 0.919843 0.207265
H18   H     H_    0.018269 0.527054 0.958446 0.131615
H19   H     H_    0.942922 0.666744 0.965239 0.190109
H20   H     H_    0.976793 0.626216 0.050754 0.166108
H21   H     H_    0.156064 0.502118 0.751995 0.110861
H22   H     H_    0.083323 0.629543 0.734771 0.190607
H23   H     H_    0.953906 0.420924 0.571145 0.161907
H24   H     H_    0.028425 0.571795 0.829534 0.129399
H25   H     H_    0.673217 0.608952 0.877684 0.156300
H26   H     H_    0.662189 0.670205 0.789307 0.150027
H27   H     H_    0.772810 0.558344 0.781814 0.176411
H28   H     H_    0.176126 0.386966 0.319364 0.278333
H29   H     H_    0.030198 0.377616 0.287202 0.250888
H30   H     H_    0.103115 0.237408 0.284594 0.256586
H31   H     H_    0.153997 0.304187 0.149643 0.223602
H32   H     H_    0.297430 0.310941 0.182138 0.242701
H33   H     H_    0.283089 0.549151 0.222122 0.187383
H34   H     H_    0.379532 0.997694 0.572564 0.132324
H35   H     H_    0.142961 0.531496 0.191255 0.195965
H36   H     H_    0.480374 0.546243 0.191595 0.133141
H37   H     H_    0.726020 0.278996 0.194021 0.128895
H38   H     H_    0.525173 0.300179 0.869047 0.196785
H39   H     H_    0.063591 0.154005 0.990766 0.277155
H40   H     H_    0.064286 0.285482 0.937833 0.250657
O1    O     O_3   0.500000 0.500000 0.500000 -0.494972
O2    O     O_R   0.470800 0.371790 0.332500 -0.635935
O3    O     O_R   0.380610 0.619380 0.674980 -0.607447
O4    O     O_R   0.632640 0.524780 0.317540 -0.646358
O5    O     O_R   0.515950 0.484050 0.674980 -0.597717
O6    O     O_3   0.640195 0.019123 0.413956 -0.591386
O7    O     O_3   0.134276 0.703682 0.967238 -0.572446
O8    O     O_3   0.207476 0.682399 0.805040 -0.539483
O9    O     O_3   0.581128 0.484770 0.803957 -0.583431
O10   O     O_R   0.535460 0.243030 0.556410 -0.625803
O11   O     O_R   0.437420 0.784080 0.535340 -0.660222
O12   O     O_R   0.223560 0.397520 0.472140 -0.639639
O13   O     O_R   0.803560 0.575360 0.436110 -0.646723
O14   O     O_R   0.209690 0.568800 0.556400 -0.643891
O15   O     O_R   0.763190 0.458310 0.535350 -0.629255
O16   O     O_R   0.414000 0.207090 0.472140 -0.647941
O17   O     O_R   0.613120 0.765800 0.436110 -0.618534
Zn1   Zn    Zn3+2 0.577310 0.422690 0.565550 0.996487
Zn2   Zn    Zn3+2 0.403760 0.371330 0.445150 0.956314
Zn3   Zn    Zn3+2 0.634990 0.589920 0.423760 0.971672
Zn4   Zn    Zn3+2 0.383940 0.616050 0.565540 0.965099

loop_
_geom_bond_atom_site_label_1
_geom_bond_atom_site_label_2
_ccdc_geom_bond_type
C25   H40   S    
C34   C37   A    
O3    Zn4   S    
O1    Zn1   S    
C35   C36   S    
C1    C11   S    
C25   H2    S    
C6    C9    A    
C28   H15   S    
C7    C8    A    
C18   O5    A    
C17   O4    A    
C24   H4    S    
C28   C29   S    
C26   H9    S    
C5    C6    A    
C29   H13   S    
C25   H39   S    
O15   Zn1   S    
C17   C20   S    
C18   C19   S    
C41   H1    S    
C10   H12   S    
C2    H38   S    
C9    C20   A    
C4    O15   A    
C32   O9    S    
O13   Zn3   S    
C26   O6    S    
C31   O8    S    
C30   H19   S    
C18   O3    A    
C36   H30   S    
C26   H7    S    
C32   H27   S    
C22   H6    S    
C21   O7    S    
C13   C14   D    
C8    H37   S    
C31   H21   S    
C15   O16   A    
C28   H14   S    
C36   H29   S    
C33   C40   S    
C31   H22   S    
C12   O8    S    
C24   C25   S    
C11   H23   S    
C27   H16   S    
C26   H8    S    
C39   C40   A    
C5    C7    A    
C9    H36   S    
C12   C21   A    
C17   O2    A    
C19   C23   A    
C2    C38   A    
C33   H35   S    
C14   C15   S    
C1    O14   A    
C23   C34   A    
C30   H18   S    
C13   O6    S    
O1    Zn4   S    
C23   O9    S    
C8    C20   A    
O5    Zn1   S    
O12   Zn2   S    
C32   H26   S    
C4    O13   A    
C40   C41   A    
C22   H5    S    
C35   H31   S    
C16   O11   A    
O2    Zn2   S    
C24   H3    S    
C22   C24   S    
C30   H20   S    
C30   O7    S    
O17   Zn3   S    
O16   Zn2   S    
O4    Zn3   S    
C36   H28   S    
C32   H25   S    
C29   H10   S    
C31   H24   S    
C35   H32   S    
C34   C38   A    
O1    Zn2   S    
C3    C5    A    
C27   H17   S    
O14   Zn4   S    
O11   Zn4   S    
C7    C22   S    
C14   H34   S    
C3    C27   S    
C2    C3    A    
C16   O17   A    
C38   C39   A    
C12   C19   A    
C33   C35   S    
O1    Zn3   S    
C37   C41   A    
C10   C11   D    
C15   O10   A    
C33   H33   S    
C21   C37   A    
C1    O12   A    
C13   C16   S    
C27   C28   S    
C6    C39   A    
O10   Zn1   S    
C4    C10   S    
C29   H11   S    
