data_mof_unit_46859.cif
_audit_creation_date              2012-12-10T20:00:02-0500
_audit_creation_method            fapswitch 2.2
_symmetry_space_group_name_H-M    P1
_symmetry_Int_Tables_number       1
_space_group_crystal_system       triclinic
_cell_length_a                    14.967019
_cell_length_b                    14.281922
_cell_length_c                    8.928756
_cell_angle_alpha                 90.556696
_cell_angle_beta                  92.392614
_cell_angle_gamma                 89.803084
_cell_volume                      1906.82856256

loop_
_atom_site_label
_atom_site_type_symbol
_atom_type_description
_atom_site_fract_x
_atom_site_fract_y
_atom_site_fract_z
_atom_type_partial_charge
C1    C     C_R   0.327897 0.500123 0.505588 0.831460
C2    C     C_R   0.417884 0.894287 0.489367 0.288000
C3    C     C_R   0.499524 0.499714 0.218727 0.918721
C4    C     C_R   0.500359 0.500286 0.781276 0.917063
C5    C     C_R   0.497068 0.053973 0.503129 -0.095009
C6    C     C_R   0.497590 0.947150 0.503858 -0.148988
C7    C     C_1   0.499708 0.499591 0.065354 -0.200484
C8    C     C_1   0.500022 0.500412 0.934644 -0.201387
C9    C     C_R   0.091374 0.581028 0.507473 -0.187271
C10   C     C_R   0.907515 0.424637 0.456149 -0.170832
C11   C     C_R   0.905069 0.566621 0.608854 -0.191268
C12   C     C_R   0.672103 0.499783 0.500200 0.832336
C13   C     C_R   0.097933 0.416882 0.576805 -0.189080
C14   C     C_R   0.183123 0.582249 0.498569 -0.200322
C15   C     C_R   0.815182 0.426667 0.441301 -0.235419
C16   C     C_R   0.813058 0.568627 0.593501 -0.176373
C17   C     C_R   0.189872 0.418273 0.567837 -0.192613
C18   C     C_R   0.232361 0.500113 0.523187 -0.028455
C19   C     C_R   0.768138 0.499034 0.509629 -0.025948
C20   C     C_R   0.048681 0.497848 0.543696 0.121474
C21   C     C_R   0.952331 0.495074 0.539194 0.117208
C22   C     C_3   0.305270 0.248469 0.306126 0.181597
C23   C     C_R   0.444732 0.204978 0.399865 0.359670
C24   C     C_3   0.257925 0.322114 0.209226 -0.831783
C25   C     C_3   0.654761 0.756327 0.746905 0.181400
C26   C     C_3   0.738022 0.808813 0.804174 -0.867335
C27   C     C_3   0.700971 0.253207 0.639388 0.202071
C28   C     C_3   0.762051 0.182843 0.720943 -0.862321
C29   C     C_3   0.341144 0.748583 0.260415 0.179771
C30   C     C_3   0.245901 0.770375 0.204475 -0.875109
C31   C     C_3   0.431627 0.033126 0.167685 0.167238
C32   C     C_3   0.363777 0.992948 0.052748 -0.885552
C33   C     C_3   0.700620 0.924500 0.379667 0.134305
C34   C     C_R   0.576522 0.797240 0.532977 0.348267
C35   C     C_3   0.771516 0.998557 0.357885 -0.858893
C36   C     C_3   0.570023 0.073941 0.859645 0.136799
C37   C     C_3   0.626525 0.016959 0.971655 -0.895711
C38   C     C_3   0.310690 0.956059 0.633050 0.147830
C39   C     C_3   0.221628 0.007614 0.629232 -0.829076
C40   C     C_R   0.555307 0.204690 0.598871 0.361671
C41   C     C_R   0.422240 0.796058 0.468958 0.364162
C42   C     C_R   0.444502 0.105306 0.396353 0.237260
C43   C     C_R   0.578474 0.895875 0.515620 0.315122
C44   C     C_R   0.549945 0.105657 0.609433 0.297085
H1    H     H_    0.053571 0.644129 0.481867 0.139168
H2    H     H_    0.279314 0.179504 0.266954 0.187583
H3    H     H_    0.268561 0.307059 0.088976 0.245306
H4    H     H_    0.185056 0.321200 0.228083 0.204365
H5    H     H_    0.284341 0.392903 0.236966 0.260532
H6    H     H_    0.658308 0.683747 0.790234 0.145872
H7    H     H_    0.594968 0.789473 0.797128 0.096624
H8    H     H_    0.742938 0.806779 0.928548 0.200950
H9    H     H_    0.798992 0.776292 0.759467 0.246461
H10   H     H_    0.734372 0.882996 0.768783 0.307419
H11   H     H_    0.730402 0.322992 0.664518 0.173592
H12   H     H_    0.944002 0.369852 0.400012 0.131770
H13   H     H_    0.702988 0.241989 0.515601 0.103523
H14   H     H_    0.752682 0.111663 0.672569 0.301380
H15   H     H_    0.832959 0.202380 0.706838 0.198218
H16   H     H_    0.749287 0.182766 0.842541 0.267693
H17   H     H_    0.358866 0.677529 0.219820 0.163041
H18   H     H_    0.386549 0.799456 0.207374 0.101451
H19   H     H_    0.223043 0.837385 0.254331 0.288663
H20   H     H_    0.243439 0.776581 0.080474 0.207348
H21   H     H_    0.199922 0.713543 0.234770 0.241141
H22   H     H_    0.482254 0.978071 0.195348 0.120844
H23   H     H_    0.939421 0.620875 0.674235 0.133848
H24   H     H_    0.464175 0.094748 0.117773 0.139176
H25   H     H_    0.324417 0.050459 0.998890 0.241767
H26   H     H_    0.398238 0.952268 0.965684 0.186110
H27   H     H_    0.317191 0.945417 0.107833 0.286176
H28   H     H_    0.652037 0.927373 0.281567 0.098042
H29   H     H_    0.733483 0.854532 0.382235 0.179307
H30   H     H_    0.740091 0.069154 0.354681 0.247505
H31   H     H_    0.804602 0.985489 0.250592 0.212016
H32   H     H_    0.822644 0.996290 0.451611 0.258717
H33   H     H_    0.499155 0.052003 0.863283 0.110514
H34   H     H_    0.065179 0.352906 0.608361 0.128425
H35   H     H_    0.575532 0.148714 0.893868 0.188533
H36   H     H_    0.608761 0.941710 0.961316 0.242809
H37   H     H_    0.615220 0.041645 0.087401 0.194566
H38   H     H_    0.698699 0.025480 0.951123 0.274847
H39   H     H_    0.360950 0.001431 0.693580 0.113034
H40   H     H_    0.303243 0.889653 0.695790 0.135845
H41   H     H_    0.169279 0.963935 0.571321 0.258688
H42   H     H_    0.201641 0.022728 0.745415 0.201067
H43   H     H_    0.227620 0.074753 0.568662 0.245761
H44   H     H_    0.215001 0.646880 0.470434 0.214562
H45   H     H_    0.780632 0.372677 0.375709 0.140552
H46   H     H_    0.777080 0.623305 0.649185 0.178297
H47   H     H_    0.227417 0.355705 0.596361 0.142496
H48   H     H_    0.287446 0.259228 0.424586 0.113437
N1    N     N_R   0.500000 0.252470 0.500000 -0.201711
N2    N     N_R   0.500000 0.747530 0.500000 -0.220212
O1    O     O_R   0.369060 0.579480 0.500010 -0.571467
O2    O     O_3   0.652212 0.752037 0.587842 -0.580954
O3    O     O_3   0.613434 0.254026 0.694747 -0.593371
O4    O     O_3   0.345963 0.749707 0.419397 -0.571594
O5    O     O_3   0.386523 0.059509 0.296348 -0.555792
O6    O     O_3   0.659411 0.942251 0.516496 -0.538183
O7    O     O_3   0.602033 0.058187 0.715588 -0.542275
O8    O     O_3   0.334976 0.937196 0.484760 -0.518300
O9    O     O_R   0.630940 0.420520 0.499990 -0.629407
O10   O     O_R   0.630940 0.579480 0.499990 -0.564974
O11   O     O_R   0.369060 0.420520 0.500010 -0.612554
O12   O     O_R   0.500000 0.579460 0.285340 -0.640419
O13   O     O_R   0.500000 0.420540 0.714660 -0.571270
O14   O     O_R   0.500000 0.579460 0.714660 -0.633117
O15   O     O_R   0.500000 0.420540 0.285340 -0.554976
O16   O     O_3   0.398524 0.255312 0.289397 -0.563053
Zn1   Zn    Zn3+2 0.500000 0.606140 0.500000 0.973597
Zn2   Zn    Zn3+2 0.500000 0.393860 0.500000 0.999707

loop_
_geom_bond_atom_site_label_1
_geom_bond_atom_site_label_2
_ccdc_geom_bond_type
C31   H22   S    
C5    C42   A    
C35   H30   S    
C16   H46   S    
C30   H20   S    
C38   H39   S    
O13   Zn2   S    
C14   C18   A    
C17   H47   S    
C39   H43   S    
C40   N1    A    
C4    C8    S    
C7    C8    T    
C15   C19   A    
C4    O14   A    
C35   H31   S    
C1    C18   S    
C23   C42   A    
C29   O4    S    
C36   C37   S    
C34   O2    S    
C12   O10   A    
C3    C7    S    
C10   C15   A    
C38   C39   S    
C27   H11   S    
C2    O8    S    
C2    C41   A    
N2    Zn1   S    
C25   H6    S    
C33   H28   S    
C13   H34   S    
C41   N2    A    
C22   O16   S    
C31   O5    S    
C10   H12   S    
C3    O12   A    
C30   H19   S    
C37   H37   S    
C2    C6    A    
C26   H10   S    
C37   H36   S    
C11   H23   S    
C32   H27   S    
O12   Zn1   S    
C28   H16   S    
C10   C21   A    
C31   H24   S    
C4    O13   A    
C29   H17   S    
C35   H32   S    
C24   H4    S    
C43   O6    S    
C12   O9    A    
C27   H13   S    
O15   Zn2   S    
C40   O3    S    
C32   H26   S    
C25   C26   S    
C11   C21   A    
C23   N1    A    
O9    Zn2   S    
C9    C14   A    
C25   H7    S    
C29   C30   S    
C26   H8    S    
C15   H45   S    
C11   C16   A    
C9    C20   A    
C31   C32   S    
C1    O1    A    
C17   C18   A    
C33   H29   S    
C22   H2    S    
C5    C44   A    
C6    C43   A    
C22   C24   S    
C37   H38   S    
C39   H41   S    
C26   H9    S    
C28   H15   S    
C24   H5    S    
C23   O16   S    
C29   H18   S    
C27   O3    S    
C13   C20   A    
C38   H40   S    
C24   H3    S    
O11   Zn2   S    
C34   C43   A    
C34   N2    A    
C36   H35   S    
O10   Zn1   S    
C44   O7    S    
C32   H25   S    
C28   H14   S    
O14   Zn1   S    
C13   C17   A    
C36   H33   S    
C33   O6    S    
C14   H44   S    
C38   O8    S    
O1    Zn1   S    
C42   O5    S    
C5    C6    S    
C3    O15   A    
C16   C19   A    
C9    H1    S    
C12   C19   S    
C33   C35   S    
C30   H21   S    
N1    Zn2   S    
C40   C44   A    
C20   C21   S    
C25   O2    S    
C27   C28   S    
C22   H48   S    
C41   O4    S    
C36   O7    S    
C39   H42   S    
C1    O11   A    
