data_mof_unit_48299.cif
_audit_creation_date              2013-03-05T16:41:25-0500
_audit_creation_method            fapswitch 2.2
_symmetry_space_group_name_H-M    P1
_symmetry_Int_Tables_number       1
_space_group_crystal_system       triclinic
_cell_length_a                    10.833545
_cell_length_b                    10.622084
_cell_length_c                    9.897558
_cell_angle_alpha                 90.397145
_cell_angle_beta                  104.422941
_cell_angle_gamma                 90.644294
_cell_volume                      1102.93829929

loop_
_atom_site_label
_atom_site_type_symbol
_atom_site_description
_atom_site_fract_x
_atom_site_fract_y
_atom_site_fract_z
_atom_type_partial_charge
O1    O     O_R   0.500020 0.316790 0.614700 -0.623505
O2    O     O_R   0.500000 0.316760 0.385350 -0.573330
C1    C     C_R   0.502427 0.260531 0.500698 0.931964
O3    O     O_R   0.317820 0.500020 0.571850 -0.616675
O4    O     O_R   0.317800 0.499980 0.342510 -0.617685
C2    C     C_R   0.259370 0.503427 0.441324 0.924494
Zn1   Zn    Zn3+2 0.500010 0.500020 0.653140 0.968565
Zn2   Zn    Zn3+2 0.499990 0.499980 0.346860 0.995935
O5    O     O_R   0.500000 0.683240 0.614650 -0.616622
O6    O     O_R   0.499980 0.683210 0.385300 -0.599715
O7    O     O_R   0.682200 0.500020 0.657490 -0.612609
O8    O     O_R   0.682180 0.499980 0.428150 -0.607915
C3    C     C_R   0.503509 0.739583 0.501382 0.914385
C4    C     C_R   0.741199 0.503911 0.558891 0.918186
H1    H     H_    0.878964 0.520832 0.379681 0.192347
H2    H     H_    0.125893 0.575647 0.610902 0.189626
C5    C     C_2   0.122980 0.512968 0.407142 -0.350329
C6    C     C_2   0.069041 0.546706 0.508440 -0.126991
C7    C     C_2   0.878195 0.521551 0.593630 -0.151665
C8    C     C_2   0.933902 0.531061 0.487444 -0.142715
H3    H     H_    0.067059 0.486461 0.303403 0.163743
C9    C     C_R   0.420836 0.063232 0.554608 0.073040
C10   C     C_R   0.512276 0.128912 0.506390 -0.173745
C11   C     C_R   0.620175 0.067828 0.483916 0.150471
C12   C     C_R   0.618990 0.935914 0.480318 0.113344
C13   C     C_R   0.513134 0.871657 0.507193 -0.175659
C14   C     C_R   0.421791 0.935263 0.556056 0.103647
C15   C     C_3   0.279695 0.924999 0.509628 -0.442054
C16   C     C_3   0.278761 0.067798 0.507779 -0.441974
H4    H     H_    0.245583 0.881036 0.404323 0.208255
H5    H     H_    0.237722 0.884298 0.591654 0.216310
H6    H     H_    0.244333 0.107417 0.401420 0.209865
H7    H     H_    0.236042 0.109336 0.588615 0.221747
C17   C     C_R   0.403931 0.441686 0.043353 0.143386
N1    N     N_R   0.499160 0.499140 0.142600 -0.095176
C18   C     C_R   0.590143 0.564971 0.096996 -0.068191
H8    H     H_    0.664260 0.615757 0.171524 0.162324
C19   C     C_R   0.590791 0.564103 0.953407 -0.089961
H9    H     H_    0.665724 0.613710 0.920211 0.155141
N2    N     N_R   0.499160 0.499180 0.856960 -0.110126
C20   C     C_R   0.400511 0.446966 0.900468 0.142319
C21   C     C_3   0.353918 0.314857 0.873458 -0.283574
C22   C     C_3   0.364890 0.304575 0.029428 -0.076672
H10   H     H_    0.419530 0.254554 0.832216 0.207313
H11   H     H_    0.272994 0.287006 0.057578 0.150564
C23   C     C_1   0.221905 0.306787 0.788342 0.196230
N3    N     N_1   0.118145 0.298972 0.721049 -0.171007
I1    I     I_    0.511997 0.172555 0.113927 -0.293813
C24   C     C_1   0.947738 0.534474 0.738768 0.214630
N4    N     N_1   0.003023 0.544916 0.854584 -0.203811
I2    I     I_    0.783012 0.173683 0.460992 -0.265303
I3    I     I_    0.772271 0.835691 0.431339 -0.337013

loop_
_geom_bond_atom_site_label_1
_geom_bond_atom_site_label_2
_geom_bond_distance
_ccdc_geom_bond_type
O4    Zn2   1.963483 S    
C19   N2    1.369550 A    
Zn1   N2    2.019715 S    
N2    C20   1.361773 A    
C9    C16   1.494273 S    
C22   I1    2.146711 S    
C7    C24   1.451140 S    
C1    C10   1.403783 S    
C7    C8    1.339800 D    
Zn2   O8    1.937006 S    
C11   I2    2.141529 S    
C15   H4    1.112856 S    
C5    C6    1.329169 D    
C12   I3    2.135285 S    
H2    C6    1.087461 S    
O1    Zn1   1.980539 S    
Zn1   O7    1.963481 S    
C22   H11   1.112796 S    
C13   C14   1.385116 A    
C19   H9    1.081784 S    
C17   C20   1.406976 A    
C21   H10   1.110553 S    
O3    Zn1   1.937005 S    
C18   C19   1.422910 A    
C15   C16   1.517177 S    
O8    C4    1.292875 A    
C24   N4    1.157478 T    
C16   H6    1.112866 S    
C6    C8    1.434110 S    
C9    C14   1.359592 A    
C21   C23   1.469183 S    
O4    C2    1.291118 A    
O7    C4    1.293561 A    
C5    H3    1.087574 S    
C3    C13   1.405316 S    
O3    C2    1.290313 A    
C21   C22   1.523277 S    
C10   C11   1.407640 A    
C16   H7    1.110468 S    
C11   C12   1.401244 A    
Zn2   O6    1.980538 S    
C17   N1    1.369084 A    
C20   C21   1.485623 S    
C14   C15   1.495308 S    
Zn1   O5    1.985698 S    
C2    C5    1.436242 S    
O5    C3    1.283143 A    
C9    C10   1.385786 A    
C18   H8    1.081457 S    
O2    C1    1.286726 A    
C12   C13   1.410197 A    
C23   N3    1.156827 T    
C4    C7    1.447304 S    
O6    C3    1.283791 A    
C15   H5    1.112264 S    
O2    Zn2   1.985700 S    
C17   C22   1.507753 S    
N1    C18   1.369212 A    
H1    C8    1.088283 S    
O1    C1    1.279299 A    
Zn2   N1    2.019411 S    
