data_mof_unit_47441.cif
_audit_creation_date              2012-12-10T19:01:52-0500
_audit_creation_method            fapswitch 2.2
_symmetry_space_group_name_H-M    P1
_symmetry_Int_Tables_number       1
_space_group_crystal_system       triclinic
_cell_length_a                    11.672758
_cell_length_b                    10.824808
_cell_length_c                    9.598382
_cell_angle_alpha                 90.015708
_cell_angle_beta                  89.561274
_cell_angle_gamma                 90.925005
_cell_volume                      1212.61343876

loop_
_atom_site_label
_atom_site_type_symbol
_atom_type_description
_atom_site_fract_x
_atom_site_fract_y
_atom_site_fract_z
_atom_type_partial_charge
C1    C     C_R   0.501155 0.262605 0.500121 0.796222
C2    C     C_R   0.510405 0.129710 0.500908 -0.063723
C3    C     C_R   0.534973 0.065274 0.377645 -0.171336
C4    C     C_R   0.533051 0.936679 0.377431 -0.237424
C5    C     C_R   0.509346 0.871144 0.500941 -0.035187
C6    C     C_R   0.499936 0.936790 0.625792 0.076957
C7    C     C_3   0.411336 0.929509 0.739342 0.263593
C8    C     C_3   0.411045 0.070214 0.737712 -0.445530
C9    C     C_R   0.590700 0.547816 0.071974 0.242151
C10   C     C_R   0.420956 0.431978 0.074809 -0.086969
C11   C     C_R   0.415144 0.440772 0.926000 0.445626
C12   C     C_R   0.284174 0.500383 0.500358 0.849436
C13   C     C_R   0.591666 0.546081 0.925656 0.090037
C14   C     C_3   0.643758 0.672876 0.918488 -0.333505
C15   C     C_3   0.643129 0.673817 0.078688 0.180703
C16   C     C_R   0.500901 0.737586 0.500125 0.822676
C17   C     C_R   0.715849 0.500586 0.499597 0.823945
C18   C     C_1   0.162477 0.501140 0.500648 -0.162089
C19   C     C_1   0.059922 0.501534 0.500165 -0.014277
C20   C     C_1   0.940139 0.501547 0.499434 0.001954
C21   C     C_1   0.837574 0.501224 0.499014 -0.117982
C22   C     C_R   0.500170 0.063963 0.625528 0.028127
Cu1   Cu    Cu3+1 0.499990 0.499980 0.640670 0.997507
Cu2   Cu    Cu3+1 0.500010 0.500020 0.359330 0.990252
H1    H     H_    0.551084 0.113484 0.280532 0.198460
H2    H     H_    0.584526 0.741265 0.873828 0.107565
H3    H     H_    0.583444 0.741116 0.125961 0.059507
H4    H     H_    0.545568 0.889591 0.279730 0.143488
H5    H     H_    0.446202 0.889002 0.836659 0.055518
H6    H     H_    0.329548 0.110372 0.700754 0.224604
H7    H     H_    0.445321 0.111895 0.835019 0.198270
N1    N     N_R   0.500710 0.500930 0.147930 -0.280967
N2    N     N_R   0.500710 0.500890 0.852020 -0.235484
O1    O     O_R   0.500000 0.319640 0.618810 -0.546295
O2    O     O_R   0.500010 0.319680 0.381230 -0.579536
O3    O     O_R   0.337190 0.499990 0.618790 -0.554022
O4    O     O_R   0.337200 0.500030 0.381210 -0.546886
O5    O     O_R   0.499990 0.680320 0.618770 -0.582103
O6    O     O_R   0.500000 0.680360 0.381190 -0.600374
O7    O     O_R   0.662800 0.499970 0.618790 -0.572621
O8    O     O_R   0.662810 0.500010 0.381210 -0.545134
O9    O     O_3   0.753141 0.668425 0.138791 -0.518138
C23   C     C_3   0.791725 0.788639 0.173234 0.079931
H8    H     H_    0.744411 0.822511 0.266272 0.143341
H9    H     H_    0.780758 0.854288 0.084996 0.133207
C24   C     C_3   0.918486 0.785005 0.208146 -0.728334
H10   H     H_    0.968041 0.751549 0.116745 0.246556
H11   H     H_    0.949875 0.879102 0.236096 0.194784
H12   H     H_    0.932232 0.722168 0.297696 0.253632
O10   O     O_3   0.307406 0.876869 0.690789 -0.554104
C25   C     C_3   0.236992 0.844912 0.805823 0.068394
H13   H     H_    0.222998 0.926289 0.874759 0.153727
H14   H     H_    0.276198 0.769182 0.866909 0.126772
C26   C     C_3   0.121029 0.799393 0.753826 -0.757768
H15   H     H_    0.131982 0.717305 0.686000 0.238904
H16   H     H_    0.065315 0.773384 0.843796 0.200375
H17   H     H_    0.079029 0.873388 0.693546 0.262705
C27   C     C_2   0.354016 0.331646 0.143263 0.952653
O11   O     O_2   0.390828 0.226660 0.139847 -0.631001
O12   O     O_R   0.245922 0.353235 0.200928 -0.774773
H18   H     H_    0.208738 0.275693 0.241161 0.321545
O13   O     O_3   0.329371 0.378011 0.855091 -0.555415
C28   C     C_3   0.222567 0.435798 0.878767 0.053740
H19   H     H_    0.216663 0.522352 0.817623 0.159328
H20   H     H_    0.207239 0.462420 0.988714 0.159871
C29   C     C_3   0.126404 0.347810 0.835370 -0.744483
H21   H     H_    0.126140 0.264414 0.902774 0.249375
H22   H     H_    0.042577 0.394069 0.846051 0.219195
H23   H     H_    0.138629 0.318968 0.725331 0.242901
C30   C     C_2   0.760238 0.674069 0.849185 0.973799
O14   O     O_2   0.784457 0.754970 0.764651 -0.639393
O15   O     O_R   0.839555 0.582621 0.879886 -0.725436
H24   H     H_    0.913815 0.593450 0.825477 0.308959

loop_
_geom_bond_atom_site_label_1
_geom_bond_atom_site_label_2
_ccdc_geom_bond_type
C2    C22   A    
Cu1   N2    S    
C29   H22   S    
C23   H8    S    
C28   H20   S    
C26   H16   S    
C13   N2    A    
C6    C7    S    
C7    H5    S    
C12   O3    A    
Cu1   O5    S    
C14   C30   S    
C26   H15   S    
C15   O9    S    
C8    C22   S    
C19   C20   S    
C11   N2    A    
Cu1   Cu2   S    
C25   C26   S    
C8    H6    S    
C11   O13   S    
Cu2   N1    S    
C29   H21   S    
C9    C15   S    
C28   C29   S    
C7    C8    S    
C13   C14   S    
C14   H2    S    
Cu2   O8    S    
C23   H9    S    
C24   H12   S    
O13   C28   S    
O12   H18   S    
C4    C5    A    
C10   C27   S    
C1    O1    A    
O10   C25   S    
C25   H14   S    
C2    C3    A    
C5    C6    A    
C23   C24   S    
C17   O8    A    
C29   H23   S    
C10   C11   A    
C16   O6    A    
C27   O12   S    
Cu1   O7    S    
Cu1   O3    S    
C24   H11   S    
C10   N1    A    
C3    H1    S    
C30   O14   D    
C25   H13   S    
C20   C21   T    
C1    O2    A    
Cu2   O4    S    
C1    C2    S    
O9    C23   S    
C12   C18   S    
C12   O4    A    
C9    C13   A    
C24   H10   S    
C18   C19   T    
Cu1   O1    S    
C30   O15   S    
C9    N1    A    
C4    H4    S    
C27   O11   D    
C14   C15   S    
C8    H7    S    
C15   H3    S    
Cu2   O6    S    
C17   O7    A    
Cu2   O2    S    
C17   C21   S    
C3    C4    A    
C28   H19   S    
C7    O10   S    
C16   O5    A    
O15   H24   S    
C5    C16   S    
C26   H17   S    
C6    C22   A    
