data_mof_unit_24927.cif
_audit_creation_date              2013-03-05T15:53:53-0500
_audit_creation_method            fapswitch 2.2
_symmetry_space_group_name_H-M    P1
_symmetry_Int_Tables_number       1
_space_group_crystal_system       triclinic
_cell_length_a                    15.468711
_cell_length_b                    15.481472
_cell_length_c                    19.490473
_cell_angle_alpha                 77.27173
_cell_angle_beta                  98.938013
_cell_angle_gamma                 111.526302
_cell_volume                      4220.97503007

loop_
_atom_site_label
_atom_site_type_symbol
_atom_site_description
_atom_site_fract_x
_atom_site_fract_y
_atom_site_fract_z
_atom_type_partial_charge
Zn1   Zn    Zn3+2 0.413740 0.413730 0.441720 1.029356
Zn2   Zn    Zn3+2 0.558890 0.431320 0.575310 1.025122
Zn3   Zn    Zn3+2 0.433530 0.561080 0.541290 1.037597
Zn4   Zn    Zn3+2 0.593840 0.593870 0.441680 1.079159
O1    O     O_3   0.500000 0.500000 0.500000 -0.524125
O2    O     O_R   0.716100 0.590510 0.475920 -0.619893
O3    O     O_R   0.289200 0.414810 0.442470 -0.643550
O4    O     O_R   0.514260 0.299330 0.569480 -0.636808
O5    O     O_R   0.480430 0.695350 0.512130 -0.642495
O6    O     O_R   0.533750 0.444440 0.667550 -0.602871
O7    O     O_R   0.573150 0.573190 0.344350 -0.581211
O8    O     O_R   0.446010 0.535260 0.643730 -0.619402
O9    O     O_R   0.447090 0.447110 0.344370 -0.651859
O10   O     O_R   0.412670 0.287020 0.475980 -0.641871
O11   O     O_R   0.592640 0.718300 0.442410 -0.603703
O12   O     O_R   0.691640 0.476740 0.569450 -0.627860
O13   O     O_R   0.303050 0.517940 0.512160 -0.606291
C1    C     C_R   0.747246 0.541228 0.528100 0.921753
C2    C     C_R   0.252290 0.457122 0.472821 0.870609
C3    C     C_R   0.454227 0.248924 0.529002 0.867143
C4    C     C_R   0.544968 0.751268 0.471739 0.801673
C5    C     C_R   0.489959 0.488732 0.688666 0.904177
C6    C     C_R   0.511571 0.512286 0.311638 0.940976
C7    C     C_R   0.513356 0.512774 0.237129 -0.164104
C8    C     C_R   0.429802 0.499407 0.192528 0.167745
C9    C     C_R   0.423776 0.468599 0.128376 0.478857
C10   C     C_R   0.504341 0.465031 0.105876 0.021973
C11   C     C_R   0.587746 0.483481 0.148939 -0.253804
C12   C     C_R   0.591933 0.506035 0.214805 -0.218723
C13   C     C_R   0.560259 0.467580 0.885849 0.285726
C14   C     C_R   0.562910 0.469317 0.813293 0.395710
C15   C     C_R   0.428382 0.520115 0.786742 -0.275425
C16   C     C_R   0.431262 0.528442 0.856842 0.242421
C17   C     C_R   0.497958 0.502574 0.906679 -0.269097
C18   C     C_2   0.503664 0.450372 0.034244 -0.215883
C19   C     C_2   0.508982 0.521120 0.979406 0.640586
C20   C     C_R   0.492663 0.490000 0.764396 -0.231660
H1    H     H_    0.376050 0.538862 0.749145 0.277812
H2    H     H_    0.649382 0.479946 0.131546 0.176257
H3    H     H_    0.655425 0.514971 0.249415 0.212274
H4    H     H_    0.496926 0.380911 0.026576 0.112684
C21   C     C_R   0.980171 0.572120 0.625655 0.280178
C22   C     C_R   0.846315 0.553966 0.540219 -0.281461
C23   C     C_R   0.104877 0.404577 0.397967 -0.148744
C24   C     C_R   0.010668 0.390284 0.382015 -0.143600
C25   C     C_R   0.963424 0.416763 0.424190 -0.059884
C26   C     C_R   0.010075 0.458706 0.483460 0.097788
C27   C     C_R   0.099030 0.452311 0.507701 -0.071079
C28   C     C_R   0.970087 0.501450 0.521717 -0.098471
C29   C     C_R   0.013934 0.522249 0.589348 -0.226361
C30   C     C_R   0.087667 0.488979 0.620469 0.256756
C31   C     C_R   0.129470 0.452859 0.579835 0.202253
C32   C     C_R   0.888224 0.524231 0.495669 0.218001
C33   C     C_R   0.896134 0.587187 0.600973 0.346434
C34   C     C_R   0.150560 0.436288 0.460544 -0.036777
H5    H     H_    0.141706 0.389522 0.361706 0.182059
H6    H     H_    0.889628 0.399673 0.410993 0.180975
H7    H     H_    0.974490 0.360582 0.335822 0.160732
C35   C     C_R   0.429361 0.011849 0.634090 -0.144892
H8    H     H_    0.398326 0.129898 0.648241 0.176410
H9    H     H_    0.411894 0.975135 0.686928 0.193448
C36   C     C_R   0.439325 0.148387 0.543627 -0.121728
C37   C     C_R   0.595076 0.908660 0.390505 0.324275
C38   C     C_R   0.609931 0.005034 0.376192 -0.248937
C39   C     C_R   0.580162 0.045628 0.420381 -0.195720
C40   C     C_R   0.534302 0.990699 0.480794 0.087314
C41   C     C_R   0.536959 0.898029 0.503250 -0.031630
C42   C     C_R   0.490184 0.026109 0.521629 -0.068995
C43   C     C_R   0.467665 0.975981 0.590958 -0.032936
C44   C     C_R   0.486379 0.892045 0.617263 0.487808
C45   C     C_R   0.518569 0.853174 0.573296 -0.241325
C46   C     C_R   0.465559 0.108282 0.496047 0.427334
C47   C     C_R   0.419247 0.099131 0.611648 -0.264576
C48   C     C_R   0.560772 0.853965 0.455699 -0.178524
H10   H     H_    0.596478 0.120898 0.407028 0.220455
H11   H     H_    0.640846 0.048428 0.328437 0.188263
H12   H     H_    0.532847 0.789296 0.596569 0.172447
N1    N     N_R   0.354242 0.521283 0.211345 0.227542
O14   O     O_R   0.268322 0.481076 0.188019 -0.369356
O15   O     O_R   0.372196 0.588253 0.247389 -0.357109
N2    N     N_R   0.365299 0.562325 0.876564 0.258219
O16   O     O_R   0.323170 0.521627 0.934055 -0.286315
O17   O     O_R   0.339085 0.626723 0.833110 -0.293949
O18   O     O_3   0.861843 0.632845 0.638021 -0.626580
C49   C     C_3   0.868166 0.723798 0.599253 0.023797
H13   H     H_    0.813802 0.743886 0.615976 0.158596
H14   H     H_    0.853346 0.726273 0.541183 0.144646
C50   C     C_3   0.963906 0.796947 0.614848 -0.302571
H15   H     H_    0.980447 0.792158 0.672793 0.261172
H16   H     H_    0.018108 0.782480 0.592647 0.238878
C51   C     C_3   0.966380 0.896854 0.582295 -0.909425
H17   H     H_    0.950990 0.903644 0.524148 0.271526
H18   H     H_    0.036795 0.948007 0.593778 0.281236
H19   H     H_    0.914421 0.914227 0.604941 0.262034
N3    N     N_R   0.110333 0.478224 0.695408 0.260662
O19   O     O_R   0.047985 0.421389 0.737834 -0.329874
O20   O     O_R   0.190804 0.529390 0.721462 -0.251349
N4    N     N_R   0.033174 0.612870 0.685111 0.248513
O21   O     O_R   0.994097 0.598158 0.743109 -0.325287
O22   O     O_R   0.116653 0.674704 0.678024 -0.343661
N5    N     N_R   0.853309 0.528899 0.422716 0.198588
O23   O     O_R   0.767931 0.478760 0.404608 -0.438043
O24   O     O_R   0.906168 0.586749 0.374241 -0.364101
N6    N     N_R   0.187378 0.398610 0.614513 0.213652
O25   O     O_R   0.255199 0.430474 0.661014 -0.349365
O26   O     O_R   0.170369 0.315020 0.600883 -0.412308
O27   O     O_3   0.635432 0.455130 0.788742 -0.632365
C52   C     C_3   0.721467 0.528637 0.799725 0.155904
H20   H     H_    0.776411 0.511557 0.780767 0.213862
H21   H     H_    0.741879 0.531530 0.856518 0.182182
C53   C     C_3   0.722577 0.626073 0.758634 -0.424901
H22   H     H_    0.710186 0.624177 0.701241 0.236625
H23   H     H_    0.666667 0.645043 0.774158 0.195736
C54   C     C_3   0.815524 0.702457 0.773944 -0.862422
H24   H     H_    0.824946 0.709076 0.830440 0.252193
H25   H     H_    0.816835 0.771270 0.741097 0.253354
H26   H     H_    0.874260 0.684921 0.761971 0.322653
O28   O     O_3   0.467688 0.843414 0.685081 -0.608396
C55   C     C_3   0.543596 0.881612 0.733382 0.100415
H27   H     H_    0.514400 0.884492 0.781104 0.182725
H28   H     H_    0.589135 0.955425 0.713524 0.118128
C56   C     C_3   0.602135 0.817484 0.755183 -0.356768
H29   H     H_    0.557865 0.746188 0.780163 0.238229
H30   H     H_    0.629243 0.810467 0.707928 0.205962
C57   C     C_3   0.684448 0.857633 0.807049 -0.967500
H31   H     H_    0.732266 0.926555 0.781574 0.280673
H32   H     H_    0.723548 0.808226 0.824039 0.269997
H33   H     H_    0.659719 0.867394 0.854351 0.264538
O29   O     O_3   0.471806 0.153083 0.426241 -0.674606
C58   C     C_3   0.381988 0.130311 0.389595 0.108766
H34   H     H_    0.381041 0.192983 0.349056 0.179329
H35   H     H_    0.324548 0.115215 0.423676 0.138898
C59   C     C_3   0.362904 0.047085 0.352224 -0.372131
H36   H     H_    0.420108 0.063063 0.318129 0.243574
H37   H     H_    0.360407 0.982864 0.392079 0.235462
C60   C     C_3   0.270523 0.027506 0.306700 -0.898166
H38   H     H_    0.211999 0.009889 0.339840 0.270565
H39   H     H_    0.258667 0.966861 0.280455 0.284141
H40   H     H_    0.271898 0.090128 0.265419 0.253332
N7    N     N_R   0.612360 0.867532 0.337157 0.221835
O30   O     O_R   0.687713 0.909925 0.303986 -0.375652
O31   O     O_R   0.545194 0.799639 0.311911 -0.339891
O32   O     O_3   0.513809 0.608245 0.991183 -0.588290
C61   C     C_3   0.594907 0.679904 0.964473 0.090858
H41   H     H_    0.584114 0.748379 0.958219 0.188557
H42   H     H_    0.607398 0.674009 0.911198 0.124770
C62   C     C_3   0.680536 0.681789 0.016592 -0.371546
H43   H     H_    0.667211 0.689841 0.068854 0.258849
H44   H     H_    0.693438 0.614321 0.022955 0.230678
C63   C     C_3   0.767587 0.762705 0.991097 -0.890425
H45   H     H_    0.785289 0.752697 0.941041 0.258593
H46   H     H_    0.827171 0.764049 0.031304 0.281390
H47   H     H_    0.756465 0.831321 0.982769 0.269054
O33   O     O_3   0.625056 0.442647 0.935988 -0.669054
C64   C     C_3   0.609463 0.345449 0.942359 0.089264
H48   H     H_    0.635622 0.332490 0.896974 0.198040
H49   H     H_    0.533898 0.302168 0.945044 0.131592
C65   C     C_3   0.662726 0.313933 0.010138 -0.353275
H50   H     H_    0.738377 0.355466 0.007840 0.244417
H51   H     H_    0.638355 0.327520 0.056131 0.222896
C66   C     C_3   0.648403 0.209125 0.020427 -0.901187
H52   H     H_    0.573312 0.166149 0.024109 0.266242
H53   H     H_    0.687904 0.188613 0.070053 0.276805
H54   H     H_    0.674025 0.194183 0.975683 0.269925
O34   O     O_3   0.342063 0.449572 0.084493 -0.550558
C67   C     C_3   0.282682 0.355237 0.105670 0.186272
H55   H     H_    0.209766 0.353731 0.091774 0.212422
H56   H     H_    0.288922 0.329549 0.163829 0.105141
C68   C     C_3   0.298931 0.287528 0.066570 -0.436518
H57   H     H_    0.301311 0.317392 0.009247 0.269731
H58   H     H_    0.366386 0.277902 0.087393 0.203471
C69   C     C_3   0.221976 0.190952 0.076856 -0.880002
H59   H     H_    0.218611 0.159660 0.133859 0.257110
H60   H     H_    0.236797 0.143115 0.049114 0.275183
H61   H     H_    0.153465 0.197260 0.054741 0.277287

loop_
_geom_bond_atom_site_label_1
_geom_bond_atom_site_label_2
_geom_bond_distance
_ccdc_geom_bond_type
C27   C34   1.419455 A    
C40   C42   1.426636 A    
C9    O34   1.384857 S    
O34   C67   1.419413 S    
C64   H49   1.116618 S    
N3    O19   1.300994 A    
C68   H57   1.111761 S    
C53   H22   1.110240 S    
N6    O26   1.301682 A    
N2    O16   1.300669 A    
C46   O29   1.384679 S    
C26   C28   1.427448 A    
C24   C25   1.390260 A    
O6    C5    1.284642 A    
C9    C10   1.406939 A    
O4    C3    1.267105 A    
C57   H31   1.110698 S    
Zn1   O1    1.935005 S    
C11   C12   1.388972 A    
C62   H44   1.111027 S    
C19   O32   1.390968 S    
N7    O31   1.301531 A    
C21   N4    1.435422 S    
C13   C14   1.415152 A    
N1    O15   1.301781 A    
C55   C56   1.529843 S    
O32   C61   1.415128 S    
O8    C5    1.282369 A    
H8    C47   1.083888 S    
C52   H20   1.111005 S    
O9    C6    1.263130 A    
C37   N7    1.435649 S    
C28   C29   1.431860 A    
O28   C55   1.416687 S    
Zn3   O8    1.941300 S    
C65   C66   1.526003 S    
N2    O17   1.301384 A    
C7    C12   1.398210 A    
O18   C49   1.419959 S    
C65   H51   1.111859 S    
C62   H43   1.111615 S    
C32   N5    1.436451 S    
C42   C43   1.426640 A    
C63   H47   1.110776 S    
C59   C60   1.525737 S    
C6    C7    1.455061 S    
C36   C47   1.394351 A    
C44   C45   1.387140 A    
C15   H1    1.082077 S    
Zn2   O12   1.924079 S    
C35   C47   1.383872 A    
C56   C57   1.524998 S    
C69   H61   1.110810 S    
C49   H14   1.114329 S    
C40   C41   1.418627 A    
N5    O24   1.301189 A    
C64   C65   1.528002 S    
C67   H56   1.117112 S    
C68   H58   1.109752 S    
C67   H55   1.111146 S    
C61   C62   1.534223 S    
C33   O18   1.386186 S    
N6    O25   1.298910 A    
C66   H53   1.110466 S    
C69   H60   1.110386 S    
C16   C17   1.410216 A    
C64   H48   1.111508 S    
C55   H28   1.118454 S    
O2    C1    1.274417 A    
C24   H7    1.082694 S    
C35   H9    1.082792 S    
C13   C17   1.410210 A    
C8    N1    1.446989 S    
N5    O23   1.301871 A    
O10   C3    1.277610 A    
C62   C63   1.524832 S    
C7    C8    1.415237 A    
C60   H39   1.110351 S    
C51   H17   1.110922 S    
N1    O14   1.300156 A    
C60   H38   1.110873 S    
C11   H2    1.083452 S    
C10   C18   1.460870 S    
C8    C9    1.411906 A    
C49   H13   1.109899 S    
C5    C20   1.474351 S    
C22   C32   1.398659 A    
C4    C48   1.484837 S    
C30   C31   1.406308 A    
C18   C19   1.339443 D    
C60   H40   1.110926 S    
C58   H35   1.117098 S    
Zn3   O5    1.916023 S    
C51   H18   1.110399 S    
C23   H5    1.083287 S    
C22   C33   1.398014 A    
C26   C27   1.415562 A    
C50   C51   1.525782 S    
C13   O33   1.386351 S    
C42   C46   1.424493 A    
C29   C30   1.418644 A    
C38   H11   1.083206 S    
C36   C46   1.402055 A    
C53   H23   1.110250 S    
C41   C48   1.424469 A    
C15   C20   1.400011 A    
N7    O30   1.301214 A    
Zn4   O7    1.951244 S    
O33   C64   1.413696 S    
C21   C29   1.421675 A    
C61   H42   1.113959 S    
C50   H16   1.110679 S    
C39   C40   1.410138 A    
N4    O22   1.301135 A    
C35   C43   1.402882 A    
C25   H6    1.075345 S    
C59   H36   1.111505 S    
C68   C69   1.525985 S    
C63   H46   1.110284 S    
Zn4   O2    1.920793 S    
Zn1   O9    1.951859 S    
O27   C52   1.421063 S    
C56   H30   1.110603 S    
Zn2   O6    1.964864 S    
C45   H12   1.078877 S    
C66   H54   1.111170 S    
C69   H59   1.110886 S    
C59   H37   1.110961 S    
O29   C58   1.417017 S    
C49   C50   1.532688 S    
C2    C34   1.477207 S    
C25   C26   1.415819 A    
C31   N6    1.441662 S    
Zn1   O3    1.935016 S    
C14   O27   1.389108 S    
Zn2   O4    1.925537 S    
C23   C24   1.386447 A    
C61   H41   1.110463 S    
Zn3   O1    1.976104 S    
C58   C59   1.531470 S    
C54   H25   1.110318 S    
C55   H27   1.111150 S    
N3    O20   1.300785 A    
C54   H24   1.110470 S    
C37   C48   1.420844 A    
O3    C2    1.286532 A    
C39   H10   1.077156 S    
C52   C53   1.539497 S    
C38   C39   1.386689 A    
Zn4   O11   1.936442 S    
C58   H34   1.111267 S    
C66   H52   1.111201 S    
C1    C22   1.459240 S    
C15   C16   1.392765 A    
C51   H19   1.110997 S    
C23   C34   1.403356 A    
O5    C4    1.294406 A    
C65   H50   1.111885 S    
O11   C4    1.291061 A    
C44   O28   1.384947 S    
C57   H33   1.110187 S    
C28   C32   1.426445 A    
Zn4   O1    1.935919 S    
C12   H3    1.083663 S    
O7    C6    1.272769 A    
O13   C2    1.295937 A    
C17   C19   1.479562 S    
C52   H21   1.108992 S    
Zn3   O13   1.914144 S    
C53   C54   1.526123 S    
C41   C45   1.408877 A    
C3    C36   1.455523 S    
C43   C44   1.404136 A    
C18   H4    1.083202 S    
C54   H26   1.108363 S    
C37   C38   1.393424 A    
Zn2   O1    1.929373 S    
C14   C20   1.410901 A    
C27   C31   1.412474 A    
C50   H15   1.110717 S    
C67   C68   1.532186 S    
O12   C1    1.271526 A    
N4    O21   1.301113 A    
C10   C11   1.396178 A    
C57   H32   1.107334 S    
C63   H45   1.109779 S    
Zn1   O10   1.922668 S    
C56   H29   1.111940 S    
C16   N2    1.437905 S    
C21   C33   1.398016 A    
C30   N3    1.435455 S    
