data_mof_unit_67772.cif
_audit_creation_date              2013-03-05T15:40:34-0500
_audit_creation_method            fapswitch 2.2
_symmetry_space_group_name_H-M    P1
_symmetry_Int_Tables_number       1
_space_group_crystal_system       triclinic
_cell_length_a                    7.94233
_cell_length_b                    8.725494
_cell_length_c                    10.750195
_cell_angle_alpha                 92.879208
_cell_angle_beta                  84.968531
_cell_angle_gamma                 93.923439
_cell_volume                      739.653024154

loop_
_atom_site_label
_atom_site_type_symbol
_atom_site_description
_atom_site_fract_x
_atom_site_fract_y
_atom_site_fract_z
_atom_type_partial_charge
O1    O     O_R   0.389250 0.738570 0.508280 -0.611206
O2    O     O_R   0.610750 0.261430 0.491720 -0.611201
O3    O     O_R   0.678390 0.711630 0.486650 -0.624259
O4    O     O_R   0.321610 0.288370 0.513350 -0.624267
C1    C     C_R   0.544511 0.793638 0.497928 0.900305
C2    C     C_R   0.455492 0.206360 0.502064 0.900274
O5    O     O_R   0.355430 0.513480 0.694040 -0.624498
O6    O     O_R   0.644570 0.486520 0.305960 -0.624503
O7    O     O_R   0.644570 0.486540 0.672410 -0.620017
O8    O     O_R   0.355430 0.513460 0.327590 -0.620015
C3    C     C_R   0.503878 0.518838 0.739717 0.860716
C4    C     C_R   0.496122 0.481167 0.260282 0.860697
Zn1   Zn    Zn3+2 0.306940 0.517990 0.514440 0.936546
Zn2   Zn    Zn3+2 0.693060 0.482010 0.485560 0.936553
H1    H     H_    0.025680 0.442410 0.836277 0.164991
H2    H     H_    0.974319 0.557606 0.163727 0.164998
C5    C     C_R   0.223448 0.630948 0.918013 -0.126458
C6    C     C_R   0.776548 0.369070 0.081988 -0.126481
C7    C     C_R   0.061377 0.609366 0.980025 0.426765
C8    C     C_R   0.938620 0.390652 0.019978 0.426743
C9    C     C_R   0.040266 0.507012 0.079365 -0.199057
C10   C     C_R   0.959732 0.493005 0.920637 -0.199090
C11   C     C_R   0.183025 0.460904 0.129848 -0.200719
C12   C     C_R   0.816974 0.539112 0.870152 -0.200711
C13   C     C_R   0.344365 0.491304 0.070416 0.088245
C14   C     C_R   0.655634 0.508714 0.929584 0.088248
C15   C     C_R   0.359003 0.553934 0.952786 -0.017596
C16   C     C_R   0.640995 0.446083 0.047213 -0.017599
C17   C     C_R   0.490393 0.457695 0.124204 -0.210981
C18   C     C_R   0.509606 0.542320 0.875795 -0.210971
H3    H     H_    0.240466 0.704993 0.839658 0.174424
H4    H     H_    0.759528 0.295023 0.160341 0.174412
H5    H     H_    0.163332 0.383321 0.206092 0.165069
H6    H     H_    0.836668 0.616687 0.793903 0.165070
C19   C     C_2   0.562204 0.954036 0.476696 -0.244119
C20   C     C_2   0.437813 0.045961 0.523298 -0.244088
N1    N     N_2   0.950330 0.457950 0.466250 -0.183261
N2    N     N_2   0.049670 0.542050 0.533750 -0.183269
H7    H     H_    0.011461 0.380755 0.405957 0.181032
H8    H     H_    0.988541 0.619245 0.594044 0.181014
O9    O     O_3   0.992873 0.749701 0.006614 -0.821306
H9    H     H_    0.878176 0.733391 0.050502 0.335353
O10   O     O_3   0.007121 0.250316 0.993395 -0.821362
H10   H     H_    0.121814 0.266625 0.949503 0.335365
C21   C     C_R   0.694110 0.998272 0.377172 0.179941
C22   C     C_R   0.855969 0.052571 0.407737 -0.082847
C23   C     C_R   0.988090 0.069504 0.314205 -0.259644
C24   C     C_R   0.957679 0.034127 0.190230 0.011612
C25   C     C_R   0.792967 0.992613 0.158421 -0.121560
C26   C     C_R   0.661741 0.971714 0.251816 -0.224859
H11   H     H_    0.878795 0.081097 0.503915 0.143972
H12   H     H_    0.114303 0.108128 0.337717 0.134386
H13   H     H_    0.062178 0.040249 0.119428 0.184280
H14   H     H_    0.766607 0.973670 0.061833 0.150311
H15   H     H_    0.536403 0.931660 0.226937 0.134515
C27   C     C_R   0.305981 0.001742 0.622872 0.179900
C28   C     C_R   0.338456 0.028323 0.748205 -0.224774
C29   C     C_R   0.207294 0.007486 0.841653 -0.121794
C30   C     C_R   0.042547 0.966011 0.809914 0.011716
C31   C     C_R   0.012034 0.930589 0.685968 -0.259541
C32   C     C_R   0.144089 0.947453 0.592385 -0.082935
H16   H     H_    0.463824 0.068364 0.773021 0.134535
H17   H     H_    0.233714 0.026478 0.938226 0.150252
H18   H     H_    0.938097 0.959966 0.880749 0.184427
H19   H     H_    0.885790 0.891994 0.662518 0.134317
H20   H     H_    0.121184 0.918892 0.496228 0.144006

loop_
_geom_bond_atom_site_label_1
_geom_bond_atom_site_label_2
_geom_bond_distance
_ccdc_geom_bond_type
C30   H18   1.076138 S    
C23   H12   1.082575 S    
O5    C3    1.313434 A    
O7    Zn2   2.010738 S    
H2    C9    1.095355 S    
C20   C27   1.476700 S    
C4    C17   1.471157 S    
C13   C15   1.395050 A    
O9    H9    0.993133 S    
C14   C16   1.395045 A    
C19   C20   1.360754 D    
O5    Zn1   2.004431 S    
O6    C4    1.313439 A    
C7    C10   1.415370 A    
C9    C11   1.390776 A    
Zn1   N2    2.059675 S    
C3    C18   1.471160 S    
C6    C16   1.394711 A    
C30   C31   1.390938 A    
N1    H7    1.027245 S    
C21   C22   1.400051 A    
C8    C9    1.415368 A    
Zn2   N1    2.059675 S    
N2    H8    1.027241 S    
O7    C3    1.316200 A    
C12   C14   1.395527 A    
C28   C29   1.391521 A    
O2    C2    1.289979 A    
O3    Zn2   2.014265 S    
O8    C4    1.316192 A    
C21   C26   1.398955 A    
C22   H11   1.079203 S    
O1    C1    1.289997 A    
C1    C19   1.424833 S    
C16   C17   1.400193 A    
C7    C9    1.417778 A    
N1    N2    1.286560 D    
C2    C20   1.424842 S    
C31   H19   1.082543 S    
C14   C18   1.395240 A    
C6    C8    1.402039 A    
C11   C13   1.395527 A    
O10   H10   0.993127 S    
C13   C17   1.395242 A    
C24   H13   1.076209 S    
O2    Zn2   1.992267 S    
C10   C12   1.390778 A    
C6    H4    1.080718 S    
C25   H14   1.079566 S    
C5    C15   1.394719 A    
C23   C24   1.390971 A    
C7    O9    1.380526 S    
C28   H16   1.083656 S    
C8    O10   1.380518 S    
O1    Zn1   1.992267 S    
C27   C28   1.398944 A    
C11   H5    1.083188 S    
O4    C2    1.315381 A    
C25   C26   1.391546 A    
C29   H17   1.079567 S    
C15   C18   1.400203 A    
C27   C32   1.400022 A    
C24   C25   1.400249 A    
O6    Zn2   2.004431 S    
C5    C7    1.402051 A    
C29   C30   1.400206 A    
C22   C23   1.393771 A    
C32   H20   1.079185 S    
H1    C10   1.095354 S    
C12   H6    1.083183 S    
C5    H3    1.080725 S    
C26   H15   1.083675 S    
O4    Zn1   2.014265 S    
C8    C10   1.417781 A    
C31   C32   1.393729 A    
O3    C1    1.315355 A    
O8    Zn1   2.010738 S    
C19   C21   1.476738 S    
