data_mof_unit_67490.cif
_audit_creation_date              2013-03-05T15:41:00-0500
_audit_creation_method            fapswitch 2.2
_symmetry_space_group_name_H-M    P1
_symmetry_Int_Tables_number       1
_space_group_crystal_system       triclinic
_cell_length_a                    10.926232
_cell_length_b                    8.832351
_cell_length_c                    7.585988
_cell_angle_alpha                 103.004563
_cell_angle_beta                  95.279515
_cell_angle_gamma                 94.162547
_cell_volume                      706.986987916

loop_
_atom_site_label
_atom_site_type_symbol
_atom_site_description
_atom_site_fract_x
_atom_site_fract_y
_atom_site_fract_z
_atom_type_partial_charge
O1    O     O_R   0.509140 0.286130 0.619770 -0.583661
O2    O     O_R   0.485380 0.256770 0.308360 -0.553495
C1    C     C_R   0.499370 0.200532 0.454403 0.855524
O3    O     O_R   0.329570 0.514650 0.655700 -0.527094
O4    O     O_R   0.305810 0.485300 0.344290 -0.588208
C2    C     C_R   0.260341 0.499469 0.499381 0.817354
Cu1   Cu    Cu3+1 0.514070 0.517380 0.684380 0.985413
Cu2   Cu    Cu3+1 0.485930 0.482620 0.315620 1.015892
O5    O     O_R   0.514620 0.743230 0.691640 -0.583728
O6    O     O_R   0.490860 0.713870 0.380230 -0.596871
O7    O     O_R   0.694190 0.514700 0.655710 -0.603208
O8    O     O_R   0.670430 0.485350 0.344300 -0.556511
C3    C     C_R   0.513241 0.799866 0.547160 0.944840
C4    C     C_R   0.739833 0.503882 0.499686 0.868715
C5    C     C_3   0.080381 0.458220 0.666000 -0.388690
H1    H     H_    0.130201 0.528828 0.794617 0.289725
H2    H     H_    0.102056 0.337555 0.667199 0.216934
C6    C     C_3   0.941473 0.462958 0.667312 -0.457280
H3    H     H_    0.902503 0.348861 0.679822 0.186406
H4    H     H_    0.927889 0.541069 0.797046 0.268029
C7    C     C_3   0.086459 0.684898 0.504749 0.097877
C8    C     C_3   0.050692 0.375323 0.333496 -0.253624
C9    C     C_3   0.122414 0.507721 0.495623 -0.144199
H5    H     H_    0.057599 0.264969 0.379738 0.143798
C10   C     C_3   0.878620 0.512825 0.496267 -0.045181
C11   C     C_3   0.936112 0.689958 0.507437 -0.170590
C12   C     C_3   0.910228 0.395882 0.313026 0.422777
C13   C     C_2   0.500055 0.032871 0.434163 -0.432491
H6    H     H_    0.461966 0.960017 0.302415 0.165272
C14   C     C_2   0.535918 0.968939 0.574723 0.143443
N1    N     N_2   0.464720 0.456420 0.038520 -0.205814
N2    N     N_2   0.535280 0.543580 0.961480 -0.282751
H7    H     H_    0.583969 0.638610 0.050770 0.245266
N3    N     N_2   0.882298 0.467327 0.159401 -0.427330
H8    H     H_    0.951657 0.535381 0.124067 0.316703
C15   C     C_3   0.790828 0.394464 0.009146 -0.631178
H9    H     H_    0.765348 0.483972 0.937581 0.268800
H10   H     H_    0.705157 0.350808 0.054469 0.274734
H11   H     H_    0.828786 0.296801 0.919206 0.187292
N4    N     N_2   0.127051 0.738442 0.346901 -0.408017
H12   H     H_    0.183131 0.672650 0.266374 0.312915
C16   C     C_3   0.150157 0.904051 0.351752 -0.482008
H13   H     H_    0.128168 0.922241 0.212976 0.302603
H14   H     H_    0.249036 0.944558 0.391509 0.211941
H15   H     H_    0.093264 0.975857 0.445550 0.228696
C17   C     C_2   0.863898 0.757078 0.359473 0.826135
O9    O     O_2   0.755106 0.777376 0.371568 -0.651733
O10   O     O_R   0.915957 0.798132 0.213674 -0.725939
H16   H     H_    0.855970 0.843765 0.134726 0.356681
N5    N     N_2   0.601668 0.063192 0.741526 -0.400758
H17   H     H_    0.674652 0.135744 0.722753 0.247883
C18   C     C_3   0.623311 0.004330 0.904727 -0.571198
H18   H     H_    0.661371 0.099928 0.020733 0.225474
H19   H     H_    0.689689 0.916216 0.886924 0.248455
H20   H     H_    0.536300 0.955610 0.944020 0.268251
C19   C     C_2   0.404583 0.311902 0.934138 1.178815
O11   O     O_2   0.431933 0.191590 0.971856 -0.638761
O12   O     O_R   0.303757 0.304803 0.806867 -0.767433
H21   H     H_    0.273208 0.194087 0.738599 0.294997
C20   C     C_2   0.163033 0.788039 0.681063 0.852198
O13   O     O_2   0.129721 0.794952 0.832143 -0.587012
O14   O     O_R   0.277055 0.865321 0.671487 -0.798172
H22   H     H_    0.318666 0.923731 0.795400 0.353671
C21   C     C_2   0.907840 0.808202 0.678500 0.867839
O15   O     O_2   0.849125 0.768486 0.792066 -0.627636
O16   O     O_R   0.946993 0.966654 0.701506 -0.806289
H23   H     H_    0.920350 0.034286 0.815430 0.335405
C22   C     C_2   0.103444 0.325508 0.152121 0.849168
O17   O     O_2   0.132112 0.419735 0.064270 -0.607594
O18   O     O_R   0.117756 0.167581 0.085064 -0.779223
H24   H     H_    0.148533 0.145213 0.960948 0.360055
N6    N     N_2   0.841540 0.239249 0.268185 -0.440101
H25   H     H_    0.868343 0.166360 0.154635 0.266990
C23   C     C_3   0.810913 0.152000 0.399628 -0.711503
H26   H     H_    0.753090 0.044091 0.327476 0.260100
H27   H     H_    0.752739 0.215697 0.495642 0.207818
H28   H     H_    0.895605 0.120257 0.468549 0.264396

loop_
_geom_bond_atom_site_label_1
_geom_bond_atom_site_label_2
_geom_bond_distance
_ccdc_geom_bond_type
C5    C6    1.522234 S    
N5    C18   1.453473 S    
C7    C11   1.648448 S    
C16   H14   1.105223 S    
C5    H2    1.110231 S    
O18   H24   1.011339 S    
C11   C21   1.542974 S    
N1    C19   1.419734 S    
C10   C12   1.616276 S    
C6    H3    1.092718 S    
C6    H4    1.096694 S    
N1    N2    1.314458 D    
C18   H20   1.108307 S    
Cu2   O8    2.005391 S    
C21   O15   1.217324 D    
C23   H28   1.105828 S    
C13   C14   1.354833 D    
N5    H17   1.026941 S    
C14   N5    1.442942 S    
C18   H19   1.096618 S    
Cu1   Cu2   2.730525 S    
C12   N3    1.463886 S    
O6    C3    1.312805 A    
C18   H18   1.098891 S    
N2    H7    1.029225 S    
C20   O14   1.392416 S    
Cu1   O7    2.001059 S    
C7    N4    1.475243 S    
C8    C22   1.526183 S    
C8    C9    1.592646 S    
O14   H22   1.012671 S    
C6    C10   1.576826 S    
C23   H27   1.097148 S    
C20   O13   1.224023 D    
O3    Cu1   2.005392 S    
O10   H16   1.012656 S    
C2    C9    1.512015 S    
N4    C16   1.457766 S    
N4    H12   1.023282 S    
C10   C11   1.623981 S    
O8    C4    1.312229 A    
O2    C1    1.313399 A    
N3    C15   1.441898 S    
C8    C12   1.556218 S    
C7    C9    1.628962 S    
C4    C10   1.515653 S    
O4    C2    1.302691 A    
C22   O17   1.218640 D    
O7    C4    1.312779 A    
C8    H5    1.112859 S    
O4    Cu2   2.001059 S    
C1    C13   1.454648 S    
C23   H26   1.105116 S    
C5    C9    1.551446 S    
O3    C2    1.320979 A    
C15   H10   1.099818 S    
C13   H6    1.086867 S    
C17   O10   1.394511 S    
C3    C14   1.459903 S    
O16   H23   1.013738 S    
C19   O11   1.211439 D    
C7    C20   1.566488 S    
N6    C23   1.438708 S    
N3    H8    1.025282 S    
C16   H13   1.107706 S    
Cu1   O5    1.982674 S    
C22   O18   1.398514 S    
C11   C17   1.561507 S    
C17   O9    1.223576 D    
C15   H9    1.092947 S    
O5    C3    1.302511 A    
Cu1   N2    2.051737 S    
O12   H21   1.014275 S    
O1    Cu1   1.985821 S    
Cu2   N1    2.051737 S    
C15   H11   1.104860 S    
Cu2   O6    1.985821 S    
O2    Cu2   1.982675 S    
C12   N6    1.477619 S    
C5    H1    1.102876 S    
C19   O12   1.384447 S    
N6    H25   1.032683 S    
O1    C1    1.301336 A    
C16   H15   1.109276 S    
C21   O16   1.400537 S    
