data_mof_unit_14908.cif
_audit_creation_date              2012-12-11T18:34:49-0500
_audit_creation_method            fapswitch 2.2
_symmetry_space_group_name_H-M    P1
_symmetry_Int_Tables_number       1
_space_group_crystal_system       triclinic
_cell_length_a                    8.342204
_cell_length_b                    14.404994
_cell_length_c                    22.838539
_cell_angle_alpha                 93.644119
_cell_angle_beta                  89.706552
_cell_angle_gamma                 91.768679
_cell_volume                      2737.62573731

loop_
_atom_site_label
_atom_site_type_symbol
_atom_type_description
_atom_site_fract_x
_atom_site_fract_y
_atom_site_fract_z
_atom_type_partial_charge
Ba1   Ba    Ba6+2 0.846250 0.544220 0.470860 1.875701
Ba2   Ba    Ba6+2 0.343570 0.455860 0.529140 1.824708
C1    C     C_3   0.627861 0.885303 0.303514 0.692252
C2    C     C_R   0.098393 0.588159 0.938074 -0.031171
C3    C     C_R   0.050132 0.587323 0.878605 0.618730
C4    C     C_3   0.078913 0.735804 0.300923 0.793682
C5    C     C_R   0.937702 0.432556 0.883773 0.570845
C6    C     C_R   0.984584 0.431324 0.943233 -0.015121
C7    C     C_R   0.065170 0.509656 0.970497 -0.052052
C8    C     C_R   0.179008 0.665918 0.965991 -0.061553
C9    C     C_R   0.225531 0.665742 0.024727 -0.071760
C10   C     C_R   0.193075 0.587796 0.057679 -0.014402
C11   C     C_R   0.112853 0.509467 0.030431 -0.048132
C12   C     C_3   0.616878 0.790306 0.329507 0.921892
C13   C     C_R   0.953467 0.353115 0.976039 -0.066076
C14   C     C_R   0.001405 0.352714 0.034666 -0.068025
C15   C     C_R   0.081296 0.430720 0.062718 -0.030373
C16   C     C_3   0.063595 0.761296 0.237105 0.691389
C17   C     C_R   0.131005 0.431306 0.122099 0.598023
C18   C     C_R   0.238995 0.587018 0.117227 0.575050
C19   C     C_2   0.771986 0.485261 0.772729 -0.101678
C20   C     C_3   0.727258 0.484959 0.708387 0.117627
C21   C     C_1   0.003229 0.523883 0.686315 -0.018735
C22   C     C_2   0.044572 0.533156 0.742813 -0.148823
C23   C     C_3   0.512709 0.321715 0.355176 0.327792
C24   C     C_2   0.924124 0.509804 0.789921 0.197350
C25   C     C_R   0.404412 0.547692 0.230359 -0.076864
C26   C     C_R   0.445326 0.555509 0.289895 0.001431
C27   C     C_R   0.193185 0.480106 0.315205 0.020033
C28   C     C_3   0.151766 0.736297 0.581294 0.811659
C29   C     C_R   0.147410 0.476264 0.255454 -0.082156
C30   C     C_R   0.252330 0.511010 0.211879 0.203338
C31   C     C_2   0.872616 0.476573 0.669426 -0.212542
C32   C     C_R   0.701611 0.934691 0.525656 0.053619
C33   C     C_R   0.522174 0.799574 0.491437 0.118635
C34   C     C_3   0.494599 0.295443 0.289882 0.541401
C35   C     C_R   0.390834 0.767193 0.456883 0.398230
C36   C     C_R   0.284336 0.829189 0.435142 -0.047232
C37   C     C_R   0.324377 0.924316 0.436892 0.022927
C38   C     C_R   0.466724 0.958663 0.465626 -0.018191
C39   C     C_R   0.564112 0.896968 0.495040 -0.059955
C40   C     C_3   0.172740 0.841750 0.586280 0.484719
C41   C     C_R   0.648004 0.090505 0.496086 -0.021444
C42   C     C_R   0.747061 0.029747 0.524694 0.012082
C43   C     C_R   0.689413 0.186768 0.497942 -0.003841
C44   C     C_R   0.829570 0.220255 0.526329 -0.175624
C45   C     C_3   0.236345 0.184441 0.694539 0.468376
C46   C     C_R   0.935823 0.160016 0.549841 0.094121
C47   C     C_R   0.892174 0.064918 0.550821 -0.136064
C48   C     C_R   0.511214 0.053764 0.466211 -0.004606
C49   C     C_3   0.999092 0.257655 0.406262 0.297357
C50   C     C_3   0.943451 0.160056 0.384643 -0.347110
C51   C     C_3   0.639724 0.696664 0.654943 0.880646
C52   C     C_3   0.511434 0.710321 0.702999 0.528196
C53   C     C_3   0.839903 0.811973 0.698490 -0.282349
C54   C     C_3   0.152214 0.878185 0.169302 -0.099539
C55   C     C_3   0.111817 0.311384 0.755716 -0.139897
C56   C     C_3   0.229414 0.101504 0.734463 0.563915
C57   C     C_3   0.241763 0.933589 0.736290 -0.071613
C58   C     C_3   0.243223 0.988613 0.346539 -0.143919
C59   C     C_3   0.724387 0.258349 0.709220 0.825569
C60   C     C_3   0.721233 0.157394 0.725250 -0.208308
C61   C     C_R   0.339891 0.522147 0.331681 -0.199794
F1    F     F_    0.707674 0.795137 0.379923 -0.707985
F2    F     F_    0.358459 0.674540 0.448237 -0.681434
F3    F     F_    0.908303 0.784995 0.225618 -0.658970
F4    F     F_    0.283936 0.697736 0.555860 -0.713075
F5    F     F_    0.324140 0.867915 0.606752 -0.723715
F6    F     F_    0.629061 0.605400 0.632529 -0.741804
F7    F     F_    0.785740 0.913089 0.295020 -0.622140
F8    F     F_    0.530556 0.649355 0.746641 -0.734291
F9    F     F_    0.381263 0.223823 0.281178 -0.675699
F10   F     F_    0.362745 0.106608 0.770750 -0.738946
F11   F     F_    0.791854 0.263435 0.654098 -0.771270
F12   F     F_    0.235537 0.712027 0.310147 -0.837995
H1    H     H_    0.157053 0.870140 0.542881 -0.087872
H2    H     H_    0.489916 0.775731 0.340694 -0.170739
H3    H     H_    0.573924 0.937897 0.334550 -0.117168
H4    H     H_    0.394104 0.341580 0.373251 -0.008335
H5    H     H_    0.599307 0.381757 0.360810 -0.070116
H6    H     H_    0.455899 0.356094 0.266653 -0.098278
H7    H     H_    0.611250 0.272781 0.271169 0.025438
H8    H     H_    0.563013 0.883121 0.261119 -0.059554
H9    H     H_    0.344564 0.177151 0.666344 0.090439
H10   H     H_    0.120660 0.106020 0.762730 0.019717
H11   H     H_    0.794930 0.300113 0.742563 -0.057610
H12   H     H_    0.080004 0.871992 0.615785 -0.092377
H13   H     H_    0.844234 0.130314 0.723846 0.057353
H14   H     H_    0.645019 0.113981 0.693788 0.130647
H15   H     H_    0.999252 0.674387 0.307509 0.012236
H16   H     H_    0.672715 0.152128 0.770311 0.128593
H17   H     H_    0.975071 0.290917 0.058058 0.131295
H18   H     H_    0.892057 0.291571 0.956400 0.128512
H19   H     H_    0.287423 0.727190 0.044261 0.118545
H20   H     H_    0.491245 0.570946 0.198698 0.119809
H21   H     H_    0.206619 0.727420 0.942461 0.128966
H22   H     H_    0.167534 0.551906 0.754870 0.152807
H23   H     H_    0.894523 0.296044 0.423566 -0.015831
H24   H     H_    0.679822 0.470697 0.804883 0.119684
H25   H     H_    0.031055 0.446187 0.243221 0.126117
H26   H     H_    0.375376 0.525531 0.377248 0.115834
H27   H     H_    0.867710 0.436298 0.627586 0.100277
H28   H     H_    0.970650 0.018883 0.571960 0.053690
H29   H     H_    0.859364 0.294048 0.528302 0.050042
H30   H     H_    0.777225 0.891064 0.549550 0.057302
H31   H     H_    0.439549 0.099476 0.442524 0.090884
H32   H     H_    0.089947 0.698975 0.208262 0.000010
H33   H     H_    0.048763 0.718170 0.552854 -0.027200
H34   H     H_    0.089967 0.253407 0.441287 0.017127
H35   H     H_    0.826675 0.671666 0.711626 0.196056
H36   H     H_    0.967893 0.816824 0.710831 0.131764
H37   H     H_    0.769822 0.835505 0.737781 0.122693
H38   H     H_    0.821030 0.858874 0.662596 0.116692
H39   H     H_    0.293171 0.821829 0.231468 0.184601
H40   H     H_    0.245314 0.933812 0.163949 0.100891
H41   H     H_    0.032978 0.910230 0.168204 0.183502
H42   H     H_    0.162350 0.824728 0.132338 0.110155
H43   H     H_    0.339012 0.267440 0.764583 0.250778
H44   H     H_    0.146643 0.370055 0.787300 0.107874
H45   H     H_    0.830981 0.162294 0.359207 0.152373
H46   H     H_    0.038695 0.260135 0.779426 0.108882
H47   H     H_    0.044147 0.338977 0.719550 0.136296
H48   H     H_    0.127809 0.005386 0.673096 0.168465
H49   H     H_    0.144657 0.931604 0.769735 0.067765
H50   H     H_    0.360237 0.936915 0.758402 0.168598
H51   H     H_    0.235379 0.867913 0.708497 0.128572
H52   H     H_    0.193894 0.046001 0.431723 0.186706
H53   H     H_    0.318762 0.050905 0.337406 0.147283
H54   H     H_    0.125477 0.991900 0.324688 0.186216
H55   H     H_    0.300145 0.925267 0.327062 0.080529
H56   H     H_    0.924481 0.114918 0.421668 0.048645
H57   H     H_    0.035705 0.129665 0.355146 0.160848
H58   H     H_    0.515465 0.782607 0.722823 -0.043365
H59   H     H_    0.391139 0.698806 0.684016 0.076300
N1    N     N_R   0.971062 0.509929 0.851738 -0.422476
N2    N     N_R   0.205941 0.509814 0.149710 -0.427521
N3    N     N_2   0.798007 0.716116 0.680042 -0.449494
N4    N     N_2   0.174975 0.837084 0.224712 -0.417434
N5    N     N_2   0.254314 0.269714 0.732079 -0.402481
N6    N     N_2   0.224900 0.012842 0.700876 -0.395097
N7    N     N_2   0.219601 0.984009 0.409174 -0.422898
O1    O     O_2   0.901900 0.448470 0.362340 -0.480830
O2    O     O_2   0.273035 0.164258 0.563677 -0.520691
O3    O     O_3   0.092931 0.185347 0.661629 -0.637850
O4    O     O_3   0.142240 0.449440 0.433360 -0.475523
O5    O     O_3   0.549340 0.612930 0.525560 -0.313107
O6    O     O_2   0.396530 0.270940 0.479440 -0.473244
O7    O     O_3   0.569206 0.244971 0.382646 -0.652755
O8    O     O_2   0.398486 0.436685 0.705674 -0.454708
O9    O     O_3   0.567943 0.289951 0.710253 -0.642926
O10   O     O_2   0.076738 0.656155 0.851027 -0.580915
O11   O     O_2   0.868585 0.364058 0.860386 -0.623217
O12   O     O_3   0.611140 0.759582 0.611895 -0.650423
O13   O     O_2   0.110025 0.361009 0.148732 -0.571344
O14   O     O_2   0.307963 0.655916 0.140100 -0.615470
O15   O     O_3   0.645560 0.619080 0.391970 -0.419046
O16   O     O_2   0.777306 0.552190 0.292035 -0.525506
O17   O     O_3   0.068488 0.300193 0.358847 -0.595409
O18   O     O_3   0.673856 0.721225 0.288934 -0.570766
O19   O     O_2   0.793170 0.729090 0.520590 -0.524899
O20   O     O_3   0.052800 0.667320 0.419180 -0.409262
O21   O     O_2   0.953847 0.835530 0.450643 -0.453558
O22   O     O_3   0.034304 0.810763 0.339643 -0.522324
O23   O     O_2   0.287790 0.551560 0.637690 -0.394062
O24   O     O_3   0.047460 0.550640 0.566640 -0.465116
O25   O     O_3   0.544140 0.380990 0.608030 -0.398265
O26   O     O_3   0.128525 0.701286 0.636499 -0.683456
O27   O     O_3   0.640350 0.387150 0.474440 -0.478350
O28   O     O_3   0.136890 0.332750 0.580830 -0.465759
P1    P     P_3+3 0.074990 0.420800 0.372080 1.019476
P2    P     P_3+3 0.618830 0.715330 0.538180 1.224871
P3    P     P_3+3 0.081749 0.786154 0.411716 1.172214
P4    P     P_3+3 0.114710 0.579280 0.627920 1.096283
P5    P     P_3+3 0.118198 0.210839 0.587229 1.009786
P6    P     P_3+3 0.635679 0.610757 0.315326 1.043215
P7    P     P_3+3 0.576257 0.271116 0.458429 0.944756
P8    P     P_3+3 0.562580 0.401004 0.683868 1.111197

loop_
_geom_bond_atom_site_label_1
_geom_bond_atom_site_label_2
_ccdc_geom_bond_type
C42   C47   A    
C19   C24   D    
C27   C61   A    
O15   P6    S    
C51   O12   S    
C18   O14   D    
C53   H37   S    
C23   H5    S    
C33   P2    S    
C54   H42   S    
Ba1   O4    S    
C61   H26   S    
C51   F6    S    
C4    F12   S    
C51   C52   S    
Ba2   O4    S    
C10   C11   A    
Ba2   O28   S    
O7    P7    S    
C51   N3    S    
C33   C35   A    
C22   C24   S    
C28   O26   S    
Ba2   P4    S    
C36   C37   A    
C19   H24   S    
O24   P4    S    
C13   C14   A    
C52   H59   S    
C60   H14   S    
Ba1   P1    S    
C55   N5    S    
C45   H9    S    
Ba1   Ba2   S    
H52   N7    S    
C12   H2    S    
C16   N4    S    
C7    C11   A    
C16   H32   S    
Ba1   O1    S    
C55   H47   S    
O20   P3    S    
C25   H20   S    
O19   P2    D    
C52   F8    S    
C37   N7    S    
C34   H7    S    
C14   C15   A    
C21   C31   D    
C35   F2    S    
C21   C22   D    
C24   N1    S    
Ba1   O24   S    
C27   P1    S    
C59   O9    S    
Ba2   O25   S    
C28   F4    S    
C55   H44   S    
C53   H36   S    
C49   H23   S    
Ba1   O20   S    
C49   H34   S    
O18   P6    S    
O5    P2    S    
C40   F5    S    
C50   H56   S    
O12   P2    S    
Ba1   O5    S    
C32   C39   A    
C20   P8    S    
C16   F3    S    
C46   P5    S    
H35   N3    S    
C4    C16   S    
C44   C46   A    
C22   H22   S    
C50   H57   S    
O26   P4    S    
C58   H53   S    
C1    F7    S    
C32   C42   A    
C8    C9    A    
C43   P7    S    
C58   H55   S    
C37   C38   A    
C30   N2    S    
O6    P7    D    
C6    C7    A    
C53   H38   S    
Ba1   O27   S    
C17   N2    Am   
C43   C44   A    
C52   H58   S    
C44   H29   S    
C45   O3    S    
Ba1   P2    S    
C31   H27   S    
C57   H51   S    
Ba1   O15   S    
C41   C42   A    
C5    N1    Am   
C35   C36   A    
C58   N7    S    
C54   N4    S    
C29   C30   A    
C8    H21   S    
C34   H6    S    
O28   P5    S    
C12   F1    S    
C60   H16   S    
C10   C18   A    
O8    P8    D    
C54   H41   S    
O23   P4    D    
C26   P6    S    
O25   P8    S    
C29   H25   S    
C18   N2    Am   
O22   P3    S    
C41   C43   A    
Ba2   O24   S    
O3    P5    S    
C1    C12   S    
O16   P6    D    
O9    P8    S    
O27   P7    S    
C50   H45   S    
C9    H19   S    
C46   C47   A    
C14   H17   S    
C6    C13   A    
C1    H8    S    
C57   H50   S    
C13   H18   S    
Ba2   O23   S    
H43   N5    S    
C56   H10   S    
Ba2   O27   S    
C56   N6    S    
C57   H49   S    
C3    N1    Am   
C20   C31   S    
O4    P1    S    
C38   C39   A    
C28   H33   S    
C25   C30   A    
C23   H4    S    
C32   H30   S    
Ba1   O19   S    
O17   P1    S    
C2    C3    A    
C3    O10   D    
C58   H54   S    
C47   H28   S    
C9    C10   A    
C41   C48   A    
C36   P3    S    
C21   P4    S    
C11   C15   A    
C59   F11   S    
Ba2   O5    S    
C49   O17   S    
C40   H1    S    
C53   N3    S    
O1    P1    D    
C12   O18   S    
Ba2   O6    S    
C49   C50   S    
C27   C29   A    
C4    H15   S    
C45   C56   S    
C60   H13   S    
C57   N6    S    
C38   C48   A    
H48   N6    S    
C15   C17   A    
C54   H40   S    
C23   O7    S    
H39   N4    S    
C59   C60   S    
C33   C39   A    
C5    C6    A    
C59   H11   S    
C23   C34   S    
C55   H46   S    
C5    O11   D    
C26   C61   A    
O21   P3    D    
C4    O22   S    
C45   N5    S    
C25   C26   A    
C48   H31   S    
C17   O13   D    
C28   C40   S    
C40   H12   S    
O2    P5    D    
C2    C7    A    
C19   C20   S    
C1    H3    S    
C2    C8    A    
C34   F9    S    
C56   F10   S    
