data_mof_unit_6924.cif
_audit_creation_date              2012-12-10T21:28:05-0500
_audit_creation_method            fapswitch 2.2
_symmetry_space_group_name_H-M    P1
_symmetry_Int_Tables_number       1
_space_group_crystal_system       triclinic
_cell_length_a                    12.841088
_cell_length_b                    16.24389
_cell_length_c                    16.550341
_cell_angle_alpha                 87.227069
_cell_angle_beta                  91.048904
_cell_angle_gamma                 100.793894
_cell_volume                      3387.02223263

loop_
_atom_site_label
_atom_site_type_symbol
_atom_type_description
_atom_site_fract_x
_atom_site_fract_y
_atom_site_fract_z
_atom_type_partial_charge
C1    C     C_R   0.495201 0.487629 0.653471 1.016833
C2    C     C_R   0.503033 0.512493 0.346580 1.005719
C3    C     C_R   0.580113 0.525863 0.865696 0.186255
C4    C     C_R   0.396264 0.484810 0.138153 0.193271
C5    C     C_R   0.507884 0.464942 0.909201 0.136769
C6    C     C_R   0.467561 0.545658 0.093568 0.124929
C7    C     C_R   0.438261 0.402282 0.869281 0.282123
C8    C     C_R   0.541331 0.606000 0.132834 0.301976
C9    C     C_R   0.424477 0.411718 0.784311 0.289690
C10   C     C_R   0.563345 0.591664 0.215912 0.312604
C11   C     C_R   0.453874 0.757307 0.455052 0.215503
C12   C     C_R   0.549357 0.244904 0.543518 0.192955
C13   C     C_R   0.433740 0.839115 0.468839 0.244395
C14   C     C_R   0.560671 0.159703 0.535614 0.299541
C15   C     C_R   0.493217 0.887866 0.528615 0.097313
C16   C     C_R   0.491396 0.108112 0.482833 0.094747
C17   C     C_R   0.551703 0.845942 0.584709 0.017738
C18   C     C_R   0.426647 0.148000 0.429640 0.015665
C19   C     C_R   0.557532 0.760077 0.575714 0.262659
C20   C     C_R   0.431756 0.236437 0.430760 0.215072
C21   C     C_R   0.702779 0.517327 0.494284 0.948422
C22   C     C_R   0.297007 0.482806 0.502978 0.962139
C23   C     C_R   0.183297 0.470842 0.506543 -0.135365
C24   C     C_R   0.816249 0.529600 0.483480 -0.139357
C25   C     C_R   0.985134 0.604960 0.526270 -0.081884
C26   C     C_R   0.017241 0.397894 0.454978 -0.076614
C27   C     C_R   0.878765 0.601688 0.512728 -0.258691
C28   C     C_R   0.124055 0.401896 0.469061 -0.274765
C29   C     C_R   0.863860 0.467031 0.451067 0.410064
C30   C     C_R   0.133821 0.532430 0.538282 0.391879
C31   C     C_R   0.970042 0.466195 0.471977 -0.024654
C32   C     C_R   0.029841 0.534649 0.513236 -0.036224
C33   C     C_R   0.494029 0.477434 0.741407 -0.253207
C34   C     C_R   0.496845 0.524528 0.259186 -0.222512
C35   C     C_R   0.571924 0.531810 0.782314 -0.384592
C36   C     C_R   0.410357 0.476375 0.221105 -0.403885
H1    H     H_    0.160957 0.352100 0.448179 0.178727
H2    H     H_    0.845197 0.654498 0.528450 0.186563
H3    H     H_    0.030610 0.662082 0.549149 0.227471
H4    H     H_    0.973622 0.341835 0.428971 0.229565
H5    H     H_    0.352671 0.432698 0.256479 0.178296
H6    H     H_    0.628155 0.578561 0.749117 0.185803
N1    N     N_2   0.498097 0.471102 0.993024 -0.067070
N2    N     N_2   0.475396 0.539661 0.009561 -0.081989
N3    N     N_R   0.512890 0.717880 0.509760 -0.124969
N4    N     N_R   0.487110 0.282120 0.490240 -0.141843
N5    N     N_2   0.490041 0.975675 0.538365 -0.056872
N6    N     N_2   0.494303 0.020205 0.473779 -0.038372
O1    O     O_R   0.495390 0.422190 0.612650 -0.581283
O2    O     O_R   0.504610 0.577810 0.387350 -0.580696
O3    O     O_R   0.503660 0.562120 0.618910 -0.585217
O4    O     O_R   0.496340 0.437880 0.381090 -0.576295
O5    O     O_R   0.650190 0.441600 0.497400 -0.594884
O6    O     O_R   0.349810 0.558400 0.502600 -0.592864
O7    O     O_R   0.658460 0.581530 0.503670 -0.602843
O8    O     O_R   0.341540 0.418470 0.496330 -0.607711
Zn1   Zn    Zn3+2 0.494480 0.406570 0.495820 1.036056
Zn2   Zn    Zn3+2 0.505520 0.593430 0.504180 1.048346
S1    S     S_3+6 0.195741 0.600126 0.614915 0.039370
O9    O     O_2   0.242053 0.684543 0.576765 -0.320906
O10   O     O_2   0.114557 0.610717 0.676014 -0.289564
O11   O     O_3   0.292050 0.560716 0.664175 -0.510950
H7    H     H_    0.323244 0.604020 0.702289 0.381430
S2    S     S_3+6 0.796018 0.396779 0.378881 0.036930
O12   O     O_2   0.704705 0.430033 0.340290 -0.282937
O13   O     O_2   0.870714 0.385775 0.313040 -0.288429
O14   O     O_3   0.751107 0.303089 0.425815 -0.544487
H8    H     H_    0.701791 0.271568 0.386541 0.377371
N7    N     N_2   0.595829 0.886990 0.655255 -0.287118
H9    H     H_    0.557767 0.931959 0.676535 0.290683
C37   C     C_3   0.710358 0.904679 0.663497 -0.563354
H10   H     H_    0.739631 0.972460 0.670620 0.287874
H11   H     H_    0.749938 0.886085 0.609969 0.237565
H12   H     H_    0.733715 0.871340 0.718966 0.212382
N8    N     N_2   0.365740 0.101599 0.368251 -0.277849
H13   H     H_    0.392570 0.050951 0.347095 0.306392
C38   C     C_3   0.252002 0.097766 0.366160 -0.571588
H14   H     H_    0.209967 0.031658 0.364799 0.297974
H15   H     H_    0.230099 0.130958 0.310049 0.211778
H16   H     H_    0.224596 0.126432 0.419640 0.218895
N9    N     N_2   0.602798 0.715770 0.639158 -0.254396
H17   H     H_    0.582525 0.727871 0.696844 0.238292
C39   C     C_3   0.713313 0.710699 0.630901 -0.732721
H18   H     H_    0.760868 0.741379 0.681491 0.216336
H19   H     H_    0.746058 0.741227 0.572904 0.240035
H20   H     H_    0.721701 0.644042 0.634600 0.238925
N10   N     N_2   0.387345 0.279258 0.365773 -0.264381
H21   H     H_    0.305900 0.265101 0.362071 0.209631
C40   C     C_3   0.439727 0.279159 0.288664 -0.658537
H22   H     H_    0.394935 0.306523 0.239937 0.215049
H23   H     H_    0.443709 0.214896 0.271185 0.241092
H24   H     H_    0.521653 0.315963 0.291514 0.284844
N11   N     N_2   0.310891 0.431909 0.099313 -0.250333
H25   H     H_    0.280256 0.377470 0.132246 0.235114
C41   C     C_3   0.228961 0.474740 0.067013 -0.609289
H26   H     H_    0.166153 0.429233 0.037522 0.265586
H27   H     H_    0.261951 0.524284 0.020956 0.252219
H28   H     H_    0.192628 0.503304 0.116505 0.218442
N12   N     N_2   0.662700 0.580007 0.906040 -0.245569
H29   H     H_    0.691738 0.635314 0.873870 0.239613
C42   C     C_3   0.746550 0.538693 0.937431 -0.611625
H30   H     H_    0.783825 0.511637 0.887406 0.216572
H31   H     H_    0.715003 0.488156 0.983005 0.258143
H32   H     H_    0.808482 0.584696 0.967152 0.265894
S3    S     S_3+6 0.372835 0.313182 0.927859 0.099839
O15   O     O_2   0.264565 0.326528 0.950258 -0.259733
O16   O     O_2   0.362315 0.235148 0.880860 -0.194480
O17   O     O_3   0.442343 0.299520 0.013080 -0.543164
H33   H     H_    0.393276 0.259122 0.047885 0.379788
S4    S     S_3+6 0.598271 0.699661 0.076990 0.100339
O18   O     O_2   0.528258 0.714241 0.005937 -0.288710
O19   O     O_2   0.609861 0.773723 0.129629 -0.210332
O20   O     O_3   0.717945 0.691355 0.042662 -0.502687
H34   H     H_    0.742456 0.744150 0.010358 0.380792
S5    S     S_3+6 0.316221 0.347473 0.734197 0.104601
O21   O     O_2   0.221303 0.326149 0.788156 -0.183616
O22   O     O_2   0.283453 0.391544 0.659157 -0.292791
O23   O     O_3   0.352479 0.258169 0.708589 -0.541182
H35   H     H_    0.296326 0.232108 0.670987 0.378618
S6    S     S_3+6 0.675189 0.653523 0.263987 0.105045
O24   O     O_2   0.642463 0.729278 0.296998 -0.282014
O25   O     O_2   0.716230 0.604097 0.332151 -0.298811
O26   O     O_3   0.775346 0.685015 0.199067 -0.448709
H36   H     H_    0.829218 0.723565 0.229574 0.389323
N13   N     N_2   0.609970 0.295439 0.601966 -0.252627
H37   H     H_    0.686035 0.322574 0.585472 0.286388
C43   C     C_3   0.596577 0.268983 0.686639 -0.516730
H38   H     H_    0.578417 0.321366 0.720948 0.218717
H39   H     H_    0.671163 0.252605 0.711851 0.249212
H40   H     H_    0.531476 0.213898 0.695641 0.273638
N14   N     N_2   0.426149 0.721591 0.378727 -0.247423
H41   H     H_    0.451206 0.761993 0.330007 0.267111
C44   C     C_3   0.320680 0.672898 0.366840 -0.527480
H42   H     H_    0.276320 0.705655 0.321314 0.246679
H43   H     H_    0.274879 0.662095 0.423563 0.268411
H44   H     H_    0.326234 0.611364 0.342860 0.188113
S7    S     S_3+6 0.670416 0.123157 0.582221 0.011289
O27   O     O_2   0.639223 0.089739 0.666254 -0.351102
O28   O     O_2   0.701718 0.055214 0.534733 -0.278285
O29   O     O_3   0.776420 0.201176 0.587693 -0.535716
H45   H     H_    0.829329 0.176966 0.620738 0.389279
S8    S     S_3+6 0.318623 0.870666 0.425515 0.026351
O30   O     O_2   0.338873 0.897695 0.338273 -0.289811
O31   O     O_2   0.225111 0.799714 0.429875 -0.283626
O32   O     O_3   0.284895 0.948973 0.475942 -0.545210
H46   H     H_    0.260895 0.923362 0.529547 0.375878

loop_
_geom_bond_atom_site_label_1
_geom_bond_atom_site_label_2
_ccdc_geom_bond_type
C21   O5    A    
N10   H21   S    
C4    C36   A    
C17   N7    S    
N11   H25   S    
S3    O15   D    
C41   H26   S    
C24   C27   A    
C15   N5    S    
N8    H13   S    
C16   N6    S    
N9    H17   S    
C41   H28   S    
C1    C33   S    
O26   H36   S    
C22   O6    A    
C38   H14   S    
O8    Zn1   S    
S7    O28   D    
C18   N8    S    
C8    C10   A    
C27   H2    S    
S5    O21   D    
C20   N10   S    
O1    Zn1   S    
O17   H33   S    
C15   C17   A    
N7    C37   S    
C35   H6    S    
O7    Zn2   S    
O23   H35   S    
C2    O2    A    
C17   C19   A    
C24   C29   A    
C39   H18   S    
S5    O22   D    
C44   H44   S    
C7    S3    S    
C40   H23   S    
C18   C20   A    
S6    O26   S    
C2    C34   S    
C25   C32   A    
C5    N1    S    
C29   S2    S    
C26   C31   A    
C42   H31   S    
C6    N2    S    
C9    C33   A    
S8    O32   S    
C36   H5    S    
N9    C39   S    
C42   H30   S    
S6    O25   D    
O32   H46   S    
C38   H15   S    
N11   C41   S    
S7    O29   S    
N3    Zn2   S    
S1    O10   D    
S2    O14   S    
O14   H8    S    
C9    S5    S    
C23   C30   A    
N5    N6    D    
O29   H45   S    
C12   N4    A    
C21   O7    A    
O5    Zn1   S    
C22   O8    A    
C12   N13   S    
C3    C5    A    
C13   S8    S    
S4    O18   D    
S2    O13   D    
N1    N2    D    
C43   H39   S    
O11   H7    S    
C8    S4    S    
S3    O16   D    
N12   H29   S    
C14   S7    S    
C3    C35   A    
S5    O23   S    
C30   S1    S    
C19   N3    A    
O2    Zn2   S    
C10   C34   A    
O3    Zn2   S    
C23   C28   A    
C40   H24   S    
N8    C38   S    
S4    O20   S    
C2    O4    A    
C4    C6    A    
C39   H19   S    
C12   C14   A    
C42   H32   S    
C13   C15   A    
N4    Zn1   S    
N13   H37   S    
C14   C16   A    
C11   N3    A    
C43   H38   S    
S8    O31   D    
S6    O24   D    
C5    C7    A    
O20   H34   S    
O6    Zn2   S    
C38   H16   S    
C7    C9    A    
S1    O11   S    
N12   C42   S    
S8    O30   D    
C31   C32   A    
N14   C44   S    
C11   N14   S    
C37   H12   S    
C6    C8    A    
C41   H27   S    
C25   C27   A    
S7    O27   D    
C26   C28   A    
C1    O3    A    
S2    O12   D    
N10   C40   S    
C43   H40   S    
C37   H10   S    
C29   C31   A    
C25   H3    S    
C30   C32   A    
C11   C13   A    
C26   H4    S    
C44   H42   S    
C28   H1    S    
C33   C35   A    
C34   C36   A    
N7    H9    S    
S4    O19   D    
C10   S6    S    
O4    Zn1   S    
C4    N11   S    
C3    N12   S    
S1    O9    D    
C39   H20   S    
C16   C18   A    
C21   C24   S    
C37   H11   S    
S3    O17   S    
N13   C43   S    
C44   H43   S    
C22   C23   S    
C40   H22   S    
C19   N9    S    
C1    O1    A    
C20   N4    A    
N14   H41   S    
