data_mof_unit_51458.cif
_audit_creation_date              2012-12-11T15:23:45-0500
_audit_creation_method            fapswitch 2.2
_symmetry_space_group_name_H-M    P1
_symmetry_Int_Tables_number       1
_space_group_crystal_system       triclinic
_cell_length_a                    17.337883
_cell_length_b                    24.40746
_cell_length_c                    14.974715
_cell_angle_alpha                 90.000029
_cell_angle_beta                  125.655146
_cell_angle_gamma                 89.99999
_cell_volume                      5148.98971948

loop_
_atom_site_label
_atom_site_type_symbol
_atom_type_description
_atom_site_fract_x
_atom_site_fract_y
_atom_site_fract_z
_atom_type_partial_charge
C1    C     C_R   0.353173 0.347978 0.908908 -0.138205
C2    C     C_R   0.686893 0.372030 0.093739 -0.131468
C3    C     C_R   0.813107 0.872030 0.906261 -0.131468
C4    C     C_R   0.146826 0.847978 0.091092 -0.138205
C5    C     C_R   0.318386 0.644885 0.000172 -0.011478
C6    C     C_R   0.612763 0.684981 0.001209 -0.012406
C7    C     C_R   0.887237 0.184981 0.998790 -0.012406
C8    C     C_R   0.181614 0.144885 0.999828 -0.011479
C9    C     C_R   0.565098 0.499578 0.366334 0.046074
C10   C     C_R   0.539778 0.500429 0.713387 0.040828
C11   C     C_R   0.960221 0.000429 0.286613 0.040828
C12   C     C_R   0.934901 0.999578 0.633666 0.046074
C13   C     C_R   0.173704 0.497687 0.694330 0.130452
C14   C     C_R   0.796737 0.498301 0.368870 0.130383
C15   C     C_R   0.703263 0.998301 0.631130 0.130383
C16   C     C_R   0.326295 0.997687 0.305670 0.130452
C17   C     C_2   0.918820 0.453440 0.538605 -0.110074
C18   C     C_2   0.020508 0.457046 0.625445 -0.114353
C19   C     C_2   0.479492 0.957046 0.374555 -0.114353
C20   C     C_2   0.581180 0.953440 0.461394 -0.110074
C21   C     C_2   0.869241 0.498777 0.486598 -0.194476
C22   C     C_2   0.071524 0.497961 0.624266 -0.194866
C23   C     C_2   0.428476 0.997961 0.375735 -0.194866
C24   C     C_2   0.630759 0.998777 0.513402 -0.194477
C25   C     C_R   0.159109 0.687495 0.905779 -0.157201
C26   C     C_R   0.701329 0.771641 0.093822 -0.171370
C27   C     C_R   0.798669 0.271640 0.906176 -0.171370
C28   C     C_R   0.340891 0.187495 0.094220 -0.157201
C29   C     C_R   0.746269 0.313600 0.908134 -0.176760
C30   C     C_R   0.392598 0.230766 0.094543 -0.174540
C31   C     C_R   0.107402 0.730766 0.905457 -0.174540
C32   C     C_R   0.753729 0.813600 0.091865 -0.176761
C33   C     C_R   0.758065 0.326105 0.006415 0.149687
C34   C     C_R   0.356898 0.259287 0.996582 0.142264
C35   C     C_R   0.143102 0.759287 0.003417 0.142263
C36   C     C_R   0.741934 0.826104 0.993583 0.149687
C37   C     C_R   0.836550 0.305431 0.105693 -0.174248
C38   C     C_R   0.282109 0.237004 0.896372 -0.173326
C39   C     C_R   0.217890 0.737003 0.103628 -0.173325
C40   C     C_R   0.663451 0.805430 0.894305 -0.174249
C41   C     C_R   0.270457 0.694893 0.103508 -0.163069
C42   C     C_R   0.610151 0.763967 0.896069 -0.158530
C43   C     C_R   0.889850 0.263968 0.103930 -0.158531
C44   C     C_R   0.229543 0.194893 0.896492 -0.163069
C45   C     C_R   0.403915 0.626142 0.091653 -0.143326
C46   C     C_R   0.555184 0.651889 0.910195 -0.165722
C47   C     C_R   0.944815 0.151889 0.089805 -0.165722
C48   C     C_R   0.096085 0.126142 0.908346 -0.143325
C49   C     C_R   0.247158 0.674502 0.003224 0.150149
C50   C     C_R   0.636448 0.742341 0.997154 0.150146
C51   C     C_R   0.863551 0.242341 0.002845 0.150147
C52   C     C_R   0.252842 0.174502 0.996776 0.150150
C53   C     C_R   0.594760 0.550371 0.616695 -0.168511
C54   C     C_R   0.602165 0.550091 0.529807 -0.170785
C55   C     C_R   0.897834 0.050091 0.470193 -0.170784
C56   C     C_R   0.905240 0.050371 0.383305 -0.168511
C57   C     C_R   0.597400 0.500184 0.480471 0.143209
C58   C     C_R   0.582948 0.500746 0.654248 0.145172
C59   C     C_R   0.917052 0.000746 0.345752 0.145172
C60   C     C_R   0.902599 0.000184 0.519529 0.143209
C61   C     C_R   0.606816 0.450854 0.533830 -0.166031
C62   C     C_R   0.600031 0.451172 0.621353 -0.166784
C63   C     C_R   0.899969 0.951172 0.378647 -0.166784
C64   C     C_R   0.893184 0.950854 0.466170 -0.166031
C65   C     C_R   0.547846 0.453804 0.302660 -0.119681
C66   C     C_R   0.507125 0.454543 0.736695 -0.126024
C67   C     C_R   0.992875 0.954543 0.263305 -0.126024
C68   C     C_R   0.952154 0.953804 0.697340 -0.119680
C69   C     C_R   0.229737 0.543929 0.726925 -0.153969
C70   C     C_R   0.752863 0.544161 0.305395 -0.143235
C71   C     C_R   0.747137 0.044161 0.694604 -0.143235
C72   C     C_R   0.270263 0.043929 0.273075 -0.153970
C73   C     C_R   0.548897 0.545049 0.302671 -0.138758
C74   C     C_R   0.516014 0.545981 0.747719 -0.123943
C75   C     C_R   0.983985 0.045981 0.252281 -0.123943
C76   C     C_R   0.951103 0.045049 0.697329 -0.138758
C77   C     C_R   0.231958 0.452294 0.735561 -0.117249
C78   C     C_R   0.751146 0.453220 0.303647 -0.124233
C79   C     C_R   0.748854 0.953220 0.696353 -0.124233
C80   C     C_R   0.268042 0.952294 0.264439 -0.117249
C81   C     C_R   0.317926 0.633737 0.908439 0.068554
C82   C     C_R   0.643753 0.652333 0.092544 0.091350
C83   C     C_R   0.856247 0.152333 0.907455 0.091348
C84   C     C_R   0.182074 0.133736 0.091561 0.068554
C85   C     C_R   0.443382 0.347706 0.091778 -0.120896
C86   C     C_R   0.593284 0.366977 0.910527 -0.126943
C87   C     C_R   0.906716 0.866977 0.089473 -0.126943
C88   C     C_R   0.056618 0.847706 0.908222 -0.120896
C89   C     C_R   0.383055 0.316063 0.999540 0.048281
C90   C     C_R   0.683276 0.354798 0.003653 0.044372
C91   C     C_R   0.816724 0.854798 0.996346 0.044372
C92   C     C_R   0.116945 0.816063 0.000460 0.048281
H1    H     H_    0.316652 0.334719 0.824686 0.085912
H2    H     H_    0.744635 0.368261 0.179548 0.093198
H3    H     H_    0.755365 0.868261 0.820452 0.093198
H4    H     H_    0.183348 0.834719 0.175314 0.085912
H5    H     H_    0.894413 0.538674 0.525415 0.133249
H6    H     H_    0.038619 0.532271 0.567939 0.134914
H7    H     H_    0.461381 0.032271 0.432063 0.134914
H8    H     H_    0.605587 0.038674 0.474585 0.133249
H9    H     H_    0.134175 0.667866 0.828631 0.121068
H10   H     H_    0.719543 0.760250 0.173081 0.133415
H11   H     H_    0.780452 0.260248 0.826916 0.133415
H12   H     H_    0.365825 0.167866 0.171369 0.121069
H13   H     H_    0.691214 0.332517 0.831131 0.107629
H14   H     H_    0.454676 0.244610 0.172397 0.109620
H15   H     H_    0.045324 0.744610 0.827603 0.109620
H16   H     H_    0.808783 0.832519 0.168867 0.107629
H17   H     H_    0.851822 0.316914 0.184181 0.107739
H18   H     H_    0.256130 0.255651 0.818193 0.107199
H19   H     H_    0.243868 0.755651 0.181807 0.107199
H20   H     H_    0.648181 0.816912 0.815818 0.107739
H21   H     H_    0.334067 0.682960 0.181602 0.108370
H22   H     H_    0.556160 0.745402 0.818412 0.107634
H23   H     H_    0.943843 0.245404 0.181587 0.107634
H24   H     H_    0.165932 0.182961 0.818398 0.108370
H25   H     H_    0.588697 0.589536 0.645726 0.108007
H26   H     H_    0.601189 0.589127 0.495203 0.107302
H27   H     H_    0.898810 0.089127 0.504796 0.107302
H28   H     H_    0.911303 0.089536 0.354274 0.108007
H29   H     H_    0.609830 0.411694 0.502316 0.107155
H30   H     H_    0.599218 0.412285 0.655386 0.104442
H31   H     H_    0.900782 0.912285 0.344614 0.104442
H32   H     H_    0.890170 0.911694 0.497684 0.107155
H33   H     H_    0.430745 0.629045 0.176942 0.104769
H34   H     H_    0.507970 0.664861 0.825653 0.102271
H35   H     H_    0.992029 0.164861 0.174347 0.102271
H36   H     H_    0.069255 0.129045 0.823058 0.104769
H37   H     H_    0.564168 0.411655 0.329407 0.083633
H38   H     H_    0.502606 0.413526 0.708093 0.085914
H39   H     H_    0.997394 0.913526 0.291907 0.085915
H40   H     H_    0.935832 0.911655 0.670592 0.083633
H41   H     H_    0.204610 0.584873 0.699176 0.114162
H42   H     H_    0.763137 0.585325 0.336551 0.113152
H43   H     H_    0.736863 0.085325 0.663449 0.113152
H44   H     H_    0.295390 0.084873 0.300825 0.114162
H45   H     H_    0.567820 0.586976 0.329996 0.090488
H46   H     H_    0.527858 0.588592 0.740355 0.093894
H47   H     H_    0.972142 0.088592 0.259645 0.093894
H48   H     H_    0.932180 0.086976 0.670004 0.090489
H49   H     H_    0.211445 0.409644 0.721134 0.091930
H50   H     H_    0.757477 0.411493 0.331313 0.080887
H51   H     H_    0.742523 0.911493 0.668686 0.080887
H52   H     H_    0.288555 0.909644 0.278867 0.091930
H53   H     H_    0.488071 0.334269 0.176337 0.085323
H54   H     H_    0.562837 0.352863 0.828368 0.085757
H55   H     H_    0.937162 0.852863 0.171632 0.085758
H56   H     H_    0.011929 0.834269 0.823663 0.085323
H57   H     H_    0.891791 0.413053 0.504167 0.116003
H58   H     H_    0.055181 0.422201 0.679979 0.124886
H59   H     H_    0.444819 0.922202 0.320020 0.124886
H60   H     H_    0.608209 0.913052 0.495833 0.116003
N1    N     N_R   0.395440 0.396300 0.944370 -0.039557
N2    N     N_R   0.604560 0.396300 0.055630 -0.040010
N3    N     N_R   0.895440 0.896300 0.944370 -0.040010
N4    N     N_R   0.104560 0.896300 0.055630 -0.039557
N5    N     N_R   0.449890 0.602500 0.055780 -0.048467
N6    N     N_R   0.550110 0.602500 0.944220 -0.048837
N7    N     N_R   0.949890 0.102500 0.055780 -0.048837
N8    N     N_R   0.050110 0.102500 0.944220 -0.048467
N9    N     N_R   0.525090 0.470990 0.205640 -0.039012
N10   N     N_R   0.474910 0.470990 0.794360 -0.039790
N11   N     N_R   0.025090 0.970990 0.205640 -0.039790
N12   N     N_R   0.974910 0.970990 0.794360 -0.039012
N13   N     N_R   0.320240 0.527820 0.794510 -0.043891
N14   N     N_R   0.679760 0.527820 0.205490 -0.041678
N15   N     N_R   0.820240 0.027820 0.794510 -0.041678
N16   N     N_R   0.179760 0.027820 0.205490 -0.043892
N17   N     N_R   0.524580 0.527810 0.205160 -0.037588
N18   N     N_R   0.475420 0.527810 0.794840 -0.039829
N19   N     N_R   0.024580 0.027810 0.205160 -0.039829
N20   N     N_R   0.975420 0.027810 0.794840 -0.037588
N21   N     N_R   0.320750 0.470990 0.794990 -0.045914
N22   N     N_R   0.679250 0.470990 0.205010 -0.044405
N23   N     N_R   0.820750 0.970990 0.794990 -0.044405
N24   N     N_R   0.179250 0.970990 0.205010 -0.045914
N25   N     N_R   0.393580 0.602500 0.942610 -0.057532
N26   N     N_R   0.606420 0.602500 0.057390 -0.058942
N27   N     N_R   0.893580 0.102500 0.942610 -0.058941
N28   N     N_R   0.106420 0.102500 0.057390 -0.057532
N29   N     N_R   0.451750 0.396300 0.057540 -0.039955
N30   N     N_R   0.548250 0.396300 0.942460 -0.038069
N31   N     N_R   0.951750 0.896300 0.057540 -0.038069
N32   N     N_R   0.048250 0.896300 0.942460 -0.039955
Ni1   Ni    Ni4+2 0.435420 0.434250 0.870220 0.211678
Ni2   Ni    Ni4+2 0.564580 0.434250 0.129780 0.205584
Ni3   Ni    Ni4+2 0.935420 0.934250 0.870220 0.205584
Ni4   Ni    Ni4+2 0.064580 0.934250 0.129780 0.211678
Ni5   Ni    Ni4+2 0.563400 0.564580 0.128670 0.221787
Ni6   Ni    Ni4+2 0.436600 0.564580 0.871330 0.219246
Ni7   Ni    Ni4+2 0.063400 0.064580 0.128670 0.219246
Ni8   Ni    Ni4+2 0.936600 0.064580 0.871330 0.221788
C93   C     C_1   0.274982 0.668059 0.812326 -0.015118
N33   N     N_1   0.240868 0.695824 0.735488 -0.095154
C94   C     C_1   0.672916 0.671231 0.198977 -0.031605
N34   N     N_1   0.695570 0.686423 0.284337 -0.111326
C95   C     C_1   0.827086 0.171231 0.801024 -0.031604
N35   N     N_1   0.804433 0.186423 0.715665 -0.111326
C96   C     C_1   0.225019 0.168059 0.187674 -0.015118
N36   N     N_1   0.259133 0.195824 0.264512 -0.095154

loop_
_geom_bond_atom_site_label_1
_geom_bond_atom_site_label_2
_ccdc_geom_bond_type
C25   C31   A    
N4    Ni4   S    
C23   H7    S    
C55   C56   A    
C26   C32   A    
C6    C82   A    
C81   N25   A    
C87   C91   A    
C63   H31   S    
C27   C29   A    
C14   C70   A    
C7    C83   A    
C19   C20   S    
C16   C72   A    
N17   Ni5   S    
N12   Ni3   S    
C5    C49   S    
N4    N32   A    
C39   C41   A    
C55   H27   S    
C53   C54   A    
N20   Ni8   S    
N15   Ni8   S    
C74   H46   S    
N21   Ni1   S    
N16   Ni7   S    
N1    Ni1   S    
C75   H47   S    
C22   H6    S    
C32   C36   A    
C14   C21   S    
C3    C91   A    
C10   C58   S    
C85   H53   S    
C53   H25   S    
C17   H57   S    
C26   C50   A    
C71   H43   S    
C70   H42   S    
N3    N31   A    
C72   H44   S    
C24   H8    S    
N13   N21   A    
C46   N6    A    
C29   C33   A    
C21   H5    S    
N2    Ni2   S    
C61   H29   S    
C57   C61   A    
C76   N20   A    
C18   H58   S    
C20   C24   D    
N8    N28   A    
C43   H23   S    
C4    H4    S    
C65   N9    A    
C42   H22   S    
C79   H51   S    
N27   Ni8   S    
C88   C92   A    
C11   C67   A    
C80   H52   S    
C25   C49   A    
C1    C89   A    
C48   N8    A    
C38   H18   S    
N11   N19   A    
C8    C52   S    
C37   H17   S    
C28   C52   A    
N9    N17   A    
C35   C92   S    
C44   C52   A    
C40   C42   A    
C96   N36   T    
C2    N2    A    
C34   C38   A    
C55   C60   A    
C30   H14   S    
C72   N16   A    
C29   H13   S    
C61   C62   A    
C9    C73   A    
C11   C59   S    
C86   H54   S    
C73   H45   S    
C41   C49   A    
C27   C51   A    
N24   Ni4   S    
N5    Ni5   S    
C10   C66   A    
C84   C96   S    
C13   C77   A    
N14   N22   A    
C74   N18   A    
C30   C34   A    
N7    Ni7   S    
C2    H2    S    
C45   N5    A    
C80   N24   A    
C88   N32   A    
C40   H20   S    
C86   C90   A    
C41   H21   S    
N26   Ni5   S    
C85   C89   A    
C19   C23   D    
C47   N7    A    
C8    C84   A    
C64   H32   S    
C5    C45   A    
N28   Ni7   S    
C33   C37   A    
C94   N34   T    
N11   Ni4   S    
C16   C80   A    
N30   Ni1   S    
C68   H40   S    
C37   C43   A    
C35   C39   A    
C8    C48   A    
C38   C44   A    
N9    Ni2   S    
C79   N23   A    
C48   H36   S    
C5    C81   A    
C84   N28   A    
C28   H12   S    
C19   H59   S    
N10   N18   A    
C36   C40   A    
C53   C58   A    
C82   N26   A    
C9    C65   A    
C3    N3    A    
C17   C18   S    
C88   H56   S    
N19   Ni7   S    
N5    N25   A    
C6    C50   S    
C1    N1    A    
N8    Ni8   S    
C82   C94   S    
C87   H55   S    
C58   C62   A    
C42   C50   A    
C36   C91   S    
C77   N21   A    
C15   C24   S    
C4    N4    A    
N1    N29   A    
C16   C23   S    
C54   H26   S    
C12   C76   A    
C75   N19   A    
C31   C35   A    
N12   N20   A    
C66   N10   A    
C83   C95   S    
C76   H48   S    
C73   N17   A    
C62   H30   S    
C78   N22   A    
N16   N24   A    
C69   H41   S    
N25   Ni6   S    
C6    C46   A    
C18   C22   D    
C31   H15   S    
C46   H34   S    
C67   H39   S    
N7    N27   A    
C2    C90   A    
C78   H50   S    
N10   Ni1   S    
C65   H37   S    
N29   Ni2   S    
C56   C59   A    
C47   H35   S    
C56   H28   S    
C85   N29   A    
C15   C79   A    
C15   C71   A    
N18   Ni6   S    
C59   C63   A    
N32   Ni3   S    
C83   N27   A    
C60   C64   A    
N14   Ni5   S    
C12   C68   A    
N23   Ni3   S    
N6    Ni6   S    
N6    N26   A    
C68   N12   A    
C7    C51   S    
C28   C30   A    
C11   C75   A    
N31   Ni4   S    
C26   H10   S    
C87   N31   A    
C39   H19   S    
C10   C74   A    
C25   H9    S    
C13   C69   A    
C43   C51   A    
N2    N30   A    
C71   N15   A    
C27   H11   S    
C3    H3    S    
C13   C22   S    
N15   N23   A    
C9    C57   S    
C14   C78   A    
C95   N35   T    
C69   N13   A    
C34   C89   S    
C70   N14   A    
N13   Ni6   S    
C81   C93   S    
C63   C64   A    
C12   C60   S    
C67   N11   A    
C20   H60   S    
C44   H24   S    
C77   H49   S    
C1    H1    S    
C93   N33   T    
C32   H16   S    
C45   H33   S    
C86   N30   A    
N3    Ni3   S    
C66   H38   S    
C33   C90   S    
N22   Ni2   S    
C7    C47   A    
C4    C92   A    
C54   C57   A    
C17   C21   D    
