data_mof_unit_54670.cif
_audit_creation_date              2013-03-05T16:40:50-0500
_audit_creation_method            fapswitch 2.2
_symmetry_space_group_name_H-M    P1
_symmetry_Int_Tables_number       1
_space_group_crystal_system       triclinic
_cell_length_a                    10.695088
_cell_length_b                    19.302953
_cell_length_c                    18.542804
_cell_angle_alpha                 89.108666
_cell_angle_beta                  89.499253
_cell_angle_gamma                 90.617806
_cell_volume                      3827.26457929

loop_
_atom_site_label
_atom_site_type_symbol
_atom_site_description
_atom_site_fract_x
_atom_site_fract_y
_atom_site_fract_z
_atom_type_partial_charge
O1    O     O_R   0.500010 0.398180 0.560840 -0.586422
O2    O     O_R   0.499990 0.601820 0.439160 -0.642952
O3    O     O_R   0.499950 0.398180 0.439210 -0.571943
O4    O     O_R   0.500050 0.601820 0.560790 -0.593015
C1    C     C_R   0.504001 0.365721 0.500274 0.913743
C2    C     C_R   0.495471 0.634122 0.499623 0.920133
O5    O     O_R   0.316790 0.500010 0.560810 -0.604521
O6    O     O_R   0.683210 0.499990 0.439190 -0.563932
O7    O     O_R   0.316730 0.500000 0.439190 -0.638338
O8    O     O_R   0.683270 0.500000 0.560810 -0.621153
C3    C     C_R   0.260253 0.502771 0.500118 0.879192
C4    C     C_R   0.739830 0.497379 0.499807 0.871489
Zn1   Zn    Zn3+2 0.500040 0.500000 0.581210 1.006906
Zn2   Zn    Zn3+2 0.499960 0.500000 0.418790 1.004951
H1    H     H_    0.281580 0.698163 0.238492 0.147934
H2    H     H_    0.762684 0.260561 0.733876 0.131152
C5    C     C_R   0.252854 0.682936 0.352725 -0.140587
C6    C     C_R   0.767892 0.298787 0.624296 -0.089889
H3    H     H_    0.307644 0.727989 0.366931 0.125238
H4    H     H_    0.717764 0.254560 0.603416 0.144832
C7    C     C_R   0.196533 0.641774 0.406834 -0.101020
C8    C     C_R   0.810155 0.351522 0.577370 -0.133472
H5    H     H_    0.208338 0.655508 0.462699 0.152119
H6    H     H_    0.793597 0.347036 0.520198 0.154589
C9    C     C_R   0.124250 0.583557 0.388664 0.125358
C10   C     C_R   0.878396 0.408134 0.603827 0.120171
C11   C     C_R   0.107878 0.567714 0.315611 -0.193572
C12   C     C_R   0.902295 0.411495 0.678145 -0.138123
H7    H     H_    0.051763 0.523285 0.300484 0.155282
H8    H     H_    0.956170 0.454209 0.699551 0.154422
C13   C     C_R   0.164577 0.608958 0.261688 -0.134365
C14   C     C_R   0.859521 0.358743 0.724916 -0.174385
H9    H     H_    0.152085 0.596344 0.205523 0.149046
H10   H     H_    0.879501 0.361174 0.781942 0.152838
C15   C     C_R   0.237549 0.666330 0.280250 -0.089034
C16   C     C_R   0.793414 0.302125 0.697879 -0.134007
C17   C     C_R   0.934337 0.534943 0.446039 -0.216460
C18   C     C_R   0.065934 0.465632 0.553661 -0.225227
H11   H     H_    0.882739 0.563368 0.405718 0.183700
H12   H     H_    0.118168 0.436681 0.593476 0.129013
C19   C     C_R   0.872388 0.495550 0.499237 -0.063260
C20   C     C_R   0.127801 0.504895 0.500433 -0.048165
C21   C     C_R   0.937720 0.458940 0.552893 0.006761
C22   C     C_R   0.062669 0.540122 0.445674 -0.007373
C23   C     C_R   0.535579 0.746437 0.440389 -0.378562
C24   C     C_R   0.457381 0.254411 0.560410 -0.356611
H13   H     H_    0.584295 0.719750 0.398131 0.152517
H14   H     H_    0.424480 0.281614 0.606954 0.226034
C25   C     C_R   0.529072 0.818514 0.437226 0.521120
C26   C     C_R   0.444966 0.182862 0.560337 0.485516
C27   C     C_R   0.475221 0.852894 0.495629 -0.058379
C28   C     C_R   0.488502 0.146324 0.500612 -0.072406
C29   C     C_R   0.421738 0.816035 0.553710 -0.311976
C30   C     C_R   0.541235 0.181373 0.441088 -0.304093
H15   H     H_    0.376996 0.843674 0.597184 0.199527
H16   H     H_    0.576900 0.152342 0.395896 0.199955
C31   C     C_R   0.422356 0.744016 0.555298 0.314300
C32   C     C_R   0.552821 0.253285 0.440470 0.323082
C33   C     C_R   0.483170 0.709038 0.498687 -0.219040
C34   C     C_R   0.507517 0.290293 0.500498 -0.239489
C35   C     C_R   0.533258 0.961435 0.554780 -0.202378
C36   C     C_R   0.423003 0.037720 0.443095 -0.222743
H17   H     H_    0.577104 0.932046 0.597728 0.156048
H18   H     H_    0.379848 0.067129 0.399931 0.152389
C37   C     C_R   0.536683 0.033107 0.556105 -0.103003
C38   C     C_R   0.419694 0.965964 0.441739 -0.115177
H19   H     H_    0.583674 0.058844 0.599923 0.160764
H20   H     H_    0.373669 0.940098 0.397686 0.137709
C39   C     C_R   0.481715 0.071248 0.500226 0.152308
C40   C     C_R   0.475688 0.927927 0.497329 0.176569
C41   C     C_R   0.517380 0.561620 0.723143 -0.043168
C42   C     C_R   0.391174 0.484368 0.276490 -0.067839
H21   H     H_    0.535071 0.608290 0.691726 0.203668
H22   H     H_    0.308883 0.470412 0.307800 0.180324
C43   C     C_R   0.507335 0.566365 0.798450 -0.309862
C44   C     C_R   0.382471 0.489092 0.201101 -0.343040
H23   H     H_    0.514512 0.616939 0.822537 0.200835
H24   H     H_    0.292054 0.481010 0.176709 0.176121
C45   C     C_R   0.486746 0.506590 0.841527 0.015572
C46   C     C_R   0.488933 0.504981 0.158474 0.026039
C47   C     C_R   0.480195 0.442502 0.806076 0.363947
C48   C     C_R   0.603626 0.513549 0.194759 0.359613
C49   C     C_R   0.475294 0.441346 0.729815 0.489979
C50   C     C_R   0.604097 0.517720 0.270752 0.528137
N1    N     N_R   0.500020 0.499980 0.689440 -0.161493
N2    N     N_R   0.499980 0.500020 0.310560 -0.153443
C51   C     C_R   0.389652 0.469459 0.964004 0.401306
C52   C     C_R   0.549188 0.561543 0.036028 0.393517
C53   C     C_R   0.399532 0.466574 0.039746 -0.354022
C54   C     C_R   0.552783 0.557398 0.960185 -0.344397
H25   H     H_    0.340647 0.430194 0.069686 0.202205
H26   H     H_    0.614223 0.592393 0.930143 0.202437
C55   C     C_R   0.479981 0.511325 0.077216 -0.008224
C56   C     C_R   0.475463 0.510997 0.922746 0.005811
N3    N     N_R   0.358552 0.707853 0.613411 0.209854
O9    O     O_R   0.279919 0.657945 0.599788 -0.406658
O10   O     O_R   0.362598 0.732153 0.678430 -0.390349
N4    N     N_R   0.614035 0.287030 0.379941 0.219625
O11   O     O_R   0.702887 0.332281 0.390262 -0.415215
O12   O     O_R   0.595907 0.264428 0.315071 -0.395531
O13   O     O_3   0.468323 0.381663 0.846021 -0.582738
C57   C     C_3   0.579650 0.343672 0.840264 0.086999
H27   H     H_    0.664163 0.376991 0.848427 0.124209
H28   H     H_    0.584914 0.318851 0.786731 0.189385
C58   C     C_3   0.578884 0.286820 0.897920 -0.758783
H29   H     H_    0.496533 0.252042 0.890943 0.269494
H30   H     H_    0.665502 0.255897 0.893438 0.200683
H31   H     H_    0.574457 0.310086 0.952325 0.261057
O14   O     O_3   0.713959 0.523449 0.156482 -0.587330
C59   C     C_3   0.781547 0.461117 0.157859 0.103770
H32   H     H_    0.728324 0.419330 0.130388 0.144471
H33   H     H_    0.802547 0.444235 0.214173 0.179173
C60   C     C_3   0.905188 0.472564 0.118091 -0.742680
H34   H     H_    0.960882 0.513473 0.144995 0.247899
H35   H     H_    0.959311 0.423791 0.118349 0.211540
H36   H     H_    0.887822 0.488794 0.061352 0.272437
O15   O     O_3   0.439385 0.381119 0.696636 -0.615345
C61   C     C_3   0.307094 0.378659 0.691520 0.136562
H37   H     H_    0.282936 0.369222 0.634457 0.142322
H38   H     H_    0.258285 0.427259 0.707033 0.145857
C62   C     C_3   0.254476 0.318482 0.736888 -0.802218
H39   H     H_    0.263668 0.329531 0.795110 0.319668
H40   H     H_    0.153794 0.310829 0.724771 0.208049
H41   H     H_    0.305163 0.270121 0.724644 0.260372
O16   O     O_3   0.709094 0.543239 0.304147 -0.604429
C63   C     C_3   0.697929 0.616004 0.311184 0.117317
H42   H     H_    0.716603 0.629097 0.368094 0.153557
H43   H     H_    0.603539 0.637157 0.298344 0.126525
C64   C     C_3   0.795216 0.653552 0.264154 -0.774042
H44   H     H_    0.776657 0.644615 0.206303 0.322198
H45   H     H_    0.791571 0.710093 0.274020 0.208791
H46   H     H_    0.889995 0.634870 0.277308 0.252745
N5    N     N_R   0.287492 0.433269 0.930694 0.238428
O17   O     O_R   0.229965 0.461084 0.876065 -0.405103
O18   O     O_R   0.241580 0.376759 0.960121 -0.390817
N6    N     N_R   0.609295 0.619625 0.069528 0.240142
O19   O     O_R   0.555145 0.650365 0.123214 -0.426864
O20   O     O_R   0.709413 0.647675 0.040704 -0.373222
O21   O     O_3   0.587277 0.856546 0.382112 -0.603758
C65   C     C_3   0.538665 0.837428 0.314508 0.065319
H47   H     H_    0.434693 0.832047 0.316122 0.120787
H48   H     H_    0.580389 0.788020 0.296565 0.156616
C66   C     C_3   0.572503 0.893382 0.258889 -0.748606
H49   H     H_    0.675729 0.899345 0.254673 0.262916
H50   H     H_    0.535344 0.878905 0.205391 0.218775
H51   H     H_    0.531448 0.943541 0.274882 0.248446
O22   O     O_3   0.393086 0.148655 0.619611 -0.616301
C67   C     C_3   0.261754 0.148574 0.612679 0.081179
H52   H     H_    0.232770 0.121452 0.562781 0.150346
H53   H     H_    0.225146 0.202420 0.611434 0.137543
C68   C     C_3   0.203264 0.110432 0.677128 -0.778780
H54   H     H_    0.229350 0.136665 0.727806 0.257653
H55   H     H_    0.099836 0.110096 0.672311 0.206778
H56   H     H_    0.236464 0.056116 0.679254 0.263622

loop_
_geom_bond_atom_site_label_1
_geom_bond_atom_site_label_2
_geom_bond_distance
_ccdc_geom_bond_type
C35   C40   1.398797 A    
C26   O22   1.382307 S    
C66   H51   1.110863 S    
C38   H20   1.083184 S    
C63   H42   1.108250 S    
C11   H7    1.083360 S    
C51   N5    1.439472 S    
O22   C67   1.411582 S    
C32   N4    1.438008 S    
C67   C68   1.520253 S    
C42   C44   1.403440 A    
C47   O13   1.382738 S    
O5    C3    1.282856 A    
C58   H30   1.110642 S    
O13   C57   1.409202 S    
C3    C20   1.417581 S    
O1    C1    1.295093 A    
C14   C16   1.397224 A    
C8    H6    1.081003 S    
C18   H12   1.081923 S    
C44   H24   1.081954 S    
C18   C20   1.393154 A    
C31   C33   1.414376 A    
C32   C34   1.416625 A    
C66   H49   1.110706 S    
C51   C56   1.422391 A    
C57   C58   1.520036 S    
C68   H56   1.110808 S    
O4    Zn1   1.995773 S    
C35   H17   1.083590 S    
C61   H37   1.108727 S    
C62   H41   1.110051 S    
C36   H18   1.083446 S    
C28   C39   1.450369 S    
C59   H32   1.114465 S    
N3    O9    1.301149 A    
C25   C27   1.401659 A    
C26   C28   1.401101 A    
C68   H54   1.110705 S    
C65   C66   1.520380 S    
C27   C40   1.449134 S    
C53   H25   1.081744 S    
C60   H36   1.110843 S    
C23   H13   1.077970 S    
C41   N1    1.364241 A    
C53   C55   1.407960 A    
C19   C21   1.406564 A    
O2    C2    1.292112 A    
C20   C22   1.407022 A    
C9    C22   1.484121 S    
H1    C15   1.082348 S    
C47   C49   1.416033 A    
C28   C30   1.397023 A    
C10   C21   1.484462 S    
C54   C56   1.407629 A    
C59   H33   1.114514 S    
C29   H15   1.084252 S    
C58   H31   1.111473 S    
C30   H16   1.084149 S    
C36   C38   1.385804 A    
C11   C13   1.398403 A    
C48   O14   1.381672 S    
C12   C14   1.397787 A    
C67   H52   1.114838 S    
C52   N6    1.438474 S    
C45   C56   1.513596 S    
C46   C48   1.413588 A    
C41   H21   1.079253 S    
C29   C31   1.390123 A    
O6    Zn2   1.999291 S    
C63   C64   1.522059 S    
C37   H19   1.083463 S    
C5    C7    1.398259 A    
C36   C39   1.399862 A    
C27   C29   1.396393 A    
C61   C62   1.523461 S    
C14   H10   1.082257 S    
O7    Zn2   1.992587 S    
C4    C19   1.418491 S    
C43   H23   1.082106 S    
C54   H26   1.082014 S    
C23   C25   1.394145 A    
O6    C4    1.281966 A    
C13   H9    1.082308 S    
C65   H47   1.115805 S    
C57   H28   1.110166 S    
O7    C3    1.278571 A    
C59   C60   1.520795 S    
Zn2   N2    2.006882 S    
C62   H39   1.108708 S    
O3    Zn2   1.995774 S    
O8    C4    1.280033 A    
C42   H22   1.079513 S    
C49   N1    1.369367 A    
C52   C54   1.410067 A    
C48   C50   1.412711 A    
C25   O21   1.388008 S    
C31   N3    1.437910 S    
O16   C63   1.418877 S    
C13   C15   1.397110 A    
O4    C2    1.287340 A    
O1    Zn1   2.007152 S    
N6    O20   1.301473 A    
C45   C47   1.411259 A    
C60   H34   1.111100 S    
C30   C32   1.392159 A    
C50   O16   1.377259 S    
C66   H50   1.110517 S    
C7    C9    1.404128 A    
C52   C55   1.422121 A    
C23   C33   1.400105 A    
C63   H43   1.119188 S    
C1    C34   1.456828 S    
C24   C34   1.399665 A    
C6    C8    1.397581 A    
C2    C33   1.453321 S    
C44   C46   1.408722 A    
C67   H53   1.114595 S    
N6    O19   1.301628 A    
O3    C1    1.286832 A    
O8    Zn1   1.992588 S    
C42   N2    1.362266 A    
O21   C65   1.414064 S    
N3    O10   1.301344 A    
C65   H48   1.111695 S    
C9    C11   1.405356 A    
C58   H29   1.111347 S    
C24   C26   1.386065 A    
C10   C12   1.406126 A    
C64   H46   1.107497 S    
C17   C22   1.375025 A    
C7    H5    1.081399 S    
C64   H44   1.108445 S    
C18   C21   1.376164 A    
C17   H11   1.079613 S    
O15   C61   1.419202 S    
H2    C16   1.082148 S    
C41   C43   1.404081 A    
C49   O15   1.376329 S    
N5    O17   1.301564 A    
C43   C45   1.407348 A    
C37   C39   1.399108 A    
C12   H8    1.083187 S    
C5    H3    1.080694 S    
C6    H4    1.081764 S    
C68   H55   1.110501 S    
C17   C19   1.394498 A    
C57   H27   1.116443 S    
O2    Zn2   2.007150 S    
N4    O12   1.301325 A    
C61   H38   1.118785 S    
C62   H40   1.110695 S    
C24   H14   1.075724 S    
C35   C37   1.384181 A    
O5    Zn1   1.999290 S    
C38   C40   1.398918 A    
N4    O11   1.301188 A    
C8    C10   1.404736 A    
Zn1   N1    2.006880 S    
N5    O18   1.301524 A    
C51   C53   1.409652 A    
C50   N2    1.367902 A    
C5    C15   1.397029 A    
C64   H45   1.110472 S    
C46   C55   1.513771 S    
O14   C59   1.410310 S    
C6    C16   1.396155 A    
C60   H35   1.110459 S    
