data_mof_unit_33963.cif
_audit_creation_date              2012-12-11T14:38:11-0500
_audit_creation_method            fapswitch 2.2
_symmetry_space_group_name_H-M    P1
_symmetry_Int_Tables_number       1
_space_group_crystal_system       triclinic
_cell_length_a                    19.379347
_cell_length_b                    11.210435
_cell_length_c                    19.685876
_cell_angle_alpha                 89.961634
_cell_angle_beta                  96.903679
_cell_angle_gamma                 89.941988
_cell_volume                      4245.76273259

loop_
_atom_site_label
_atom_site_type_symbol
_atom_type_description
_atom_site_fract_x
_atom_site_fract_y
_atom_site_fract_z
_atom_type_partial_charge
C1    C     C_R   0.726691 0.951198 0.358957 0.531026
C2    C     C_R   0.273294 0.950256 0.641132 0.529783
C3    C     C_R   0.226683 0.451221 0.358969 0.531102
C4    C     C_R   0.773288 0.450228 0.641141 0.529764
C5    C     C_3   0.688946 0.459300 0.455699 -0.293819
C6    C     C_3   0.332755 0.414417 0.537215 -0.290230
C7    C     C_3   0.188916 0.959320 0.455698 -0.293839
C8    C     C_3   0.832687 0.914767 0.537283 -0.289845
C9    C     C_3   0.821265 0.425756 0.535124 -0.170703
C10   C     C_3   0.184067 0.455489 0.468260 -0.184264
C11   C     C_3   0.321253 0.925910 0.535103 -0.170703
C12   C     C_3   0.684025 0.955382 0.468213 -0.184242
C13   C     C_3   0.736151 0.272341 0.566427 -0.124772
C14   C     C_3   0.247179 0.274925 0.435440 -0.127013
C15   C     C_3   0.236201 0.772394 0.566419 -0.124811
C16   C     C_3   0.747266 0.774902 0.435440 -0.127017
C17   C     C_3   0.754170 0.406572 0.571251 0.038296
C18   C     C_3   0.245581 0.412143 0.429222 0.018055
C19   C     C_3   0.254172 0.906638 0.571241 0.038368
C20   C     C_3   0.745590 0.912117 0.429208 0.018008
C21   C     C_3   0.733703 0.349304 0.441748 0.051750
C22   C     C_3   0.265574 0.357916 0.559152 0.042830
C23   C     C_3   0.233709 0.849366 0.441742 0.051735
C24   C     C_3   0.765548 0.857973 0.559153 0.042757
C25   C     C_3   0.811798 0.377286 0.463739 0.235489
C26   C     C_3   0.205796 0.450468 0.545026 0.227695
C27   C     C_3   0.311797 0.877412 0.463722 0.235507
C28   C     C_3   0.705673 0.950352 0.544989 0.227581
C29   C     C_3   0.712054 0.247310 0.488575 -0.224960
C30   C     C_3   0.247524 0.248077 0.512907 -0.250839
C31   C     C_3   0.212101 0.747355 0.488571 -0.224973
C32   C     C_3   0.747625 0.748069 0.512906 -0.250733
C33   C     C_3   0.488509 0.306242 0.962343 0.276656
C34   C     C_3   0.511409 0.306287 0.037561 0.276404
C35   C     C_3   0.988508 0.806242 0.962343 0.276656
C36   C     C_3   0.011408 0.806288 0.037562 0.276405
C37   C     C_3   0.428236 0.107185 0.969010 -0.218760
C38   C     C_3   0.571963 0.107282 0.031058 -0.218815
C39   C     C_3   0.928236 0.607185 0.969010 -0.218760
C40   C     C_3   0.071963 0.607282 0.031058 -0.218815
C41   C     C_3   0.555626 0.113858 0.952558 -0.308483
C42   C     C_3   0.444554 0.113888 0.047498 -0.308283
C43   C     C_3   0.055626 0.613858 0.952558 -0.308482
C44   C     C_3   0.944554 0.613888 0.047498 -0.308283
C45   C     C_R   0.536610 0.180461 0.338790 0.512495
C46   C     C_R   0.463443 0.180432 0.661241 0.517054
C47   C     C_R   0.036616 0.680462 0.338794 0.512468
C48   C     C_R   0.963445 0.680432 0.661242 0.517076
C49   C     C_3   0.484660 0.175739 0.934214 0.026137
C50   C     C_3   0.515432 0.175833 0.065785 0.025983
C51   C     C_3   0.984660 0.675739 0.934214 0.026137
C52   C     C_3   0.015431 0.675833 0.065785 0.025985
C53   C     C_1   0.762109 0.427993 0.904604 -0.012060
C54   C     C_1   0.237873 0.428207 0.095361 -0.011507
C55   C     C_1   0.262109 0.927993 0.904604 -0.012056
C56   C     C_1   0.737873 0.928207 0.095361 -0.011506
C57   C     C_1   0.748180 0.406734 0.034646 0.000484
C58   C     C_1   0.251735 0.406795 0.965306 0.000334
C59   C     C_1   0.248180 0.906734 0.034646 0.000486
C60   C     C_1   0.751735 0.906795 0.965307 0.000335
C61   C     C_1   0.754123 0.416634 0.964063 -0.034304
C62   C     C_1   0.245825 0.416817 0.035894 -0.033982
C63   C     C_1   0.254123 0.916634 0.964063 -0.034304
C64   C     C_1   0.745825 0.916816 0.035895 -0.033981
C65   C     C_1   0.743548 0.392164 0.094615 0.042748
C66   C     C_1   0.256373 0.392109 0.905352 0.040948
C67   C     C_1   0.243548 0.892164 0.094615 0.042744
C68   C     C_1   0.756374 0.892109 0.905352 0.040955
C69   C     C_R   0.724879 0.313411 0.368002 0.549232
C70   C     C_R   0.273963 0.318248 0.631836 0.569766
C71   C     C_R   0.224885 0.813437 0.368004 0.549205
C72   C     C_R   0.773942 0.818309 0.631843 0.569710
C73   C     C_R   0.722357 0.954448 0.163186 0.530246
C74   C     C_R   0.277624 0.954323 0.836791 0.530682
C75   C     C_R   0.222357 0.454448 0.163186 0.530262
C76   C     C_R   0.777624 0.454323 0.836791 0.530684
C77   C     C_R   0.535268 0.179965 0.139788 0.546905
C78   C     C_R   0.464801 0.179881 0.860197 0.545554
C79   C     C_R   0.035267 0.679965 0.139788 0.546905
C80   C     C_R   0.964801 0.679881 0.860197 0.545556
C81   C     C_R   0.736134 0.358239 0.163599 0.551499
C82   C     C_R   0.263865 0.358105 0.836409 0.554165
C83   C     C_R   0.236134 0.858239 0.163599 0.551471
C84   C     C_R   0.763865 0.858105 0.836409 0.554148
C85   C     C_1   0.484636 0.172943 0.594040 -0.010963
C86   C     C_1   0.514769 0.172965 0.405735 -0.027214
C87   C     C_1   0.984642 0.672943 0.594044 -0.010936
C88   C     C_1   0.014781 0.672967 0.405741 -0.027251
C89   C     C_1   0.504018 0.169750 0.464771 -0.052105
C90   C     C_1   0.494926 0.169737 0.534871 -0.041369
C91   C     C_1   0.004031 0.669752 0.464777 -0.052148
C92   C     C_1   0.994936 0.669739 0.534875 -0.041351
C93   C     C_3   0.689793 0.472988 0.533237 -0.258500
C94   C     C_3   0.317427 0.461996 0.463373 -0.254499
C95   C     C_3   0.189758 0.972991 0.533239 -0.258459
C96   C     C_3   0.817405 0.962058 0.463363 -0.254362
Cr1   Cr    Cr6+3 0.765780 0.160710 0.267420 1.048631
Cr2   Cr    Cr6+3 0.234220 0.160710 0.732580 1.042314
Cr3   Cr    Cr6+3 0.265780 0.660710 0.267420 1.048667
Cr4   Cr    Cr6+3 0.734220 0.660710 0.732580 1.042387
Cr5   Cr    Cr6+3 0.612200 0.009560 0.248850 1.016242
Cr6   Cr    Cr6+3 0.387800 0.009560 0.751150 1.020779
Cr7   Cr    Cr6+3 0.112200 0.509560 0.248850 1.016215
Cr8   Cr    Cr6+3 0.887800 0.509560 0.751150 1.020775
Cr9   Cr    Cr6+3 0.616030 0.323720 0.248510 1.044866
Cr10  Cr    Cr6+3 0.383970 0.323720 0.751490 1.046126
Cr11  Cr    Cr6+3 0.116030 0.823720 0.248510 1.044835
Cr12  Cr    Cr6+3 0.883970 0.823720 0.751490 1.046127
H1    H     H_    0.685271 0.563486 0.550005 0.143953
H2    H     H_    0.319356 0.559573 0.464164 0.198195
H3    H     H_    0.185153 0.063487 0.550018 0.143903
H4    H     H_    0.819338 0.059659 0.463991 0.198498
H5    H     H_    0.737755 0.167761 0.473992 0.126208
H6    H     H_    0.192799 0.229027 0.519155 0.158234
H7    H     H_    0.237826 0.667840 0.473975 0.126301
H8    H     H_    0.692897 0.728934 0.519115 0.158253
H9    H     H_    0.866855 0.378107 0.562564 0.206547
H10   H     H_    0.138688 0.394816 0.456146 0.182881
H11   H     H_    0.366871 0.878329 0.562539 0.206577
H12   H     H_    0.638675 0.894658 0.456052 0.182992
H13   H     H_    0.526183 0.359605 0.936303 0.186886
H14   H     H_    0.473663 0.359637 0.063555 0.187079
H15   H     H_    0.026182 0.859605 0.936303 0.186888
H16   H     H_    0.973662 0.859637 0.063555 0.187078
H17   H     H_    0.375729 0.145474 0.953120 0.167564
H18   H     H_    0.624412 0.145628 0.046888 0.167560
H19   H     H_    0.875728 0.645474 0.953120 0.167563
H20   H     H_    0.124412 0.645628 0.046888 0.167561
H21   H     H_    0.403067 0.165000 0.069195 0.121588
H22   H     H_    0.597029 0.164960 0.930776 0.120846
H23   H     H_    0.903066 0.664999 0.069195 0.121584
H24   H     H_    0.097029 0.664960 0.930776 0.120850
H25   H     H_    0.554682 0.022303 0.930640 0.141271
H26   H     H_    0.445626 0.022360 0.069536 0.140940
H27   H     H_    0.054682 0.522304 0.930640 0.141270
H28   H     H_    0.945626 0.522359 0.069536 0.140938
H29   H     H_    0.573665 0.012076 0.047273 0.146311
H30   H     H_    0.426690 0.011961 0.952917 0.146171
H31   H     H_    0.073665 0.512076 0.047273 0.146310
H32   H     H_    0.926690 0.511961 0.952917 0.146170
H33   H     H_    0.640332 0.435154 0.546514 0.132234
H34   H     H_    0.360895 0.440545 0.433811 0.139004
H35   H     H_    0.140315 0.935059 0.546507 0.132188
H36   H     H_    0.860904 0.940455 0.433865 0.138908
H37   H     H_    0.634165 0.448224 0.432133 0.158345
H38   H     H_    0.374834 0.346468 0.539919 0.142567
H39   H     H_    0.134139 0.948198 0.432130 0.158322
H40   H     H_    0.874969 0.847086 0.540214 0.142697
H41   H     H_    0.709854 0.539689 0.433470 0.119298
H42   H     H_    0.351405 0.489325 0.571665 0.145389
H43   H     H_    0.209797 0.039735 0.433476 0.119339
H44   H     H_    0.851049 0.989992 0.571682 0.145087
H45   H     H_    0.338253 0.019446 0.535141 0.053801
H46   H     H_    0.660840 0.041534 0.451117 0.089063
H47   H     H_    0.838303 0.519273 0.535171 0.053929
H48   H     H_    0.160894 0.541640 0.451156 0.089005
H49   H     H_    0.331711 0.941894 0.428384 0.138322
H50   H     H_    0.726109 0.036820 0.563254 0.118760
H51   H     H_    0.831732 0.441772 0.428414 0.138336
H52   H     H_    0.226354 0.536872 0.563247 0.118809
H53   H     H_    0.784808 0.220397 0.580896 0.158519
H54   H     H_    0.197171 0.239178 0.409383 0.141948
H55   H     H_    0.284879 0.720512 0.580883 0.158621
H56   H     H_    0.697275 0.739090 0.409378 0.141868
H57   H     H_    0.654805 0.234964 0.479066 0.104703
H58   H     H_    0.281456 0.173675 0.530335 0.094593
H59   H     H_    0.154854 0.734977 0.479072 0.104696
H60   H     H_    0.781601 0.673707 0.530368 0.094570
O1    O     O_R   0.783100 0.287550 0.345460 -0.456892
O2    O     O_R   0.216900 0.287550 0.654540 -0.432619
O3    O     O_R   0.283100 0.787550 0.345460 -0.456848
O4    O     O_R   0.716900 0.787550 0.654540 -0.432625
O5    O     O_R   0.554710 0.081900 0.170950 -0.511306
O6    O     O_R   0.445290 0.081900 0.829050 -0.510816
O7    O     O_R   0.054710 0.581900 0.170950 -0.511306
O8    O     O_R   0.945290 0.581900 0.829050 -0.510823
O9    O     O_R   0.545650 0.284910 0.163740 -0.470046
O10   O     O_R   0.454350 0.284910 0.836260 -0.471033
O11   O     O_R   0.045650 0.784910 0.163740 -0.470042
O12   O     O_R   0.954350 0.784910 0.836260 -0.471028
O13   O     O_R   0.677950 0.374280 0.185410 -0.446873
O14   O     O_R   0.322050 0.374280 0.814590 -0.446956
O15   O     O_R   0.177950 0.874280 0.185410 -0.446875
O16   O     O_R   0.822050 0.874280 0.814590 -0.446966
O17   O     O_3   0.664670 0.164660 0.254930 -0.283887
O18   O     O_3   0.335330 0.164660 0.745070 -0.284462
O19   O     O_3   0.164670 0.664660 0.254930 -0.283877
O20   O     O_3   0.835330 0.664660 0.745070 -0.284429
O21   O     O_R   0.760020 0.037400 0.337700 -0.511119
O22   O     O_R   0.239980 0.037400 0.662300 -0.528275
O23   O     O_R   0.260020 0.537400 0.337700 -0.511057
O24   O     O_R   0.739980 0.537400 0.662300 -0.528227
O25   O     O_R   0.666600 0.921990 0.332020 -0.530044
O26   O     O_R   0.333400 0.921990 0.667980 -0.531855
O27   O     O_R   0.166600 0.421990 0.332020 -0.530070
O28   O     O_R   0.833400 0.421990 0.667980 -0.531858
O29   O     O_R   0.557260 0.082670 0.312540 -0.492567
O30   O     O_R   0.442740 0.082670 0.687460 -0.488050
O31   O     O_R   0.057260 0.582670 0.312540 -0.492574
O32   O     O_R   0.942740 0.582670 0.687460 -0.488044
O33   O     O_R   0.548410 0.285740 0.316480 -0.524065
O34   O     O_R   0.451590 0.285740 0.683520 -0.527215
O35   O     O_R   0.048410 0.785740 0.316480 -0.524065
O36   O     O_R   0.951590 0.785740 0.683520 -0.527220
O37   O     O_R   0.680500 0.375040 0.327000 -0.528679
O38   O     O_R   0.319500 0.375040 0.673000 -0.526320
O39   O     O_R   0.180500 0.875040 0.327000 -0.528729
O40   O     O_R   0.819500 0.875040 0.673000 -0.526397
O41   O     O_R   0.780350 0.286720 0.192720 -0.521677
O42   O     O_R   0.219650 0.286720 0.807280 -0.516868
O43   O     O_R   0.280350 0.786720 0.192720 -0.521679
O44   O     O_R   0.719650 0.786720 0.807280 -0.516867
O45   O     O_R   0.757470 0.036630 0.196110 -0.496224
O46   O     O_R   0.242530 0.036630 0.803890 -0.495925
O47   O     O_R   0.257470 0.536630 0.196110 -0.496212
O48   O     O_R   0.742530 0.536630 0.803890 -0.495929
O49   O     O_R   0.663840 0.921160 0.179280 -0.511452
O50   O     O_R   0.336160 0.921160 0.820720 -0.512333
O51   O     O_R   0.163840 0.421160 0.179280 -0.511469
O52   O     O_R   0.836160 0.421160 0.820720 -0.512333
F1    F     F_    0.852212 0.274942 0.462005 -0.654555
F2    F     F_    0.147469 0.425578 0.577032 -0.634619
F3    F     F_    0.352236 0.775092 0.462002 -0.654418
F4    F     F_    0.647309 0.925226 0.576915 -0.634400
F5    F     F_    0.423994 0.361996 0.950592 -0.653822
F6    F     F_    0.575847 0.362058 0.049263 -0.653889
F7    F     F_    0.923994 0.861996 0.950592 -0.653822
F8    F     F_    0.075846 0.862059 0.049263 -0.653888
C97   C     C_3   0.681519 0.233299 0.614767 -0.293263
C98   C     C_3   0.715662 0.180460 0.682902 -0.293143
C99   C     C_3   0.661053 0.134344 0.726213 -0.409023
H61   H     H_    0.625915 0.207917 0.737972 0.147665
H62   H     H_    0.629836 0.062317 0.698690 0.214720
H63   H     H_    0.687142 0.097701 0.775121 0.140793
H64   H     H_    0.750830 0.105597 0.673513 0.182488
H65   H     H_    0.747164 0.249613 0.712606 0.182708
H66   H     H_    0.648480 0.308764 0.627608 0.152761
H67   H     H_    0.645256 0.166428 0.588903 0.193961
C100  C     C_3   0.306449 0.211360 0.402120 -0.269690
C101  C     C_3   0.284535 0.178369 0.326712 -0.305721
C102  C     C_3   0.343259 0.116675 0.295130 -0.425246
H68   H     H_    0.387914 0.178383 0.294409 0.155079
H69   H     H_    0.360570 0.035225 0.324453 0.173373
H70   H     H_    0.324741 0.090494 0.241644 0.148114
H71   H     H_    0.238992 0.117549 0.322836 0.176528
H72   H     H_    0.269600 0.259626 0.296271 0.182613
H73   H     H_    0.355323 0.262260 0.405905 0.160057
H74   H     H_    0.320687 0.129043 0.430486 0.126294
C103  C     C_3   0.181588 0.733282 0.614763 -0.293278
C104  C     C_3   0.215747 0.680514 0.682907 -0.293062
C105  C     C_3   0.161161 0.634250 0.726200 -0.409003
H75   H     H_    0.125925 0.707705 0.737903 0.147635
H76   H     H_    0.130050 0.562097 0.698694 0.215001
H77   H     H_    0.187258 0.597742 0.775136 0.140736
H78   H     H_    0.250983 0.605748 0.673534 0.182559
H79   H     H_    0.247174 0.749736 0.712618 0.182736
H80   H     H_    0.148500 0.808680 0.627586 0.152699
H81   H     H_    0.145372 0.666354 0.588908 0.194248
C106  C     C_3   0.806552 0.711362 0.402135 -0.269614
C107  C     C_3   0.784705 0.678565 0.326684 -0.305634
C108  C     C_3   0.843423 0.616788 0.295137 -0.425264
H82   H     H_    0.888117 0.678421 0.294470 0.155127
H83   H     H_    0.860660 0.535290 0.324449 0.173360
H84   H     H_    0.824935 0.590675 0.241634 0.148077
H85   H     H_    0.739108 0.617849 0.322712 0.176491
H86   H     H_    0.769878 0.759906 0.296281 0.182543
H87   H     H_    0.855469 0.762163 0.406043 0.160051
H88   H     H_    0.820692 0.628936 0.430435 0.126264

loop_
_geom_bond_atom_site_label_1
_geom_bond_atom_site_label_2
_ccdc_geom_bond_type
C58   C62   S    
C81   O41   A    
C67   C83   S    
C8    C24   S    
C9    H47   S    
Cr4   O4    S    
C9    H9    S    
C14   C18   S    
Cr5   O5    S    
C35   C36   S    
C8    C96   S    
C12   H46   S    
C81   O13   A    
C103  H81   S    
Cr12  O40   S    
C11   H11   S    
Cr4   O24   S    
C41   H25   S    
C82   O14   A    
C9    C25   S    
C105  H75   S    
C72   O40   A    
Cr3   O43   S    
C93   H1    S    
C16   H56   S    
C44   H23   S    
C95   H35   S    
C96   H4    S    
C11   C19   S    
C103  C104  S    
Cr6   O18   S    
C57   C61   S    
Cr1   O41   S    
C12   C20   S    
C48   O32   A    
C35   F7    S    
C80   O12   A    
C13   C29   S    
C43   H24   S    
C8    H44   S    
C10   C18   S    
C75   O51   A    
C33   F5    S    
C44   H28   S    
Cr6   O30   S    
C21   C69   S    
C41   H22   S    
C6    H38   S    
Cr5   O29   S    
C105  H76   S    
C96   H36   S    
Cr1   O17   S    
C45   O29   A    
Cr2   O18   S    
C6    C22   S    
C40   H31   S    
Cr11  O19   S    
Cr4   O48   S    
C5    H41   S    
C49   C78   S    
Cr12  O12   S    
C3    C18   S    
C100  H73   S    
C102  H68   S    
C29   H57   S    
C37   C42   S    
C4    O24   A    
C51   C80   S    
Cr8   O52   S    
C28   H50   S    
C21   C25   S    
C106  H88   S    
C59   C67   T    
C39   C51   S    
C12   H12   S    
C55   C74   S    
C65   C81   S    
C58   C66   T    
C40   C43   S    
Cr10  O14   S    
C100  C101  S    
C6    C94   S    
C55   C63   T    
C26   F2    S    
Cr11  O39   S    
C56   C64   T    
C25   F1    S    
C23   C27   S    
C99   H63   S    
C52   C79   S    
C24   C28   S    
C37   H17   S    
C36   C52   S    
Cr2   O22   S    
C46   C85   S    
C44   C52   S    
Cr12  O20   S    
Cr1   O21   S    
Cr2   O46   S    
C20   C96   S    
C34   H14   S    
C45   O33   A    
Cr1   O45   S    
C87   C92   T    
C74   O46   A    
C33   H13   S    
Cr8   O32   S    
C47   O31   A    
Cr11  O35   S    
C8    H40   S    
Cr7   O27   S    
C14   C30   S    
Cr5   O17   S    
Cr6   O26   S    
Cr3   O19   S    
C22   C70   S    
C38   H18   S    
Cr4   O20   S    
Cr5   O25   S    
C60   C64   S    
C7    H39   S    
C104  H79   S    
C70   O38   A    
Cr8   O20   S    
C34   C50   S    
C5    H37   S    
Cr12  O16   S    
C73   O49   A    
C68   C84   S    
C79   O7    A    
C84   O16   A    
C39   H19   S    
C80   O8    A    
C38   C41   S    
Cr8   O8    S    
C10   H48   S    
C91   C92   S    
C108  H83   S    
C16   C106  S    
Cr6   O50   S    
C27   H49   S    
C105  H77   S    
C69   O1    A    
C54   C62   T    
C104  C105  S    
C40   C52   S    
C21   C29   S    
C15   C31   S    
Cr4   O44   S    
C10   C26   S    
C77   O9    A    
Cr11  O15   S    
C100  H74   S    
C102  H69   S    
C94   H34   S    
C14   H54   S    
C15   C19   S    
C24   C32   S    
C25   H51   S    
C97   C98   S    
C43   H27   S    
C3    O23   A    
C10   H10   S    
C66   C82   S    
C37   C49   S    
C76   O48   A    
Cr9   O33   S    
C16   C20   S    
C97   H67   S    
C88   C91   T    
C11   C27   S    
C28   F4    S    
C74   O50   A    
Cr7   O7    S    
C33   C34   S    
Cr8   O28   S    
C48   C87   S    
C47   O35   A    
C98   H64   S    
C99   H62   S    
Cr7   O31   S    
C32   H8    S    
C6    H42   S    
C13   H53   S    
C36   H16   S    
Cr10  O18   S    
Cr9   O17   S    
C39   C44   S    
C42   C50   S    
C7    H43   S    
C4    C17   S    
Cr9   O9    S    
C15   H55   S    
C31   H59   S    
C37   H30   S    
C32   H60   S    
C35   C51   S    
C101  H71   S    
C18   C94   S    
C19   C95   S    
C79   O11   A    
C59   C63   S    
C53   C76   S    
C17   C93   S    
C101  H72   S    
C107  H86   S    
C106  C107  S    
C50   C77   S    
C72   O4    A    
C93   H33   S    
C24   C72   S    
C30   H6    S    
C30   H58   S    
C9    C17   S    
C104  H78   S    
C4    O28   A    
C29   H5    S    
C39   H32   S    
C83   O15   A    
C1    C20   S    
C77   O5    A    
C56   C73   S    
C22   C30   S    
Cr11  O11   S    
C2    C19   S    
C78   O10   A    
C27   F3    S    
C53   C61   T    
C34   F6    S    
C2    O22   A    
C57   C65   T    
C107  C108  S    
C86   C89   T    
Cr10  O38   S    
C108  H84   S    
C5    C93   S    
C85   C90   T    
C84   O44   A    
Cr9   O37   S    
Cr6   O6    S    
C38   C50   S    
C16   C32   S    
C41   C49   S    
C7    C95   S    
C2    O26   A    
C48   O36   A    
C69   O37   A    
C13   C17   S    
C1    O21   A    
C42   H26   S    
C102  H70   S    
C103  H80   S    
C98   H65   S    
C35   H15   S    
C45   C86   S    
C89   C90   S    
Cr1   O1    S    
Cr12  O36   S    
C95   H3    S    
C47   C88   S    
Cr3   O23   S    
C43   C51   S    
C108  H82   S    
C26   H52   S    
Cr3   O47   S    
C76   O52   A    
C106  H87   S    
C7    C23   S    
C14   C100  S    
C71   O39   A    
C101  C102  S    
C75   O47   A    
C38   H29   S    
C94   H2    S    
C42   H21   S    
C71   O3    A    
C31   H7    S    
C70   O2    A    
C98   C99   S    
C3    O27   A    
Cr2   O42   S    
C46   O30   A    
C60   C68   T    
C11   H45   S    
C13   C97   S    
C54   C75   S    
Cr2   O2    S    
Cr5   O49   S    
C46   O34   A    
C5    C21   S    
Cr10  O34   S    
C12   C28   S    
C23   C71   S    
C36   F8    S    
C22   C26   S    
C33   C49   S    
Cr7   O51   S    
C99   H61   S    
C78   O6    A    
C1    O25   A    
C73   O45   A    
Cr9   O13   S    
C107  H85   S    
C97   H66   S    
C15   C103  S    
Cr10  O10   S    
Cr7   O19   S    
C83   O43   A    
Cr3   O3    S    
C23   C31   S    
C82   O42   A    
C40   H20   S    
