data_mof_unit_65452.cif
_audit_creation_date              2012-12-10T18:46:41-0500
_audit_creation_method            fapswitch 2.2
_symmetry_space_group_name_H-M    P1
_symmetry_Int_Tables_number       1
_space_group_crystal_system       triclinic
_cell_length_a                    18.105264
_cell_length_b                    18.091711
_cell_length_c                    51.322844
_cell_angle_alpha                 90.031845
_cell_angle_beta                  90.094672
_cell_angle_gamma                 89.99929
_cell_volume                      16811.0390828

loop_
_atom_site_label
_atom_site_type_symbol
_atom_type_description
_atom_site_fract_x
_atom_site_fract_y
_atom_site_fract_z
_atom_type_partial_charge
C1    C     C_R   0.999995 0.500018 0.820852 0.516598
C2    C     C_R   0.499329 0.865613 0.013568 -0.103276
C3    C     C_3   0.280551 0.315128 0.756513 -0.123804
C4    C     C_3   0.315024 0.719371 0.243510 -0.123885
C5    C     C_3   0.684974 0.280631 0.756486 -0.123730
C6    C     C_3   0.280538 0.315117 0.243523 -0.123765
C7    C     C_3   0.732010 0.697512 0.732602 -0.104958
C8    C     C_3   0.219959 0.815389 0.743560 -0.123576
C9    C     C_3   0.780039 0.184613 0.256444 -0.123425
C10   C     C_3   0.219153 0.255005 0.726249 -0.119832
C11   C     C_3   0.780848 0.744996 0.273750 -0.119834
C12   C     C_3   0.744882 0.219168 0.726254 -0.119870
C13   C     C_R   0.865688 0.500546 0.986332 -0.103272
C14   C     C_3   0.255126 0.780824 0.273747 -0.119978
C15   C     C_3   0.815312 0.780132 0.743610 -0.123543
C16   C     C_3   0.219333 0.255008 0.273747 -0.119904
C17   C     C_3   0.719961 0.315386 0.243556 -0.123425
C18   C     C_3   0.280041 0.684611 0.756440 -0.123576
C19   C     C_3   0.719152 0.755004 0.226249 -0.119839
C20   C     C_3   0.280847 0.244994 0.773751 -0.119835
C21   C     C_3   0.244874 0.719176 0.226253 -0.119972
C22   C     C_3   0.755118 0.280832 0.773746 -0.119865
C23   C     C_3   0.280667 0.244992 0.226253 -0.119909
C24   C     C_R   0.134293 0.499452 0.013668 -0.103262
C25   C     C_3   0.684688 0.719867 0.756390 -0.123547
C26   C     C_3   0.301277 0.800708 0.750140 0.061119
C27   C     C_3   0.698723 0.199292 0.249859 0.061112
C28   C     C_3   0.198911 0.300895 0.750330 0.061103
C29   C     C_3   0.801089 0.699105 0.249670 0.061103
C30   C     C_3   0.699097 0.198929 0.750324 0.061091
C31   C     C_3   0.300902 0.801071 0.249677 0.061099
C32   C     C_3   0.800745 0.698768 0.750160 0.061122
C33   C     C_3   0.198945 0.300918 0.249683 0.061088
C34   C     C_3   0.801277 0.300708 0.250141 0.061112
C35   C     C_R   0.499485 0.865610 0.986381 -0.103274
C36   C     C_3   0.198723 0.699292 0.749859 0.061119
C37   C     C_3   0.698911 0.800895 0.250330 0.061103
C38   C     C_3   0.301089 0.199105 0.749670 0.061103
C39   C     C_3   0.199098 0.698929 0.250323 0.061098
C40   C     C_3   0.800903 0.301071 0.749676 0.061090
C41   C     C_3   0.301055 0.199081 0.250316 0.061088
C42   C     C_3   0.699255 0.801232 0.749840 0.061121
C43   C     C_3   0.279878 0.754290 0.773936 -0.120447
C44   C     C_3   0.720131 0.245702 0.226063 -0.120346
C45   C     C_3   0.198284 0.231621 0.767583 -0.104964
C46   C     C_R   0.500520 0.134408 0.013619 -0.103282
C47   C     C_3   0.801715 0.768378 0.232417 -0.104968
C48   C     C_3   0.768381 0.198205 0.767599 -0.105189
C49   C     C_3   0.231613 0.801801 0.232404 -0.105171
C50   C     C_3   0.754279 0.720196 0.773931 -0.120559
C51   C     C_3   0.198148 0.231654 0.232398 -0.105183
C52   C     C_3   0.779869 0.254298 0.273937 -0.120351
C53   C     C_3   0.220122 0.745710 0.726064 -0.120451
C54   C     C_3   0.698285 0.731622 0.267583 -0.104965
C55   C     C_3   0.301716 0.268379 0.732417 -0.104962
C56   C     C_3   0.268387 0.698199 0.267596 -0.105176
C57   C     C_R   0.134287 0.499504 0.986482 -0.103268
C58   C     C_3   0.731619 0.301794 0.732401 -0.105193
C59   C     C_3   0.301852 0.268346 0.267602 -0.105180
C60   C     C_3   0.745721 0.779803 0.726069 -0.120554
C61   C     C_R   0.499995 0.933933 0.945196 0.440640
C62   C     C_R   0.500011 0.066084 0.054804 0.440613
C63   C     C_R   0.066000 0.499838 0.945245 0.440685
C64   C     C_R   0.933980 0.500157 0.054755 0.440668
C65   C     C_R   0.500573 0.066073 0.945221 0.440641
C66   C     C_R   0.499427 0.933945 0.054779 0.440657
C67   C     C_R   0.933958 0.500351 0.945172 0.440593
C68   C     C_R   0.865693 0.500493 0.013518 -0.103275
C69   C     C_R   0.066022 0.499650 0.054828 0.440622
C70   C     C_R   0.000350 0.433913 0.445196 0.440609
C71   C     C_R   0.999645 0.566068 0.554804 0.440637
C72   C     C_R   0.566016 0.999755 0.445245 0.440666
C73   C     C_R   0.433996 0.000244 0.554755 0.440684
C74   C     C_R   0.000212 0.566059 0.445220 0.440654
C75   C     C_R   0.999787 0.433922 0.554779 0.440636
C76   C     C_R   0.433972 0.000439 0.445172 0.440621
C77   C     C_R   0.566039 0.999567 0.554828 0.440593
C78   C     C_R   0.500455 0.067469 0.972547 0.037525
C79   C     C_R   0.999925 0.634395 0.486432 -0.103271
C80   C     C_R   0.499547 0.932548 0.027453 0.037516
C81   C     C_R   0.932570 0.500313 0.972497 0.037559
C82   C     C_R   0.067410 0.499686 0.027503 0.037542
C83   C     C_R   0.499860 0.932542 0.972522 0.037527
C84   C     C_R   0.500145 0.067475 0.027478 0.037543
C85   C     C_R   0.067399 0.499790 0.972572 0.037503
C86   C     C_R   0.932581 0.500207 0.027428 0.037512
C87   C     C_R   0.000080 0.567455 0.472547 0.037522
C88   C     C_R   0.999918 0.432526 0.527453 0.037530
C89   C     C_R   0.432585 0.000404 0.472497 0.037544
C90   C     C_R   0.000073 0.365586 0.513568 -0.103278
C91   C     C_R   0.567426 0.999601 0.527502 0.037561
C92   C     C_R   0.000228 0.432521 0.472522 0.037549
C93   C     C_R   0.999768 0.567460 0.527478 0.037531
C94   C     C_R   0.567414 0.999704 0.472572 0.037513
C95   C     C_R   0.432597 0.000297 0.527428 0.037505
C96   C     C_R   0.500081 0.000007 0.986250 -0.021655
C97   C     C_R   0.499922 0.000010 0.013749 -0.021655
C98   C     C_R   0.999987 0.500026 0.986251 -0.021656
C99   C     C_R   0.999993 0.499972 0.013749 -0.021656
C100  C     C_R   0.000078 0.499989 0.486251 -0.021660
C101  C     C_R   0.365702 0.000725 0.486332 -0.103262
C102  C     C_R   0.999919 0.499992 0.513749 -0.021661
C103  C     C_R   0.500003 0.000028 0.486251 -0.021657
C104  C     C_R   0.500009 0.999975 0.513749 -0.021657
C105  C     C_R   0.000004 0.499982 0.179148 0.517100
C106  C     C_R   0.634309 0.999279 0.513668 -0.103270
C107  C     C_R   0.000227 0.365584 0.486382 -0.103277
C108  C     C_R   0.999770 0.634397 0.513618 -0.103270
C109  C     C_R   0.634303 0.999330 0.486481 -0.103274
C110  C     C_R   0.365708 0.000672 0.513519 -0.103267
C111  C     C_R   0.932583 0.500026 0.609405 0.119415
C112  C     C_R   0.933084 0.500011 0.390556 0.119082
C113  C     C_R   0.500301 0.067132 0.609429 0.119241
C114  C     C_R   0.500301 0.067302 0.390584 0.119377
C115  C     C_R   0.066915 0.499975 0.609444 0.119097
C116  C     C_R   0.500053 0.999999 0.820847 0.516372
C117  C     C_R   0.067416 0.499956 0.390595 0.119352
C118  C     C_R   0.499750 0.932700 0.609415 0.119312
C119  C     C_R   0.499669 0.932870 0.390571 0.119256
C120  C     C_R   0.432586 0.000285 0.109405 0.119354
C121  C     C_R   0.433087 0.000247 0.890556 0.119099
C122  C     C_R   0.000237 0.567130 0.109429 0.119256
C123  C     C_R   0.000231 0.567299 0.890585 0.119312
C124  C     C_R   0.566915 0.999747 0.109444 0.119085
C125  C     C_R   0.567416 0.999751 0.890595 0.119416
C126  C     C_R   0.999783 0.432699 0.109416 0.119377
C127  C     C_R   0.499947 0.000003 0.179153 0.515843
C128  C     C_R   0.999715 0.432869 0.890571 0.119241
C129  C     C_R   0.932867 0.500032 0.636592 -0.123427
C130  C     C_R   0.933242 0.500020 0.363372 -0.123924
C131  C     C_R   0.500294 0.066931 0.636614 -0.123685
C132  C     C_R   0.500300 0.067058 0.363399 -0.123404
C133  C     C_R   0.066758 0.499971 0.636628 -0.123918
C134  C     C_R   0.067131 0.499954 0.363408 -0.123732
C135  C     C_R   0.499747 0.932942 0.636601 -0.123701
C136  C     C_R   0.499674 0.933070 0.363387 -0.123676
C137  C     C_R   0.432870 0.000279 0.136592 -0.123735
C138  C     C_R   0.499996 0.000018 0.320852 0.517102
C139  C     C_R   0.433244 0.000245 0.863372 -0.123920
C140  C     C_R   0.000236 0.566931 0.136613 -0.123676
C141  C     C_R   0.000235 0.567057 0.863399 -0.123702
C142  C     C_R   0.566757 0.999745 0.136628 -0.123925
C143  C     C_R   0.567131 0.999752 0.863408 -0.123428
C144  C     C_R   0.999784 0.432942 0.136601 -0.123406
C145  C     C_R   0.999722 0.433069 0.863386 -0.123685
C146  C     C_R   0.999847 0.500002 0.650434 -0.017366
C147  C     C_R   0.000152 0.499991 0.349566 -0.017549
C148  C     C_R   0.500015 0.999948 0.650430 -0.017412
C149  C     C_R   0.500005 0.999982 0.679148 0.516597
C150  C     C_R   0.499990 0.000052 0.349570 -0.017230
C151  C     C_R   0.499848 0.000009 0.150433 -0.017549
C152  C     C_R   0.500153 0.999998 0.849566 -0.017368
C153  C     C_R   0.000008 0.499948 0.150430 -0.017231
C154  C     C_R   0.999984 0.500052 0.849570 -0.017413
C155  C     C_R   0.999718 0.499999 0.595718 0.245299
C156  C     C_R   0.000280 0.499982 0.404283 0.245299
C157  C     C_R   0.500026 0.999906 0.595716 0.245299
C158  C     C_R   0.499985 0.000096 0.404284 0.245303
C159  C     C_R   0.499720 0.000017 0.095718 0.245302
C160  C     C_R   0.000053 0.499997 0.320847 0.515842
C161  C     C_R   0.500282 1.000000 0.904282 0.245303
C162  C     C_R   0.000009 0.499904 0.095716 0.245303
C163  C     C_R   0.999972 0.500094 0.904284 0.245301
C164  C     C_R   0.141849 0.358375 0.750412 0.508210
C165  C     C_R   0.858151 0.641625 0.249588 0.508211
C166  C     C_R   0.641634 0.141871 0.750408 0.509162
C167  C     C_R   0.358366 0.858129 0.249592 0.508842
C168  C     C_R   0.858051 0.641562 0.750372 0.509329
C169  C     C_R   0.141885 0.358372 0.249594 0.509286
C170  C     C_R   0.358472 0.858045 0.750361 0.508363
C171  C     C_R   0.999947 0.500001 0.679153 0.516374
C172  C     C_R   0.641528 0.141955 0.249639 0.508686
C173  C     C_R   0.641849 0.858375 0.250412 0.508210
C174  C     C_R   0.358151 0.141625 0.749588 0.508208
C175  C     C_R   0.141634 0.641871 0.250408 0.508840
C176  C     C_R   0.858366 0.358129 0.749591 0.509159
C177  C     C_R   0.358115 0.141627 0.250406 0.509284
C178  C     C_R   0.641949 0.858437 0.749628 0.509326
C179  C     C_R   0.858472 0.358045 0.250361 0.508684
C180  C     C_R   0.141528 0.641955 0.749639 0.508361
C181  C     C_3   0.197635 0.768113 0.767373 -0.104811
C182  C     C_R   0.500674 0.134405 0.986432 -0.103282
C183  C     C_3   0.802371 0.231881 0.232630 -0.104808
C184  C     C_3   0.219449 0.184872 0.743487 -0.123804
C185  C     C_3   0.780552 0.815128 0.256513 -0.123808
C186  C     C_3   0.815026 0.219368 0.743514 -0.123733
C187  C     C_3   0.184976 0.780629 0.256490 -0.123888
C188  C     C_3   0.767989 0.802488 0.767398 -0.104962
C189  C     C_3   0.219462 0.184883 0.256477 -0.123765
C190  C     C_3   0.697629 0.268119 0.267369 -0.104812
C191  C     C_3   0.302365 0.731887 0.732627 -0.104813
C192  C     C_3   0.719448 0.684872 0.243487 -0.123808
H1    H     H_    0.196447 0.870062 0.738298 0.119554
H2    H     H_    0.303553 0.629938 0.761702 0.119555
H3    H     H_    0.692769 0.760202 0.206795 0.128808
H4    H     H_    0.307229 0.239796 0.793205 0.128806
H5    H     H_    0.239570 0.692813 0.206802 0.128728
H6    H     H_    0.760415 0.307201 0.793196 0.128762
H7    H     H_    0.306898 0.239779 0.206803 0.128752
H8    H     H_    0.630076 0.696283 0.761605 0.120429
H9    H     H_    0.153747 0.782126 0.781625 0.140643
H10   H     H_    0.846264 0.217863 0.218380 0.140248
H11   H     H_    0.195525 0.130434 0.738134 0.119504
H12   H     H_    0.803548 0.129941 0.261709 0.119719
H13   H     H_    0.804476 0.869567 0.261865 0.119514
H14   H     H_    0.869383 0.195383 0.738185 0.120398
H15   H     H_    0.130621 0.804613 0.261822 0.120229
H16   H     H_    0.781899 0.846483 0.781673 0.140167
H17   H     H_    0.195554 0.130450 0.261797 0.120402
H18   H     H_    0.653736 0.282137 0.281620 0.140246
H19   H     H_    0.346253 0.717874 0.718375 0.140641
H20   H     H_    0.695524 0.630433 0.238135 0.119514
H21   H     H_    0.304475 0.369566 0.761866 0.119504
H22   H     H_    0.369379 0.695386 0.238178 0.120230
H23   H     H_    0.192771 0.260204 0.706795 0.128817
H24   H     H_    0.630617 0.304617 0.761815 0.120399
H25   H     H_    0.304445 0.369549 0.238203 0.120402
H26   H     H_    0.718101 0.653516 0.718327 0.140172
H27   H     H_    0.305444 0.758895 0.793545 0.128956
H28   H     H_    0.694572 0.241089 0.206453 0.128990
H29   H     H_    0.154972 0.217435 0.782026 0.140601
H30   H     H_    0.845027 0.782563 0.217973 0.140605
H31   H     H_    0.782563 0.154824 0.782056 0.140031
H32   H     H_    0.217425 0.845187 0.217949 0.140452
H33   H     H_    0.758889 0.694697 0.793535 0.128878
H34   H     H_    0.807231 0.739798 0.293204 0.128819
H35   H     H_    0.154717 0.217501 0.217939 0.140061
H36   H     H_    0.805428 0.258911 0.293547 0.128979
H37   H     H_    0.194556 0.741105 0.706455 0.128945
H38   H     H_    0.654973 0.717437 0.282027 0.140608
H39   H     H_    0.345029 0.282565 0.717974 0.140603
H40   H     H_    0.282575 0.654812 0.282050 0.140447
H41   H     H_    0.717437 0.345176 0.717944 0.140026
H42   H     H_    0.345283 0.282499 0.282061 0.140063
H43   H     H_    0.741111 0.805303 0.706465 0.128883
H44   H     H_    0.500961 0.186978 0.976350 0.177742
H45   H     H_    0.739585 0.192798 0.706804 0.128757
H46   H     H_    0.499041 0.813039 0.023650 0.177748
H47   H     H_    0.813150 0.500769 0.976210 0.177738
H48   H     H_    0.186831 0.499231 0.023789 0.177750
H49   H     H_    0.499305 0.813034 0.976279 0.177746
H50   H     H_    0.500700 0.186983 0.023721 0.177734
H51   H     H_    0.186821 0.499317 0.976418 0.177759
H52   H     H_    0.813159 0.500678 0.023581 0.177753
H53   H     H_    0.999919 0.686972 0.476349 0.177742
H54   H     H_    0.000080 0.313009 0.523651 0.177736
H55   H     H_    0.313164 0.001018 0.476211 0.177749
H56   H     H_    0.260430 0.807186 0.293198 0.128722
H57   H     H_    0.686848 0.998988 0.523789 0.177736
H58   H     H_    0.000341 0.313005 0.476281 0.177729
H59   H     H_    0.999656 0.686976 0.523719 0.177741
H60   H     H_    0.686837 0.999075 0.476418 0.177751
H61   H     H_    0.313174 0.000927 0.523582 0.177757
H62   H     H_    0.880622 0.500049 0.646830 0.164468
H63   H     H_    0.880942 0.500040 0.353108 0.165260
H64   H     H_    0.500507 0.119250 0.646870 0.164833
H65   H     H_    0.500545 0.119358 0.353151 0.164464
H66   H     H_    0.119058 0.499955 0.646891 0.165254
H67   H     H_    0.869924 0.803717 0.738395 0.120430
H68   H     H_    0.119376 0.499936 0.353170 0.164798
H69   H     H_    0.499532 0.880642 0.646848 0.164802
H70   H     H_    0.499429 0.880751 0.353130 0.164827
H71   H     H_    0.380625 0.000488 0.146830 0.164797
H72   H     H_    0.380945 0.000437 0.853109 0.165254
H73   H     H_    0.000412 0.619250 0.146869 0.164828
H74   H     H_    0.000437 0.619357 0.853151 0.164803
H75   H     H_    0.619056 0.999534 0.146892 0.165260
H76   H     H_    0.619375 0.999559 0.853170 0.164469
H77   H     H_    0.999609 0.380641 0.146849 0.164464
H78   H     H_    0.193102 0.260221 0.293197 0.128762
H79   H     H_    0.999523 0.380751 0.853130 0.164833
H80   H     H_    0.696452 0.370059 0.238291 0.119720
I1    I     I_    0.829646 0.500044 0.589718 -0.239074
I2    I     I_    0.330233 0.000634 0.910178 -0.238841
I3    I     I_    0.000590 0.670089 0.089785 -0.238913
I4    I     I_    0.000623 0.670284 0.910251 -0.238846
I5    I     I_    0.669770 0.999333 0.089822 -0.238971
I6    I     I_    0.670350 0.999366 0.910282 -0.239074
I7    I     I_    0.999433 0.329713 0.089750 -0.239106
I8    I     I_    0.999313 0.329911 0.910214 -0.239042
I9    I     I_    0.830227 0.500029 0.410178 -0.238971
I10   I     I_    0.500737 0.170091 0.589786 -0.239043
I11   I     I_    0.500788 0.170287 0.410250 -0.239105
I12   I     I_    0.169771 0.499954 0.589822 -0.238840
I13   I     I_    0.170352 0.499931 0.410282 -0.238820
I14   I     I_    0.499321 0.829715 0.589749 -0.238844
I15   I     I_    0.499176 0.829912 0.410215 -0.238914
I16   I     I_    0.329652 0.000705 0.089718 -0.238823
N1    N     N_R   0.500327 0.000002 0.932207 -0.379762
N2    N     N_R   0.499676 0.000015 0.067793 -0.379755
N3    N     N_R   0.999977 0.500109 0.932208 -0.379774
N4    N     N_R   0.000004 0.499889 0.067792 -0.379782
N5    N     N_R   0.000325 0.499984 0.432207 -0.379763
N6    N     N_R   0.999673 0.499996 0.567793 -0.379767
N7    N     N_R   0.499991 0.000112 0.432208 -0.379783
N8    N     N_R   0.500020 0.999891 0.567792 -0.379776
O1    O     O_3   0.000000 0.500000 0.750000 -0.445356
O2    O     O_R   0.000220 0.561630 0.191620 -0.541020
O3    O     O_R   0.561630 0.999780 0.808380 -0.541354
O4    O     O_R   0.438370 0.000220 0.191620 -0.541400
O5    O     O_R   0.500220 0.061630 0.308380 -0.541139
O6    O     O_R   0.499780 0.938370 0.691620 -0.541152
O7    O     O_R   0.938370 0.500220 0.308380 -0.541014
O8    O     O_R   0.061630 0.499780 0.691620 -0.540964
O9    O     O_R   0.499780 0.938370 0.308380 -0.541020
O10   O     O_R   0.500220 0.061630 0.691620 -0.541071
O11   O     O_R   0.061630 0.499780 0.308380 -0.541400
O12   O     O_3   0.000000 0.500000 0.250000 -0.445371
O13   O     O_R   0.938370 0.500220 0.691620 -0.541354
O14   O     O_R   0.086770 0.352080 0.765560 -0.544995
O15   O     O_R   0.913230 0.647920 0.234440 -0.545005
O16   O     O_R   0.647920 0.086770 0.765560 -0.545114
O17   O     O_R   0.352080 0.913230 0.234440 -0.544874
O18   O     O_R   0.913230 0.647920 0.765560 -0.540546
O19   O     O_R   0.086770 0.352080 0.234440 -0.545071
O20   O     O_R   0.352080 0.913230 0.765560 -0.540040
O21   O     O_R   0.647920 0.086770 0.234440 -0.540051
O22   O     O_R   0.586770 0.852080 0.265560 -0.544999
O23   O     O_3   0.500000 0.000000 0.750000 -0.445356
O24   O     O_R   0.413230 0.147920 0.734440 -0.544992
O25   O     O_R   0.147920 0.586770 0.265560 -0.544885
O26   O     O_R   0.852080 0.413230 0.734440 -0.545125
O27   O     O_R   0.413230 0.147920 0.265560 -0.545066
O28   O     O_R   0.586770 0.852080 0.734440 -0.540544
O29   O     O_R   0.852080 0.413230 0.265560 -0.540062
O30   O     O_R   0.147920 0.586770 0.734440 -0.540050
O31   O     O_R   0.852120 0.586630 0.735130 -0.546495
O32   O     O_R   0.147880 0.413370 0.264870 -0.541888
O33   O     O_R   0.413370 0.852120 0.735130 -0.546582
O34   O     O_3   0.500000 0.000000 0.250000 -0.445372
O35   O     O_R   0.586630 0.147880 0.264870 -0.546737
O36   O     O_R   0.147880 0.413370 0.735130 -0.541568
O37   O     O_R   0.852120 0.586630 0.264870 -0.541555
O38   O     O_R   0.586630 0.147880 0.735130 -0.541855
O39   O     O_R   0.413370 0.852120 0.264870 -0.541863
O40   O     O_R   0.352120 0.086630 0.235130 -0.541899
O41   O     O_R   0.647880 0.913370 0.764870 -0.546505
O42   O     O_R   0.913370 0.352120 0.235130 -0.546732
O43   O     O_R   0.086630 0.647880 0.764870 -0.546580
O44   O     O_R   0.647880 0.913370 0.235130 -0.541566
O45   O     O_R   0.000220 0.561630 0.808380 -0.541153
O46   O     O_R   0.352120 0.086630 0.764870 -0.541578
O47   O     O_R   0.086630 0.647880 0.235130 -0.541857
O48   O     O_R   0.913370 0.352120 0.764870 -0.541853
O49   O     O_2   0.499773 0.869954 0.931670 -0.460511
O50   O     O_2   0.500238 0.130063 0.068330 -0.460678
O51   O     O_2   0.129929 0.499608 0.931767 -0.460281
O52   O     O_2   0.870052 0.500382 0.068233 -0.460323
O53   O     O_2   0.500908 0.130050 0.931719 -0.460503
O54   O     O_2   0.499088 0.869968 0.068281 -0.460461
O55   O     O_2   0.870024 0.500618 0.931622 -0.460722
O56   O     O_R   0.999780 0.438370 0.191620 -0.541138
O57   O     O_2   0.129956 0.499386 0.068377 -0.460552
O58   O     O_2   0.000471 0.369931 0.431670 -0.460672
O59   O     O_2   0.999522 0.630050 0.568329 -0.460506
O60   O     O_2   0.629943 0.999444 0.431767 -0.460321
O61   O     O_2   0.370068 0.000551 0.568233 -0.460280
O62   O     O_2   0.000205 0.630038 0.431718 -0.460456
O63   O     O_2   0.999798 0.369943 0.568282 -0.460497
O64   O     O_2   0.370039 0.000789 0.431623 -0.460550
O65   O     O_2   0.629973 0.999222 0.568377 -0.460721
O66   O     O_R   0.438370 0.000220 0.808380 -0.540964
O67   O     O_R   0.561630 0.999780 0.191620 -0.541015
O68   O     O_R   0.999780 0.438370 0.808380 -0.541072
Zn1   Zn    Zn3+2 0.088070 0.500110 0.728590 0.945569
Zn2   Zn    Zn3+2 0.411930 0.999890 0.771410 0.945569
Zn3   Zn    Zn3+2 0.999890 0.588070 0.228590 0.944085
Zn4   Zn    Zn3+2 0.000110 0.411930 0.771410 0.943960
Zn5   Zn    Zn3+2 0.411930 0.999890 0.228590 0.943835
Zn6   Zn    Zn3+2 0.588070 0.000110 0.771410 0.942324
Zn7   Zn    Zn3+2 0.000110 0.411930 0.228590 0.942469
Zn8   Zn    Zn3+2 0.999890 0.588070 0.771410 0.943947
Zn9   Zn    Zn3+2 0.911930 0.499890 0.271410 0.945421
Zn10  Zn    Zn3+2 0.499890 0.088070 0.728590 0.943960
Zn11  Zn    Zn3+2 0.500110 0.911930 0.271410 0.944085
Zn12  Zn    Zn3+2 0.911930 0.499890 0.728590 0.942324
Zn13  Zn    Zn3+2 0.088070 0.500110 0.271410 0.943835
Zn14  Zn    Zn3+2 0.500110 0.911930 0.728590 0.943947
Zn15  Zn    Zn3+2 0.499890 0.088070 0.271410 0.942469
Zn16  Zn    Zn3+2 0.588070 0.000110 0.228590 0.945421

loop_
_geom_bond_atom_site_label_1
_geom_bond_atom_site_label_2
_ccdc_geom_bond_type
C63   N3    A    
C105  O56   A    
C10   C184  S    
C79   C87   A    
O13   Zn12  S    
C15   C32   S    
O34   Zn11  S    
O31   Zn12  S    
C3    C28   S    
C90   C107  A    
O3    Zn6   S    
C10   H23   S    
C42   C188  S    
C67   N3    A    
C139  C152  A    
C8    C26   S    
C36   C53   S    
C19   C37   S    
C127  O4    A    
C138  O9    A    
C175  O25   A    
C37   C185  S    
C38   C55   S    
C78   C96   A    
O56   Zn7   S    
C168  O31   A    
C20   C45   S    
C24   H48   S    
C182  H44   S    
C72   C94   A    
C77   O65   S    
O8    Zn1   S    
O26   Zn12  S    
C4    C56   S    
C92   C100  A    
C34   C179  S    
C9    C52   S    
O45   Zn8   S    
C125  C161  A    
C40   C58   S    
C173  O22   A    
O28   Zn14  S    
C155  N6    S    
C101  C110  A    
O27   Zn15  S    
C142  C151  A    
C93   C102  A    
C38   C184  S    
C6    H25   S    
C123  C163  A    
O12   Zn13  S    
C39   C56   S    
C121  C161  A    
C123  C141  A    
C8    H1    S    
C148  C149  S    
C86   C99   A    
C41   C59   S    
C46   C84   A    
C133  H66   S    
C31   C167  S    
O4    Zn5   S    
C73   N8    A    
C49   H32   S    
C168  O18   A    
C17   C34   S    
C73   C95   A    
O1    Zn8   S    
C63   O51   S    
O66   Zn2   S    
C77   C91   A    
C89   C101  A    
O43   Zn8   S    
C181  H9    S    
C21   H5    S    
C88   C102  A    
C26   C191  S    
C71   C93   A    
C3    H21   S    
C94   C109  A    
C119  C136  A    
C23   C41   S    
C6    C33   S    
C41   C189  S    
C74   O62   S    
O23   Zn2   S    
C190  H18   S    
C77   N8    A    
C14   C187  S    
C5    H24   S    
C42   C178  S    
C41   C177  S    
C61   O49   S    
C79   C108  A    
C1    O45   A    
C1    C154  S    
C128  C145  A    
C160  O7    A    
O20   Zn2   S    
C16   C189  S    
O7    Zn9   S    
C26   C170  S    
C98   C99   A    
C187  H15   S    
O16   Zn6   S    
C170  O33   A    
C36   C181  S    
C113  C157  A    
C111  C155  A    
C16   C59   S    
C143  C152  A    
C45   C184  S    
C191  H19   S    
O10   Zn10  S    
C8    C181  S    
C105  C153  S    
C172  O21   A    
C18   H2    S    
C15   C60   S    
C44   H28   S    
C177  O40   A    
C14   C31   S    
C58   H41   S    
C50   C188  S    
C21   C49   S    
C13   H47   S    
C54   C192  S    
C156  N5    S    
C29   C47   S    
O35   Zn15  S    
C157  N8    S    
C30   C48   S    
C9    H12   S    
C158  N7    S    
C75   N6    A    
O37   Zn9   S    
C11   H34   S    
C19   C47   S    
C38   C174  S    
C164  O14   A    
C125  I6    S    
C64   O52   S    
C165  O15   A    
C166  O16   A    
C121  I2    S    
C192  H20   S    
C69   C82   A    
C179  O29   A    
C127  C151  S    
C3    C55   S    
C27   C44   S    
C178  O41   A    
C57   C85   A    
C24   C57   A    
O1    Zn4   S    
C74   C87   A    
C20   H4    S    
C76   C89   A    
O34   Zn15  S    
C146  C171  S    
C89   C103  A    
O23   Zn6   S    
C60   H43   S    
O67   Zn16  S    
C147  C160  S    
C52   H36   S    
C186  H14   S    
C1    O68   A    
C173  O44   A    
C76   N7    A    
C39   C175  S    
C40   C176  S    
O23   Zn10  S    
O12   Zn3   S    
C43   C181  S    
C70   O58   S    
C78   C182  A    
C161  N1    S    
O2    Zn3   S    
O30   Zn1   S    
C127  O67   A    
O14   Zn4   S    
C34   C183  S    
C10   C55   S    
C44   C183  S    
O22   Zn11  S    
C11   C54   S    
C145  C154  A    
C35   H49   S    
C105  O2    A    
C117  I13   S    
C119  I15   S    
C5    C30   S    
C120  I16   S    
C62   C84   A    
C7    C32   S    
C107  H58   S    
O15   Zn3   S    
C130  C147  A    
C165  O37   A    
C6    C59   S    
O47   Zn3   S    
C50   H33   S    
C175  O47   A    
C8    C53   S    
C180  O43   A    
C16   H78   S    
C67   C81   A    
C133  C146  A    
C17   C190  S    
O44   Zn16  S    
C66   C80   A    
C15   C188  S    
C122  C162  A    
C66   O54   S    
C45   H29   S    
C141  H74   S    
C46   C182  A    
C159  N2    S    
C122  C140  A    
C122  I3    S    
C75   O63   S    
C18   C36   S    
C125  C143  A    
C83   C96   A    
O29   Zn9   S    
O1    Zn12  S    
C114  I11   S    
O19   Zn7   S    
C112  C156  A    
O6    Zn14  S    
C112  C130  A    
C27   C172  S    
C128  I8    S    
C63   C85   A    
C13   C68   A    
C2    C35   A    
C22   C48   S    
C82   C99   A    
C14   C56   S    
C36   C180  S    
C33   C169  S    
C95   C104  A    
C134  C147  A    
C28   C164  S    
C62   N2    A    
O21   Zn16  S    
C84   C97   A    
C79   H53   S    
O46   Zn2   S    
O42   Zn7   S    
C87   C100  A    
C162  N4    S    
C93   C108  A    
C80   C97   A    
C81   C98   A    
C116  O66   A    
C13   C81   A    
C143  H76   S    
C72   O60   S    
C70   N5    A    
C29   C165  S    
C114  C158  A    
C176  O26   A    
C7    H26   S    
C111  C129  A    
C116  O3    A    
O41   Zn6   S    
C132  C150  A    
C27   C190  S    
C47   C185  S    
C113  C131  A    
C51   C189  S    
C140  C153  A    
C130  H63   S    
C184  H11   S    
O1    Zn1   S    
C31   C49   S    
C117  C134  A    
C62   O50   S    
C64   C86   A    
C18   C191  S    
C136  H70   S    
C55   H39   S    
C4    H22   S    
C61   C83   A    
C35   C83   A    
C131  H64   S    
O17   Zn5   S    
C164  O36   A    
C171  O13   A    
C138  C150  S    
C176  O48   A    
C9    C183  S    
C49   C187  S    
C12   C186  S    
C3    C20   S    
C52   C190  S    
C53   C191  S    
C129  C146  A    
C5    C58   S    
C149  O10   A    
C88   C90   A    
C94   C103  A    
C51   H35   S    
O11   Zn13  S    
C46   H50   S    
C101  H55   S    
C7    C60   S    
O23   Zn14  S    
C9    C27   S    
C135  C148  A    
C126  I7    S    
O12   Zn7   S    
C10   C28   S    
C188  H16   S    
C65   C78   A    
C12   C30   S    
C183  H10   S    
C22   H6    S    
C74   N5    A    
C70   C92   A    
C174  O24   A    
C95   C110  A    
C167  O39   A    
C25   C42   S    
C172  O35   A    
C124  I5    S    
C160  O11   A    
C132  H65   S    
C33   C51   S    
C115  C133  A    
C34   C52   S    
C7    C25   S    
C69   N4    A    
C64   N4    A    
C73   O61   S    
C144  H77   S    
C17   C44   S    
C57   H51   S    
C25   H8    S    
C189  H17   S    
C18   C43   S    
C66   N2    A    
C67   O55   S    
C121  C139  A    
O9    Zn11  S    
C90   H54   S    
C65   O53   S    
C112  I9    S    
C72   N7    A    
C118  I14   S    
C4    C31   S    
C40   C186  S    
O40   Zn5   S    
C149  O6    A    
C103  C104  A    
C118  C157  A    
C120  C137  A    
C43   H27   S    
C71   O59   S    
C163  N3    S    
C118  C135  A    
C53   H37   S    
O34   Zn16  S    
C124  C159  A    
C109  H60   S    
C19   H3    S    
C65   N1    A    
O32   Zn13  S    
C68   C86   A    
C91   C104  A    
O24   Zn10  S    
O5    Zn15  S    
C106  H57   S    
O38   Zn10  S    
C169  O32   A    
C180  O30   A    
C110  H61   S    
C138  O5    A    
C23   H7    S    
C56   H40   S    
C126  C144  A    
C144  C153  A    
C24   C82   A    
C85   C98   A    
C25   C50   S    
C178  O28   A    
C5    C22   S    
O36   Zn1   S    
C174  O46   A    
O39   Zn11  S    
C120  C159  A    
O25   Zn13  S    
C19   C192  S    
C39   C187  S    
O12   Zn9   S    
C139  H72   S    
O18   Zn8   S    
C91   C106  A    
C124  C142  A    
C17   H80   S    
C26   C43   S    
C14   H56   S    
C28   C45   S    
C108  H59   S    
C167  O17   A    
C185  H13   S    
C142  H75   S    
C30   C166  S    
C42   C60   S    
C2    H46   S    
O34   Zn5   S    
C128  C163  A    
O68   Zn4   S    
C71   N6    A    
C69   O57   S    
C76   O64   S    
C48   C186  S    
C16   C33   S    
C20   C38   S    
C171  O8    A    
C92   C107  A    
C23   C51   S    
C21   C39   S    
C22   C40   S    
C96   C97   A    
C117  C156  A    
C100  C102  A    
C29   C192  S    
C131  C148  A    
C32   C50   S    
C37   C54   S    
C47   H30   S    
C135  H69   S    
C59   H42   S    
C137  H71   S    
C116  C152  S    
C15   H67   S    
C123  I4    S    
C169  O19   A    
C170  O20   A    
C12   H45   S    
C166  O38   A    
C115  C155  A    
C11   C185  S    
C114  C132  A    
C136  C150  A    
C48   H31   S    
C115  I12   S    
C113  I10   S    
C145  H79   S    
C32   C168  S    
C12   C58   S    
C4    C21   S    
C179  O42   A    
C68   H52   S    
C119  C158  A    
C61   N1    A    
C6    C23   S    
C54   H38   S    
C111  I1    S    
C2    C80   A    
C37   C173  S    
O48   Zn4   S    
C75   C88   A    
C129  H62   S    
C11   C29   S    
C134  H68   S    
O33   Zn14  S    
C140  H73   S    
C137  C151  A    
C177  O27   A    
C141  C154  A    
C126  C162  A    
C106  C109  A    
