data_mof_unit_61795.cif
_audit_creation_date              2012-12-10T17:50:15-0500
_audit_creation_method            fapswitch 2.2
_symmetry_space_group_name_H-M    P1
_symmetry_Int_Tables_number       1
_space_group_crystal_system       triclinic
_cell_length_a                    27.790012
_cell_length_b                    36.207633
_cell_length_c                    27.790686
_cell_angle_alpha                 89.999064
_cell_angle_beta                  90.000011
_cell_angle_gamma                 90.000801
_cell_volume                      27963.281593

loop_
_atom_site_label
_atom_site_type_symbol
_atom_type_description
_atom_site_fract_x
_atom_site_fract_y
_atom_site_fract_z
_atom_type_partial_charge
C1    C     C_R   0.500018 0.650337 0.249992 0.830597
C2    C     C_R   0.000014 0.650339 0.250005 0.835082
C3    C     C_1   0.499976 0.249997 0.431110 -0.136509
C4    C     C_1   0.499976 0.250002 0.931110 -0.135359
C5    C     C_1   0.499976 0.250003 0.068890 -0.135918
C6    C     C_1   0.499976 0.749998 0.068890 -0.135033
C7    C     C_1   0.499976 0.749997 0.931110 -0.135755
C8    C     C_1   0.999976 0.750002 0.931110 -0.135130
C9    C     C_1   0.999975 0.750002 0.068890 -0.135243
C10   C     C_1   0.999977 0.249997 0.068890 -0.135596
C11   C     C_1   0.999976 0.249996 0.931110 -0.135690
C12   C     C_1   0.999976 0.250002 0.431110 -0.135574
C13   C     C_R   0.000013 0.349662 0.250003 0.827449
C14   C     C_1   0.999976 0.250003 0.568890 -0.136222
C15   C     C_1   0.999977 0.749998 0.568890 -0.135367
C16   C     C_1   0.999976 0.749997 0.431110 -0.135682
C17   C     C_1   0.499972 0.750004 0.474550 0.012042
C18   C     C_1   0.499972 0.750004 0.525450 0.012226
C19   C     C_1   0.499973 0.249995 0.525450 0.010551
C20   C     C_1   0.499972 0.249995 0.474550 0.010880
C21   C     C_1   0.499972 0.250004 0.974550 0.011805
C22   C     C_1   0.499972 0.250005 0.025450 0.011656
C23   C     C_1   0.499972 0.749996 0.025450 0.012024
C24   C     C_R   0.000014 0.349662 0.749992 0.832964
C25   C     C_1   0.499972 0.749995 0.974550 0.011872
C26   C     C_1   0.999972 0.750004 0.974550 0.011940
C27   C     C_1   0.999971 0.750004 0.025450 0.011906
C28   C     C_1   0.999973 0.249995 0.025450 0.011876
C29   C     C_1   0.999973 0.249995 0.974550 0.011861
C30   C     C_1   0.999972 0.250004 0.474550 0.011516
C31   C     C_1   0.999972 0.250004 0.525450 0.011387
C32   C     C_1   0.999973 0.749996 0.525450 0.011767
C33   C     C_1   0.999972 0.749995 0.474550 0.011740
C34   C     C_R   0.499985 0.750003 0.120627 0.825908
C35   C     C_R   0.000014 0.150339 0.249996 0.834971
C36   C     C_R   0.499985 0.750002 0.879372 0.825689
C37   C     C_R   0.499985 0.249997 0.879372 0.826124
C38   C     C_R   0.499985 0.249998 0.120628 0.825272
C39   C     C_R   0.499986 0.250003 0.620628 0.825446
C40   C     C_R   0.499985 0.250002 0.379372 0.825344
C41   C     C_R   0.499985 0.749997 0.379372 0.825878
C42   C     C_R   0.499985 0.749997 0.620628 0.825143
C43   C     C_R   0.999985 0.750003 0.620627 0.825865
C44   C     C_R   0.999985 0.750002 0.379372 0.825200
C45   C     C_R   0.999985 0.249997 0.379372 0.825433
C46   C     C_R   0.000012 0.150338 0.750007 0.833507
C47   C     C_R   0.999985 0.249998 0.620628 0.825551
C48   C     C_R   0.999986 0.250002 0.120628 0.825099
C49   C     C_R   0.999985 0.250002 0.879372 0.825296
C50   C     C_R   0.999985 0.749997 0.879372 0.826004
C51   C     C_R   0.999985 0.749997 0.120628 0.825588
C52   C     C_R   0.370623 0.750000 0.250000 0.827692
C53   C     C_R   0.370623 0.750000 0.750000 0.827663
C54   C     C_R   0.370623 0.250000 0.750000 0.828960
C55   C     C_R   0.370623 0.250000 0.250000 0.827899
C56   C     C_R   0.870623 0.750000 0.750000 0.827905
C57   C     C_R   0.000017 0.849663 0.750007 0.831015
C58   C     C_R   0.870623 0.750000 0.250000 0.828021
C59   C     C_R   0.870623 0.250000 0.250000 0.827983
C60   C     C_R   0.870623 0.250000 0.750000 0.828114
C61   C     C_R   0.629370 0.750000 0.250000 0.819748
C62   C     C_R   0.629370 0.750000 0.750000 0.818506
C63   C     C_R   0.629370 0.250000 0.750000 0.819011
C64   C     C_R   0.629370 0.250000 0.250000 0.817994
C65   C     C_R   0.129370 0.750000 0.750000 0.819891
C66   C     C_R   0.129370 0.750000 0.250000 0.818511
C67   C     C_R   0.129370 0.250000 0.250000 0.818187
C68   C     C_R   0.000012 0.849662 0.249996 0.827547
C69   C     C_R   0.129370 0.250000 0.750000 0.818141
C70   C     C_1   0.681107 0.750000 0.249999 -0.140888
C71   C     C_1   0.681107 0.750000 0.750000 -0.139856
C72   C     C_1   0.681107 0.250000 0.750000 -0.141564
C73   C     C_1   0.681107 0.250000 0.250000 -0.140574
C74   C     C_1   0.181107 0.750000 0.750000 -0.141061
C75   C     C_1   0.181107 0.750000 0.250001 -0.140406
C76   C     C_1   0.181107 0.250000 0.249999 -0.141002
C77   C     C_1   0.181107 0.250000 0.750000 -0.140167
C78   C     C_1   0.724547 0.750000 0.250000 0.006154
C79   C     C_3   0.470554 0.977716 0.296836 0.242602
C80   C     C_1   0.724547 0.750000 0.750000 0.006884
C81   C     C_1   0.724547 0.250000 0.750000 0.005302
C82   C     C_1   0.724547 0.250000 0.250000 0.005935
C83   C     C_1   0.224547 0.750000 0.750000 0.005968
C84   C     C_1   0.224547 0.750000 0.250000 0.006431
C85   C     C_1   0.224547 0.250000 0.250000 0.005463
C86   C     C_1   0.224547 0.250000 0.750000 0.006511
C87   C     C_1   0.775446 0.749999 0.250000 0.007516
C88   C     C_1   0.775446 0.750000 0.750000 0.008532
C89   C     C_1   0.775446 0.250000 0.750000 0.006407
C90   C     C_3   0.465794 0.977452 0.705563 0.224876
C91   C     C_1   0.775446 0.249999 0.250000 0.007263
C92   C     C_1   0.275446 0.749999 0.750000 0.007221
C93   C     C_1   0.275446 0.750000 0.250000 0.008099
C94   C     C_1   0.275446 0.250000 0.250000 0.006434
C95   C     C_1   0.275446 0.250000 0.750000 0.008052
C96   C     C_1   0.818886 0.749999 0.250000 -0.139705
C97   C     C_1   0.818886 0.750000 0.750000 -0.137805
C98   C     C_1   0.818886 0.250000 0.750000 -0.141602
C99   C     C_1   0.818886 0.249999 0.250000 -0.139950
C100  C     C_1   0.318886 0.749999 0.750000 -0.140079
C101  C     C_3   0.469983 0.021888 0.702223 0.160660
C102  C     C_1   0.318886 0.749999 0.250000 -0.138240
C103  C     C_1   0.318886 0.250000 0.250000 -0.141650
C104  C     C_1   0.318886 0.250000 0.750000 -0.139030
C105  C     C_3   0.550031 0.978677 0.249992 -0.464165
C106  C     C_3   0.549558 0.978997 0.745109 -0.482471
C107  C     C_3   0.549248 0.021446 0.750738 -0.460855
C108  C     C_3   0.549526 0.021176 0.256202 -0.453637
C109  C     C_3   0.550034 0.478677 0.749122 -0.464230
C110  C     C_3   0.549704 0.478825 0.245202 -0.453470
C111  C     C_3   0.550031 0.521325 0.251423 -0.464160
C112  C     C_R   0.500014 0.650338 0.750008 0.832800
C113  C     C_3   0.463765 0.021834 0.292764 0.165920
C114  C     C_3   0.549639 0.521176 0.755340 -0.453310
C115  C     C_3   0.049905 0.978676 0.745631 -0.463904
C116  C     C_3   0.049555 0.978860 0.240548 -0.482980
C117  C     C_3   0.050295 0.021404 0.246666 -0.447551
C118  C     C_3   0.049948 0.021175 0.751862 -0.453238
C119  C     C_3   0.049590 0.478860 0.259283 -0.483129
C120  C     C_3   0.049711 0.478825 0.745271 -0.453311
C121  C     C_3   0.050029 0.521325 0.751493 -0.464190
C122  C     C_3   0.050308 0.521404 0.253163 -0.447285
C123  C     C_2   0.489236 0.959039 0.157534 0.466594
C124  C     C_3   0.471388 0.477716 0.797346 0.242344
C125  C     C_2   0.504121 0.965202 0.841535 0.449991
C126  C     C_2   0.483565 0.041389 0.840956 0.469620
C127  C     C_2   0.508056 0.035494 0.158330 0.469457
C128  C     C_2   0.487635 0.459040 0.657736 0.466326
C129  C     C_2   0.505472 0.464506 0.341860 0.469571
C130  C     C_2   0.486635 0.540960 0.342120 0.466224
C131  C     C_2   0.506467 0.535494 0.658204 0.469513
C132  C     C_2   0.981258 0.959041 0.658839 0.465845
C133  C     C_2   0.013962 0.964660 0.340824 0.449946
C134  C     C_2   0.995123 0.041074 0.342507 0.480245
C135  C     C_3   0.465015 0.478165 0.206221 0.165717
C136  C     C_2   0.000080 0.035494 0.657987 0.469816
C137  C     C_2   0.013653 0.464663 0.159128 0.451149
C138  C     C_2   0.005346 0.464507 0.841868 0.470758
C139  C     C_2   0.986508 0.540960 0.842103 0.466132
C140  C     C_2   0.994806 0.541077 0.157511 0.480062
C141  C     C_3   0.471916 0.522283 0.202342 0.242377
C142  C     C_3   0.464529 0.521834 0.793392 0.165673
C143  C     C_3   0.974828 0.977716 0.799243 0.242120
C144  C     C_3   0.962025 0.977793 0.209323 0.227416
C145  C     C_3   0.968162 0.021900 0.204269 0.181172
C146  C     C_3   0.967710 0.021834 0.795780 0.165926
C147  C     C_3   0.962167 0.477791 0.290808 0.227674
C148  C     C_R   0.500019 0.349663 0.750008 0.830616
C149  C     C_3   0.965075 0.478165 0.706174 0.165894
C150  C     C_3   0.971982 0.522283 0.702304 0.242351
C151  C     C_3   0.968321 0.521898 0.295842 0.181129
C152  C     C_1   0.999754 0.610777 0.249897 -0.130689
C153  C     C_1   0.999692 0.610771 0.750166 -0.114478
C154  C     C_1   0.999651 0.389225 0.750162 -0.125591
C155  C     C_1   0.999722 0.389227 0.249867 -0.109721
C156  C     C_1   0.999670 0.110775 0.749866 -0.125811
C157  C     C_1   0.999754 0.110778 0.250105 -0.130891
C158  C     C_1   0.999720 0.889227 0.250134 -0.109669
C159  C     C_R   0.500014 0.349662 0.249992 0.833012
C160  C     C_1   0.999710 0.889229 0.749856 -0.114196
C161  C     C_1   0.499646 0.610775 0.749834 -0.125592
C162  C     C_1   0.499692 0.610771 0.250167 -0.114456
C163  C     C_1   0.499651 0.389225 0.250162 -0.125786
C164  C     C_1   0.499690 0.389229 0.749828 -0.114563
C165  C     C_1   0.499641 0.110775 0.249826 -0.126115
C166  C     C_1   0.499601 0.110778 0.750114 -0.133829
C167  C     C_1   0.499707 0.889228 0.750098 -0.109903
C168  C     C_1   0.499686 0.889229 0.249822 -0.114383
C169  C     C_3   0.497632 0.963342 0.249894 0.174664
C170  C     C_R   0.500010 0.150339 0.749989 0.836547
C171  C     C_3   0.497470 0.963306 0.749463 0.186614
C172  C     C_3   0.496827 0.036637 0.749247 0.189890
C173  C     C_3   0.497332 0.036698 0.250088 0.156408
C174  C     C_3   0.497642 0.463342 0.749938 0.174685
C175  C     C_3   0.497357 0.463302 0.249832 0.156167
C176  C     C_3   0.497650 0.536658 0.250034 0.174712
C177  C     C_3   0.497346 0.536698 0.750137 0.156089
C178  C     C_3   0.997698 0.963342 0.750113 0.174524
C179  C     C_3   0.997889 0.963312 0.249904 0.176920
C180  C     C_3   0.997929 0.036668 0.249720 0.158091
C181  C     C_R   0.500014 0.150338 0.250008 0.832751
C182  C     C_3   0.997418 0.036698 0.750334 0.156059
C183  C     C_3   0.997893 0.463312 0.250104 0.177023
C184  C     C_3   0.997358 0.463302 0.749830 0.156170
C185  C     C_3   0.997650 0.536658 0.750032 0.174695
C186  C     C_3   0.997931 0.536668 0.250289 0.157937
C187  C     C_3   0.975653 0.521342 0.201896 -0.279199
C188  C     C_3   0.971207 0.521313 0.796203 -0.300286
C189  C     C_3   0.976398 0.477986 0.798829 -0.245115
C190  C     C_3   0.981130 0.478058 0.199576 -0.258337
C191  C     C_3   0.973664 0.022013 0.702626 -0.244582
C192  C     C_R   0.500019 0.849663 0.250008 0.830445
C193  C     C_3   0.975816 0.021341 0.298188 -0.279405
C194  C     C_3   0.981301 0.978057 0.300489 -0.257368
C195  C     C_3   0.968633 0.978687 0.705546 -0.300411
C196  C     C_3   0.476991 0.522013 0.700883 -0.244053
C197  C     C_3   0.471271 0.521313 0.296242 -0.300444
C198  C     C_3   0.476464 0.477986 0.298861 -0.244099
C199  C     C_3   0.471769 0.478686 0.703445 -0.300435
C200  C     C_3   0.477839 0.022013 0.200487 -0.243897
C201  C     C_3   0.469733 0.021419 0.794876 -0.271819
C202  C     C_3   0.475551 0.978169 0.798006 -0.265244
C203  C     C_R   0.500014 0.849662 0.749993 0.828462
C204  C     C_3   0.472575 0.978686 0.202957 -0.300584
C205  C     C_1   0.999154 0.577510 0.249980 -0.085419
C206  C     C_1   0.999013 0.577503 0.750188 -0.008248
C207  C     C_1   0.998875 0.422490 0.750103 -0.077151
C208  C     C_1   0.999108 0.422494 0.249900 -0.000372
C209  C     C_1   0.998914 0.077510 0.749973 -0.077042
C210  C     C_1   0.999153 0.077510 0.250024 -0.085500
C211  C     C_1   0.999105 0.922494 0.250102 -0.000211
C212  C     C_1   0.999044 0.922497 0.749877 -0.007996
C213  C     C_1   0.498867 0.577510 0.749883 -0.077146
C214  C     C_R   0.000018 0.650337 0.749992 0.830567
C215  C     C_1   0.499013 0.577503 0.250188 -0.008218
C216  C     C_1   0.498875 0.422490 0.250104 -0.077175
C217  C     C_1   0.499008 0.422497 0.749798 -0.008206
C218  C     C_1   0.498858 0.077510 0.249860 -0.077217
C219  C     C_1   0.498642 0.077512 0.749878 -0.084188
C220  C     C_1   0.498981 0.922493 0.749944 0.003194
C221  C     C_1   0.499001 0.922497 0.249779 -0.008237
C222  C     C_1   0.499976 0.750002 0.431110 -0.135121
C223  C     C_1   0.499976 0.750003 0.568890 -0.134501
C224  C     C_1   0.499977 0.249997 0.568890 -0.137308
H1    H     H_    0.071106 0.534487 0.282741 0.183866
H2    H     H_    0.573128 0.534345 0.223534 0.194074
H3    H     H_    0.951463 0.970406 0.135672 0.209055
H4    H     H_    0.026780 0.017655 0.155748 0.176086
H5    H     H_    0.000785 0.059385 0.157170 0.187565
H6    H     H_    0.021160 0.042805 0.842470 0.164693
H7    H     H_    0.969977 0.066450 0.843395 0.202919
H8    H     H_    0.008101 0.458944 0.346747 0.170554
H9    H     H_    0.951859 0.470402 0.364495 0.208937
H10   H     H_    0.015741 0.457195 0.656476 0.164597
H11   H     H_    0.964589 0.433548 0.658509 0.203328
H12   H     H_    0.033692 0.517124 0.658314 0.176863
H13   H     H_    0.566531 0.471425 0.210419 0.175827
H14   H     H_    0.983218 0.527686 0.628521 0.206315
H15   H     H_    0.027106 0.517652 0.344160 0.176088
H16   H     H_    0.001105 0.559382 0.342829 0.187736
H17   H     H_    0.526746 0.959525 0.146849 0.051148
H18   H     H_    0.540463 0.975021 0.847716 0.053925
H19   H     H_    0.520569 0.041598 0.853325 0.052089
H20   H     H_    0.544755 0.026007 0.153562 0.048889
H21   H     H_    0.524953 0.459525 0.646398 0.051346
H22   H     H_    0.542022 0.473994 0.347667 0.049199
H23   H     H_    0.523827 0.540476 0.353866 0.051491
H24   H     H_    0.572825 0.465657 0.777262 0.194027
H25   H     H_    0.543079 0.526008 0.652796 0.049139
H26   H     H_    0.017690 0.959525 0.644915 0.052322
H27   H     H_    0.050902 0.974113 0.343328 0.052432
H28   H     H_    0.033197 0.040628 0.350964 0.048599
H29   H     H_    0.036223 0.026007 0.650030 0.049829
H30   H     H_    0.050584 0.474116 0.156498 0.052787
H31   H     H_    0.041889 0.473994 0.847726 0.049742
H32   H     H_    0.023684 0.540476 0.853900 0.051451
H33   H     H_    0.032851 0.540633 0.148924 0.048660
H34   H     H_    0.565360 0.028577 0.291449 0.175709
H35   H     H_    0.572335 0.034402 0.722817 0.185313
H36   H     H_    0.566770 0.971403 0.710583 0.182799
H37   H     H_    0.572327 0.965657 0.278527 0.194009
H38   H     H_    0.433557 0.972758 0.205036 0.166600
H39   H     H_    0.439085 0.966095 0.802908 0.185043
H40   H     H_    0.430720 0.027148 0.789754 0.190867
H41   H     H_    0.073164 0.534345 0.723635 0.194083
H42   H     H_    0.441536 0.033915 0.194039 0.171570
H43   H     H_    0.432795 0.472758 0.706204 0.166586
H44   H     H_    0.439993 0.466084 0.304276 0.171499
H45   H     H_    0.432329 0.527240 0.293056 0.166547
H46   H     H_    0.440581 0.533914 0.695069 0.171545
H47   H     H_    0.929948 0.972760 0.711028 0.166581
H48   H     H_    0.945413 0.966151 0.309035 0.184516
H49   H     H_    0.936725 0.027137 0.298585 0.163850
H50   H     H_    0.936937 0.033916 0.699375 0.171398
H51   H     H_    0.945214 0.466153 0.191153 0.184494
H52   H     H_    0.066586 0.471425 0.710511 0.175902
H53   H     H_    0.939919 0.466084 0.804194 0.171495
H54   H     H_    0.932270 0.527240 0.792964 0.166630
H55   H     H_    0.936561 0.527138 0.201634 0.163936
H56   H     H_    0.568589 0.971629 0.215820 0.171297
H57   H     H_    0.573459 0.966726 0.772898 0.181810
H58   H     H_    0.566531 0.028817 0.785493 0.176846
H59   H     H_    0.574397 0.033820 0.229577 0.182362
H60   H     H_    0.567994 0.471629 0.714630 0.171339
H61   H     H_    0.573809 0.466183 0.272522 0.182518
H62   H     H_    0.567612 0.528374 0.286109 0.171333
H63   H     H_    0.063202 0.471395 0.295430 0.178906
H64   H     H_    0.574041 0.533819 0.728285 0.182563
H65   H     H_    0.065405 0.971628 0.709966 0.171498
H66   H     H_    0.076044 0.966263 0.265601 0.181654
H67   H     H_    0.070726 0.028471 0.279742 0.175042
H68   H     H_    0.072395 0.033819 0.723165 0.182722
H69   H     H_    0.075993 0.466265 0.234138 0.181754
H70   H     H_    0.073778 0.466183 0.772625 0.182734
H71   H     H_    0.067562 0.528374 0.786203 0.171409
H72   H     H_    0.070625 0.528473 0.220016 0.175174
H73   H     H_    0.404323 0.970236 0.330662 0.210261
H74   H     H_    0.068801 0.028575 0.785589 0.176182
H75   H     H_    0.402742 0.958245 0.271886 0.171437
H76   H     H_    0.395626 0.967234 0.681840 0.193105
H77   H     H_    0.397703 0.981370 0.739139 0.186317
H78   H     H_    0.405459 0.030293 0.666953 0.193959
H79   H     H_    0.423626 0.067115 0.697620 0.202707
H80   H     H_    0.409097 0.059352 0.276091 0.193941
H81   H     H_    0.398230 0.016995 0.254148 0.163307
H82   H     H_    0.405758 0.470235 0.832325 0.210795
H83   H     H_    0.403149 0.458248 0.773585 0.171533
H84   H     H_    0.409895 0.440645 0.221331 0.194319
H85   H     H_    0.070991 0.034488 0.217016 0.183680
H86   H     H_    0.398410 0.483000 0.242961 0.163278
H87   H     H_    0.406672 0.529761 0.166647 0.210706
H88   H     H_    0.403422 0.541750 0.225355 0.171468
H89   H     H_    0.409576 0.559352 0.777681 0.194168
H90   H     H_    0.398329 0.516997 0.755926 0.163339
H91   H     H_    0.911809 0.970236 0.838733 0.210679
H92   H     H_    0.905093 0.958248 0.780319 0.171740
H93   H     H_    0.889229 0.971775 0.193471 0.211866
H94   H     H_    0.898679 0.983461 0.250766 0.164806
H95   H     H_    0.923919 0.066527 0.186458 0.206167
H96   H     H_    0.063043 0.971396 0.204353 0.179022
H97   H     H_    0.903971 0.043545 0.234012 0.166462
H98   H     H_    0.911793 0.059353 0.783956 0.194460
H99   H     H_    0.899050 0.016998 0.763041 0.163242
H100  H     H_    0.889427 0.471772 0.306910 0.211832
H101  H     H_    0.898679 0.483460 0.249583 0.164809
H102  H     H_    0.909934 0.440645 0.721207 0.194191
H103  H     H_    0.898420 0.483000 0.742822 0.163316
H104  H     H_    0.906788 0.529761 0.666519 0.210670
H105  H     H_    0.903455 0.541749 0.725223 0.171545
H106  H     H_    0.924139 0.566523 0.313806 0.206204
H107  H     H_    0.074610 0.965655 0.772106 0.194469
H108  H     H_    0.904028 0.543544 0.266320 0.166490
H109  H     H_    0.530928 0.982877 0.342643 0.176759
H110  H     H_    0.479589 0.972314 0.370921 0.205855
H111  H     H_    0.517841 0.963392 0.652863 0.174258
H112  H     H_    0.461889 0.969731 0.631457 0.197750
H113  H     H_    0.531352 0.023320 0.657621 0.180178
H114  H     H_    0.498093 0.061985 0.656158 0.191828
H115  H     H_    0.512928 0.042806 0.343946 0.164487
H116  H     H_    0.461863 0.066453 0.340388 0.203235
H117  H     H_    0.532551 0.482876 0.842093 0.176853
H118  H     H_    0.566085 0.528576 0.790304 0.175939
H119  H     H_    0.481715 0.472313 0.871262 0.206351
H120  H     H_    0.515612 0.457195 0.156454 0.164614
H121  H     H_    0.464464 0.433548 0.158558 0.203523
H122  H     H_    0.533566 0.517124 0.158267 0.176868
H123  H     H_    0.483051 0.527686 0.128543 0.206292
H124  H     H_    0.514578 0.542805 0.843711 0.164748
H125  H     H_    0.463455 0.566451 0.841048 0.203547
H126  H     H_    0.038976 0.982876 0.839597 0.177162
H127  H     H_    0.990306 0.972312 0.872255 0.206204
H128  H     H_    0.007765 0.958947 0.153226 0.170800
N1    N     N_3   0.424074 0.958280 0.302653 -0.442599
N2    N     N_3   0.912272 0.967485 0.222720 -0.441574
N3    N     N_3   0.920435 0.039925 0.200726 -0.459903
N4    N     N_3   0.916032 0.031150 0.790868 -0.463788
N5    N     N_3   0.912369 0.467483 0.277581 -0.441605
N6    N     N_3   0.913766 0.468847 0.714061 -0.463894
N7    N     N_3   0.925694 0.541717 0.695106 -0.442389
N8    N     N_3   0.920606 0.539922 0.299550 -0.459940
N9    N     N_3   0.499425 0.967451 0.339550 -0.436037
N10   N     N_3   0.481583 0.959310 0.660529 -0.441993
N11   N     N_3   0.496147 0.033192 0.658227 -0.480723
N12   N     N_3   0.415552 0.965237 0.713662 -0.447158
N13   N     N_3   0.476010 0.039694 0.339116 -0.454500
N14   N     N_3   0.500999 0.467451 0.839549 -0.436076
N15   N     N_3   0.478571 0.460305 0.160234 -0.453822
N16   N     N_3   0.501987 0.532549 0.160465 -0.436092
N17   N     N_3   0.477581 0.539694 0.839525 -0.453813
N18   N     N_3   0.007323 0.967450 0.839269 -0.436212
N19   N     N_3   0.971713 0.958513 0.163372 -0.439255
N20   N     N_3   0.993783 0.031046 0.159014 -0.459022
N21   N     N_3   0.983961 0.039693 0.840886 -0.454048
N22   N     N_3   0.972014 0.458510 0.336725 -0.439530
N23   N     N_3   0.421427 0.038336 0.699397 -0.485518
N24   N     N_3   0.978695 0.460305 0.660205 -0.454021
N25   N     N_3   0.002110 0.532549 0.660469 -0.436087
N26   N     N_3   0.994097 0.531043 0.341008 -0.459020
N27   N     N_3   0.412713 0.031150 0.283352 -0.464284
N28   N     N_3   0.425016 0.458280 0.803974 -0.442334
N29   N     N_3   0.413717 0.468847 0.214179 -0.463708
N30   N     N_3   0.425619 0.541717 0.195207 -0.442478
N31   N     N_3   0.413320 0.531150 0.784874 -0.463820
N32   N     N_3   0.929034 0.958281 0.809102 -0.442336
O1    O     O_3   0.499990 0.750000 0.250000 -0.486582
O2    O     O_R   0.527870 0.668020 0.722120 -0.625318
O3    O     O_R   0.972140 0.331980 0.722150 -0.643863
O4    O     O_R   0.972140 0.168020 0.222150 -0.642156
O5    O     O_R   0.972140 0.168020 0.777850 -0.643450
O6    O     O_R   0.972140 0.831980 0.777850 -0.630649
O7    O     O_R   0.972140 0.831980 0.222150 -0.632728
O8    O     O_2   0.460501 0.942238 0.132516 -0.540295
O9    O     O_2   0.486257 0.943815 0.870432 -0.537964
O10   O     O_2   0.453147 0.057688 0.864495 -0.539297
O11   O     O_2   0.491142 0.056939 0.128934 -0.541727
O12   O     O_2   0.458466 0.442244 0.633220 -0.540787
O13   O     O_R   0.527870 0.331980 0.722120 -0.634380
O14   O     O_2   0.487730 0.443066 0.370766 -0.541752
O15   O     O_2   0.457200 0.557757 0.366316 -0.540979
O16   O     O_2   0.489041 0.556934 0.629104 -0.541754
O17   O     O_2   0.950443 0.942245 0.636426 -0.541717
O18   O     O_2   0.998801 0.943321 0.371285 -0.539272
O19   O     O_2   0.967900 0.057892 0.369146 -0.541690
O20   O     O_2   0.980661 0.056935 0.630180 -0.541783
O21   O     O_2   0.998386 0.443327 0.128718 -0.537334
O22   O     O_2   0.987564 0.443067 0.870751 -0.540247
O23   O     O_2   0.957039 0.557756 0.866258 -0.540927
O24   O     O_R   0.527870 0.331980 0.277880 -0.625370
O25   O     O_2   0.967492 0.557894 0.130965 -0.541934
O26   O     O_R   0.527870 0.168020 0.777880 -0.630362
O27   O     O_R   0.527870 0.168020 0.222120 -0.625044
O28   O     O_R   0.527870 0.831980 0.222120 -0.634295
O29   O     O_R   0.527870 0.831980 0.777880 -0.630458
O30   O     O_R   0.027870 0.668020 0.777880 -0.634746
O31   O     O_R   0.027870 0.668020 0.222120 -0.629124
O32   O     O_R   0.027870 0.331980 0.222120 -0.629171
O33   O     O_3   0.499990 0.750000 0.750000 -0.486247
O34   O     O_R   0.027870 0.331980 0.777880 -0.625066
O35   O     O_R   0.027870 0.168020 0.277880 -0.629065
O36   O     O_R   0.027870 0.168020 0.722120 -0.626014
O37   O     O_R   0.027870 0.831980 0.722120 -0.635009
O38   O     O_R   0.027870 0.831980 0.277880 -0.629377
O39   O     O_R   0.472130 0.728510 0.143730 -0.634060
O40   O     O_R   0.472130 0.728510 0.856270 -0.636014
O41   O     O_R   0.472130 0.271490 0.856270 -0.633819
O42   O     O_R   0.472130 0.271490 0.143730 -0.635991
O43   O     O_R   0.472130 0.228510 0.643730 -0.636417
O44   O     O_3   0.499990 0.250000 0.750000 -0.485417
O45   O     O_R   0.472130 0.228510 0.356270 -0.636405
O46   O     O_R   0.472130 0.771490 0.356270 -0.633948
O47   O     O_R   0.472130 0.771490 0.643730 -0.634729
O48   O     O_R   0.972130 0.728510 0.643730 -0.633864
O49   O     O_R   0.972130 0.728510 0.356270 -0.636249
O50   O     O_R   0.972130 0.271490 0.356270 -0.634473
O51   O     O_R   0.972130 0.271490 0.643730 -0.636072
O52   O     O_R   0.972130 0.228510 0.143730 -0.636628
O53   O     O_R   0.972130 0.228510 0.856270 -0.636497
O54   O     O_R   0.972130 0.771490 0.856270 -0.633718
O55   O     O_3   0.499990 0.250000 0.250000 -0.485052
O56   O     O_R   0.972130 0.771490 0.143730 -0.634161
O57   O     O_R   0.393720 0.728520 0.222140 -0.631558
O58   O     O_R   0.393720 0.728520 0.777860 -0.632743
O59   O     O_R   0.393720 0.271480 0.777860 -0.630912
O60   O     O_R   0.393720 0.271480 0.222140 -0.631968
O61   O     O_R   0.393720 0.228520 0.722140 -0.632312
O62   O     O_R   0.393720 0.228520 0.277860 -0.632431
O63   O     O_R   0.393720 0.771480 0.277860 -0.631491
O64   O     O_R   0.393720 0.771480 0.722140 -0.630949
O65   O     O_R   0.893720 0.728520 0.722140 -0.631504
O66   O     O_3   0.999990 0.750000 0.750000 -0.486546
O67   O     O_R   0.893720 0.728520 0.277860 -0.632596
O68   O     O_R   0.893720 0.271480 0.277860 -0.630783
O69   O     O_R   0.893720 0.271480 0.722140 -0.632192
O70   O     O_R   0.893720 0.228520 0.222140 -0.632606
O71   O     O_R   0.893720 0.228520 0.777860 -0.632154
O72   O     O_R   0.893720 0.771480 0.777860 -0.631398
O73   O     O_R   0.893720 0.771480 0.222140 -0.630763
O74   O     O_R   0.606280 0.728500 0.277860 -0.634174
O75   O     O_R   0.606280 0.728500 0.722140 -0.633922
O76   O     O_R   0.606280 0.271500 0.722140 -0.634193
O77   O     O_3   0.999990 0.750000 0.250000 -0.486005
O78   O     O_R   0.606280 0.271500 0.277860 -0.634010
O79   O     O_R   0.606280 0.228500 0.777860 -0.634484
O80   O     O_R   0.606280 0.228500 0.222140 -0.634123
O81   O     O_R   0.606280 0.771500 0.222140 -0.633957
O82   O     O_R   0.606280 0.771500 0.777860 -0.633898
O83   O     O_R   0.106280 0.728500 0.777860 -0.634216
O84   O     O_R   0.106280 0.728500 0.222140 -0.634515
O85   O     O_R   0.106280 0.271500 0.222140 -0.633551
O86   O     O_R   0.106280 0.271500 0.777860 -0.633721
O87   O     O_R   0.106280 0.228500 0.277860 -0.634741
O88   O     O_3   0.999990 0.250000 0.250000 -0.485936
O89   O     O_R   0.106280 0.228500 0.722140 -0.634358
O90   O     O_R   0.106280 0.771500 0.722140 -0.633980
O91   O     O_R   0.106280 0.771500 0.277860 -0.633634
O92   O     O_R   0.527850 0.771500 0.143710 -0.628878
O93   O     O_R   0.527850 0.771500 0.856290 -0.627004
O94   O     O_R   0.527850 0.228500 0.856290 -0.629082
O95   O     O_R   0.527850 0.228500 0.143710 -0.627009
O96   O     O_R   0.527850 0.271500 0.643710 -0.628331
O97   O     O_R   0.527850 0.271500 0.356290 -0.626896
O98   O     O_R   0.527850 0.728500 0.356290 -0.629095
O99   O     O_3   0.999990 0.250000 0.750000 -0.485125
O100  O     O_R   0.527850 0.728500 0.643710 -0.627495
O101  O     O_R   0.027850 0.771500 0.643710 -0.629341
O102  O     O_R   0.027850 0.771500 0.356290 -0.626700
O103  O     O_R   0.027850 0.228500 0.356290 -0.628510
O104  O     O_R   0.027850 0.228500 0.643710 -0.627243
O105  O     O_R   0.027850 0.271500 0.143710 -0.626164
O106  O     O_R   0.027850 0.271500 0.856290 -0.626436
O107  O     O_R   0.027850 0.728500 0.856290 -0.629348
O108  O     O_R   0.027850 0.728500 0.143710 -0.628748
O109  O     O_R   0.472140 0.668020 0.222150 -0.630907
O110  O     O_R   0.527870 0.668020 0.277880 -0.634590
O111  O     O_R   0.472140 0.668020 0.777850 -0.643877
O112  O     O_R   0.472140 0.331980 0.777850 -0.630836
O113  O     O_R   0.472140 0.331980 0.222150 -0.643623
O114  O     O_R   0.472140 0.168020 0.722150 -0.641562
O115  O     O_R   0.472140 0.168020 0.277850 -0.644028
O116  O     O_R   0.472140 0.831980 0.277850 -0.630991
O117  O     O_R   0.472140 0.831980 0.722150 -0.632345
O118  O     O_R   0.972140 0.668020 0.722150 -0.630833
O119  O     O_R   0.972140 0.668020 0.277850 -0.642070
O120  O     O_R   0.972140 0.331980 0.277850 -0.632875
Zn1   Zn    Zn3+2 0.539790 0.780710 0.210180 0.992308
Zn2   Zn    Zn3+2 0.039790 0.780710 0.289820 0.995603
Zn3   Zn    Zn3+2 0.039790 0.219290 0.289820 0.992270
Zn4   Zn    Zn3+2 0.039790 0.219290 0.710180 0.994953
Zn5   Zn    Zn3+2 0.039790 0.280710 0.210180 0.995922
Zn6   Zn    Zn3+2 0.039790 0.280710 0.789820 0.996304
Zn7   Zn    Zn3+2 0.039790 0.719290 0.789820 0.991664
Zn8   Zn    Zn3+2 0.039790 0.719290 0.210180 0.992503
Zn9   Zn    Zn3+2 0.460190 0.719300 0.210200 0.994960
Zn10  Zn    Zn3+2 0.460190 0.719300 0.789800 0.985202
Zn11  Zn    Zn3+2 0.460190 0.280700 0.789800 0.995880
Zn12  Zn    Zn3+2 0.539790 0.780710 0.789820 0.995073
Zn13  Zn    Zn3+2 0.460190 0.280700 0.210200 0.985562
Zn14  Zn    Zn3+2 0.460190 0.219300 0.710200 0.986546
Zn15  Zn    Zn3+2 0.460190 0.219300 0.289800 0.984662
Zn16  Zn    Zn3+2 0.460190 0.780700 0.289800 0.994979
Zn17  Zn    Zn3+2 0.460190 0.780700 0.710200 0.993820
Zn18  Zn    Zn3+2 0.960190 0.719300 0.710200 0.995204
Zn19  Zn    Zn3+2 0.960190 0.719300 0.289800 0.985993
Zn20  Zn    Zn3+2 0.960190 0.280700 0.289800 0.993723
Zn21  Zn    Zn3+2 0.960190 0.280700 0.710200 0.985376
Zn22  Zn    Zn3+2 0.960190 0.219300 0.210200 0.985638
Zn23  Zn    Zn3+2 0.539790 0.219290 0.789820 0.992043
Zn24  Zn    Zn3+2 0.960190 0.219300 0.789800 0.985450
Zn25  Zn    Zn3+2 0.960190 0.780700 0.789800 0.995632
Zn26  Zn    Zn3+2 0.960190 0.780700 0.210200 0.994138
Zn27  Zn    Zn3+2 0.539790 0.219290 0.210180 0.995509
Zn28  Zn    Zn3+2 0.539790 0.280710 0.710180 0.991568
Zn29  Zn    Zn3+2 0.539790 0.280710 0.289820 0.995494
Zn30  Zn    Zn3+2 0.539790 0.719290 0.289820 0.991874
Zn31  Zn    Zn3+2 0.539790 0.719290 0.710180 0.995666
Zn32  Zn    Zn3+2 0.039790 0.780710 0.710180 0.991721

loop_
_geom_bond_atom_site_label_1
_geom_bond_atom_site_label_2
_ccdc_geom_bond_type
O33   Zn10  S    
H108  N8    S    
C49   O106  A    
O86   Zn6   S    
C8    C26   T    
C43   O48   A    
C19   C20   S    
H122  N16   S    
C176  C197  S    
C127  C200  S    
C150  C185  S    
C62   O82   A    
C110  H13   S    
C15   C32   T    
C61   O81   A    
C55   O60   A    
C136  O20   D    
C105  C169  S    
C60   O69   A    
C49   O53   A    
O65   Zn18  S    
O31   Zn8   S    
C60   C98   S    
C196  C199  S    
C142  C177  S    
C106  C107  S    
H127  N18   S    
O72   Zn25  S    
C48   O52   A    
O98   Zn30  S    
C143  C178  S    
O2    Zn31  S    
O40   Zn10  S    
C110  C111  S    
O88   Zn20  S    
H94   N2    S    
O80   Zn27  S    
O79   Zn23  S    
O77   Zn19  S    
C145  N20   S    
C133  C194  S    
H115  N13   S    
H128  N19   S    
C134  H28   S    
C59   O68   A    
C141  N16   S    
O67   Zn19  S    
H124  N17   S    
C74   C83   T    
C191  H50   S    
C88   C97   T    
O48   Zn18  S    
H79   N23   S    
C90   N12   S    
C21   C22   S    
C173  C200  S    
H83   N28   S    
C68   C158  S    
C24   C154  S    
C117  H85   S    
C118  C182  S    
O100  Zn31  S    
O56   Zn26  S    
C125  C202  S    
C177  C213  S    
O33   Zn31  S    
C121  H41   S    
C188  H54   S    
C133  O18   D    
C112  O2    A    
C122  H1    S    
C131  O16   D    
C147  N22   S    
O84   Zn8   S    
C35   C157  S    
C175  C198  S    
C11   C49   S    
C163  C216  T    
C67   O87   A    
O3    Zn21  S    
C115  C118  S    
C108  C173  S    
C178  C212  S    
H125  N17   S    
H114  N11   S    
C138  O22   D    
H15   N26   S    
C180  C210  S    
C134  O19   D    
O33   Zn12  S    
C1    C162  S    
C151  N26   S    
C42   O47   A    
C39   C224  S    
C57   O37   A    
C197  H45   S    
C138  H31   S    
C8    C50   S    
C158  C211  T    
C44   O102  A    
C60   O71   A    
C156  C209  T    
C140  C187  S    
C19   C224  T    
C58   O73   A    
C144  C145  S    
O5    Zn24  S    
C130  H23   S    
H102  N6    S    
C187  H55   S    
H121  N15   S    
C168  C192  S    
C175  C216  S    
O71   Zn24  S    
H109  N9    S    
C139  H32   S    
C128  C199  S    
C120  H70   S    
C80   C88   S    
C63   O79   A    
O63   Zn16  S    
C114  H64   S    
H6    N21   S    
C127  O11   D    
O55   Zn15  S    
C149  N6    S    
C36   O93   A    
C116  H66   S    
H78   N23   S    
C38   O42   A    
C84   C93   S    
O44   Zn14  S    
O70   Zn22  S    
C86   C95   S    
O46   Zn16  S    
C101  N23   S    
C144  N19   S    
H11   N24   S    
C90   N10   S    
C193  C194  S    
O97   Zn29  S    
O39   Zn9   S    
C186  C187  S    
C64   O78   A    
C166  C219  T    
O52   Zn22  S    
O81   Zn1   S    
C164  C217  T    
C151  C186  S    
O66   Zn32  S    
C69   C77   S    
O66   Zn18  S    
C14   C31   T    
C195  H47   S    
O47   Zn17  S    
H126  N18   S    
C214  O118  A    
C130  O15   D    
O59   Zn11  S    
C174  C199  S    
C184  C207  S    
H110  N9    S    
C128  H21   S    
O50   Zn20  S    
C57   O6    A    
C67   O85   A    
C124  C174  S    
C52   O57   A    
O66   Zn7   S    
C101  C172  S    
C107  H35   S    
O30   Zn7   S    
C126  O10   D    
C24   O34   A    
C44   O49   A    
C149  C184  S    
C64   C73   S    
H88   N30   S    
C1    O110  A    
C106  H57   S    
C41   C222  S    
O105  Zn5   S    
O53   Zn24  S    
C200  H42   S    
H90   N31   S    
C46   O5    A    
C214  O30   A    
C56   C97   S    
O44   Zn23  S    
O99   Zn21  S    
C120  H52   S    
H76   N12   S    
H14   N25   S    
C50   O107  A    
H86   N29   S    
O1    Zn1   S    
C118  H74   S    
C111  C176  S    
C148  C164  S    
C136  H29   S    
H97   N3    S    
O27   Zn27  S    
O74   Zn30  S    
C45   O103  A    
H91   N32   S    
O55   Zn13  S    
C159  O113  A    
C65   C74   S    
O78   Zn29  S    
O32   Zn5   S    
C101  N11   S    
C147  C151  S    
C192  O116  A    
C132  C195  S    
C120  C184  S    
H87   N30   S    
C200  C204  S    
C43   O101  A    
C17   C18   S    
C176  C215  S    
C125  H18   S    
C119  C183  S    
C63   C72   S    
C173  C218  S    
C64   O80   A    
C109  C114  S    
O104  Zn4   S    
H103  N6    S    
C37   O94   A    
C166  C170  S    
H8    N22   S    
C79   C113  S    
C65   O90   A    
C121  H71   S    
O68   Zn20  S    
C107  H58   S    
C122  H72   S    
O69   Zn21  S    
C139  C188  S    
C130  C197  S    
C58   O67   A    
C123  H17   S    
C120  C121  S    
C79   N9    S    
C119  H63   S    
C40   O97   A    
C16   C44   S    
C47   O51   A    
C185  C206  S    
C150  N7    S    
C171  C220  S    
C2    O31   A    
H84   N29   S    
H104  N7    S    
C203  O117  A    
C46   C156  S    
H12   N25   S    
O101  Zn32  S    
C89   C98   T    
C1    O109  A    
C48   O105  A    
C171  C202  S    
C81   C89   S    
C46   O36   A    
C169  C204  S    
C137  O21   D    
C40   O45   A    
O58   Zn10  S    
C141  N30   S    
C76   C85   T    
C111  H62   S    
C62   C71   S    
C34   O92   A    
O64   Zn17  S    
O112  Zn11  S    
C197  C198  S    
O96   Zn28  S    
C191  C195  S    
C63   O76   A    
C137  C190  S    
C138  C189  S    
C55   O62   A    
C135  C141  S    
C194  H48   S    
O90   Zn32  S    
C105  H56   S    
C91   C99   T    
O118  Zn18  S    
C179  C194  S    
C35   O35   A    
C180  C193  S    
C131  H25   S    
C115  H107  S    
C61   C70   S    
C78   C87   S    
C143  C146  S    
O87   Zn3   S    
C2    O119  A    
O88   Zn5   S    
C7    C36   S    
C119  H69   S    
O111  Zn10  S    
O85   Zn5   S    
C9    C51   S    
C201  H40   S    
C36   O40   A    
O34   Zn6   S    
C112  O111  A    
C202  H39   S    
C203  O29   A    
C116  H96   S    
H119  N14   S    
C112  C161  S    
C52   C102  S    
C26   C27   S    
O42   Zn13  S    
C54   C104  S    
C28   C29   S    
C72   C81   T    
C30   C31   S    
O82   Zn12  S    
C34   O39   A    
H112  N10   S    
C201  C202  S    
H98   N4    S    
C42   O100  A    
C187  C190  S    
H95   N3    S    
C148  O112  A    
H120  N15   S    
C170  O114  A    
C69   O86   A    
C131  C196  S    
O75   Zn31  S    
O91   Zn2   S    
C113  N27   S    
C141  C176  S    
C196  H46   S    
O116  Zn16  S    
O89   Zn4   S    
C167  C203  S    
O93   Zn12  S    
C133  H27   S    
C137  H30   S    
H4    N20   S    
H77   N12   S    
C123  O8    D    
C129  H22   S    
O119  Zn19  S    
O51   Zn21  S    
C53   C100  S    
C5    C38   S    
C117  H67   S    
C2    C152  S    
C24   O3    A    
C118  H68   S    
O88   Zn22  S    
C153  C214  S    
O55   Zn29  S    
C149  N24   S    
C107  C172  S    
C126  C201  S    
H3    N19   S    
C53   O64   A    
C62   O75   A    
C65   O83   A    
C140  H33   S    
C146  C182  S    
C136  C191  S    
C56   O65   A    
H92   N32   S    
H100  N5    S    
H117  N14   S    
C109  C174  S    
O60   Zn13  S    
C6    C34   S    
H111  N10   S    
C68   O38   A    
O62   Zn15  S    
C41   O46   A    
C198  H44   S    
C54   O61   A    
C192  O28   A    
C144  N2    S    
C113  N13   S    
O114  Zn14  S    
C3    C20   T    
O44   Zn11  S    
C159  O24   A    
C108  H59   S    
H99   N4    S    
C132  O17   D    
C123  C204  S    
O57   Zn9   S    
C57   C160  S    
C94   C103  T    
C155  C208  T    
O109  Zn9   S    
H73   N1    S    
O35   Zn3   S    
C182  C191  S    
O37   Zn32  S    
C183  C190  S    
C73   C82   T    
C9    C27   T    
H106  N8    S    
C10   C28   T    
O66   Zn25  S    
C39   O43   A    
C12   C30   T    
O28   Zn1   S    
C111  H2    S    
O117  Zn17  S    
C142  N31   S    
H75   N1    S    
C93   C102  T    
H89   N31   S    
H16   N26   S    
O120  Zn20  S    
H101  N5    S    
C13   O32   A    
C151  N8    S    
C7    C25   T    
C32   C33   S    
C79   C169  S    
O107  Zn7   S    
C149  C150  S    
C135  N29   S    
C145  N3    S    
C146  N21   S    
C50   O54   A    
C110  H61   S    
C66   C75   S    
C148  O13   A    
C145  C180  S    
C170  O26   A    
C143  N32   S    
C114  H118  S    
C75   C84   T    
O45   Zn15  S    
C115  C178  S    
C122  C186  S    
O24   Zn29  S    
C82   C91   S    
C15   C43   S    
O95   Zn27  S    
C4    C37   S    
C150  N25   S    
C116  C179  S    
C126  H19   S    
C168  C221  T    
C129  O14   D    
O13   Zn28  S    
H10   N24   S    
C66   O84   A    
C52   O63   A    
C38   O95   A    
H123  N16   S    
C53   O58   A    
H113  N11   S    
C66   O91   A    
C177  C196  S    
C55   C103  S    
C61   O74   A    
C70   C78   T    
C142  N17   S    
C59   C99   S    
C106  C171  S    
C108  H34   S    
H93   N2    S    
C109  H24   S    
O103  Zn3   S    
H80   N27   S    
C132  H26   S    
C110  C175  S    
C83   C92   S    
C147  N5    S    
O38   Zn2   S    
C45   O50   A    
O36   Zn4   S    
C135  N15   S    
O1    Zn9   S    
C54   O59   A    
O49   Zn19  S    
O4    Zn22  S    
C39   O96   A    
O29   Zn12  S    
C193  H49   S    
H81   N27   S    
C179  C211  S    
C116  C117  S    
H5    N20   S    
C58   C96   S    
C41   O98   A    
C13   C155  S    
C17   C222  T    
O55   Zn27  S    
C79   N1    S    
C134  C193  S    
C169  C221  S    
C5    C22   T    
O33   Zn17  S    
C115  H65   S    
O77   Zn2   S    
O1    Zn16  S    
C124  N14   S    
O106  Zn6   S    
C129  C198  S    
C117  C180  S    
O73   Zn26  S    
C128  O12   D    
C157  C210  T    
O113  Zn13  S    
O92   Zn1   S    
C106  H36   S    
C183  C208  S    
C124  C142  S    
O115  Zn15  S    
C139  O23   D    
C71   C80   T    
O44   Zn28  S    
C181  O27   A    
O99   Zn6   S    
C162  C215  T    
C68   O7    A    
C160  C212  T    
C105  C108  S    
C152  C205  T    
C13   O120  A    
H82   N28   S    
C109  H60   S    
C204  H38   S    
C185  C188  S    
C199  H43   S    
C189  H53   S    
O77   Zn26  S    
C182  C209  S    
C181  O115  A    
C188  C189  S    
C56   O72   A    
C135  C175  S    
C90   C171  S    
O43   Zn14  S    
C90   C101  S    
C18   C223  T    
C16   C33   T    
C85   C94   S    
C144  C179  S    
H105  N7    S    
C114  C177  S    
C87   C96   T    
O1    Zn30  S    
C124  N28   S    
C174  C217  S    
O108  Zn8   S    
O77   Zn8   S    
O76   Zn28  S    
H7    N21   S    
C172  C219  S    
C146  N4    S    
C165  C218  T    
O54   Zn25  S    
C69   O89   A    
C77   C86   T    
C190  H51   S    
C35   O4    A    
C37   O41   A    
C159  C163  S    
O94   Zn23  S    
C59   O70   A    
C42   C223  S    
C167  C220  T    
C95   C104  T    
C92   C100  T    
C113  C173  S    
C119  C122  S    
C147  C183  S    
C161  C213  T    
C186  C205  S    
C127  H20   S    
C154  C207  T    
O83   Zn7   S    
C12   C45   S    
O110  Zn30  S    
C3    C40   S    
C14   C47   S    
C47   O104  A    
C178  C195  S    
H116  N13   S    
C140  O25   D    
O7    Zn26  S    
C165  C181  S    
C143  N18   S    
O102  Zn2   S    
C10   C48   S    
C4    C21   T    
O88   Zn3   S    
C6    C23   T    
O61   Zn14  S    
C23   C25   S    
C172  C201  S    
H9    N22   S    
C121  C185  S    
C153  C206  T    
O99   Zn24  S    
C11   C29   T    
C105  H37   S    
C51   O56   A    
O41   Zn11  S    
O6    Zn25  S    
C184  C189  S    
O99   Zn4   S    
C67   C76   S    
C125  O9    D    
O26   Zn23  S    
C51   O108  A    
