data_mof_unit_56382.cif
_audit_creation_date              2012-12-10T17:34:00-0500
_audit_creation_method            fapswitch 2.2
_symmetry_space_group_name_H-M    P1
_symmetry_Int_Tables_number       1
_space_group_crystal_system       triclinic
_cell_length_a                    10.718626
_cell_length_b                    12.087296
_cell_length_c                    12.861455
_cell_angle_alpha                 95.802199
_cell_angle_beta                  91.042142
_cell_angle_gamma                 86.527543
_cell_volume                      1654.61728234

loop_
_atom_site_label
_atom_site_type_symbol
_atom_type_description
_atom_site_fract_x
_atom_site_fract_y
_atom_site_fract_z
_atom_type_partial_charge
C1    C     C_R   0.502449 0.524441 0.700158 0.873071
C2    C     C_R   0.474434 0.462653 0.971900 -0.024994
C3    C     C_R   0.559086 0.535856 0.024978 -0.097174
C4    C     C_R   0.741642 0.501465 0.504465 0.970781
C5    C     C_R   0.571551 0.537292 0.134035 0.369434
C6    C     C_R   0.449205 0.373231 0.129767 -0.010101
C7    C     C_R   0.427487 0.375900 0.023189 0.102085
C8    C     C_R   0.369858 0.948396 0.409378 0.241375
C9    C     C_R   0.384309 0.832557 0.418903 0.482233
C10   C     C_R   0.552979 0.860754 0.539184 -0.109005
C11   C     C_R   0.540921 0.976826 0.534821 -0.043023
C12   C     C_3   0.121173 0.497588 0.500933 -0.021952
C13   C     C_R   0.450415 0.021816 0.468008 -0.013180
C14   C     C_R   0.445825 0.138580 0.459399 0.234160
C15   C     C_R   0.607412 0.163787 0.587218 0.251501
C16   C     C_R   0.504993 0.475989 0.299206 0.967085
C17   C     C_R   0.618257 0.048228 0.595053 -0.309151
C18   C     C_R   0.258031 0.499543 0.501143 0.950013
C19   C     C_3   0.933520 0.405747 0.568342 -0.337411
C20   C     C_3   0.079503 0.400250 0.564515 0.762745
C21   C     C_3   0.924013 0.478840 0.389736 0.155332
C22   C     C_3   0.924346 0.615136 0.559278 0.263213
C23   C     C_3   0.069556 0.484647 0.384581 0.060103
C24   C     C_3   0.878023 0.502475 0.505286 -0.068628
C25   C     C_3   0.067588 0.610812 0.558268 -0.550721
C26   C     C_R   0.512179 0.458737 0.185960 -0.155629
C27   C     C_R   0.510666 0.543473 0.812383 -0.212776
C28   C     C_R   0.627459 0.605662 0.967714 0.121017
C29   C     C_R   0.603860 0.608203 0.860838 -0.008115
C30   C     C_R   0.440094 0.477646 0.869126 0.366827
H1    H     H_    0.900520 0.326189 0.529376 0.174505
H2    H     H_    0.057028 0.652389 0.352160 0.218897
H3    H     H_    0.601691 0.690731 0.173285 0.347243
H4    H     H_    0.443717 0.210362 0.148703 0.205975
H5    H     H_    0.305475 0.284247 0.167050 0.196048
H6    H     H_    0.810964 0.638352 0.976981 0.204028
H7    H     H_    0.710528 0.750830 0.005425 0.194331
H8    H     H_    0.271997 0.314411 0.949842 0.244774
H9    H     H_    0.412026 0.253926 0.902188 0.231222
H10   H     H_    0.720680 0.622182 0.741572 0.181295
H11   H     H_    0.620093 0.734712 0.770791 0.209773
H12   H     H_    0.099421 0.683904 0.522401 0.228985
H13   H     H_    0.299228 0.479069 0.774102 0.365498
H14   H     H_    0.395562 0.147179 0.310834 0.189443
H15   H     H_    0.368199 0.265919 0.383200 0.254326
H16   H     H_    0.908951 0.341426 0.708825 0.203885
H17   H     H_    0.923909 0.479037 0.723528 0.215410
H18   H     H_    0.778663 0.205432 0.635070 0.161389
H19   H     H_    0.668547 0.227707 0.728116 0.170078
H20   H     H_    0.269239 0.936028 0.282315 0.333275
H21   H     H_    0.222279 0.795816 0.360304 0.320680
H22   H     H_    0.127893 0.345417 0.698465 0.374828
H23   H     H_    0.687337 0.014746 0.647912 0.157322
H24   H     H_    0.071953 0.265042 0.461887 0.330983
H25   H     H_    0.078971 0.367899 0.255082 0.171347
H26   H     H_    0.216705 0.390204 0.313578 0.200919
H27   H     H_    0.898908 0.711858 0.445397 0.389154
H28   H     H_    0.622887 0.824629 0.589599 0.176785
H29   H     H_    0.898733 0.392127 0.362528 0.094886
H30   H     H_    0.895684 0.625108 0.641965 0.138259
H31   H     H_    0.103751 0.620628 0.640194 0.195416
H32   H     H_    0.867383 0.514322 0.251819 0.351254
H33   H     H_    0.086662 0.561258 0.248006 0.197675
N1    N     N_R   0.523380 0.207800 0.519350 -0.131749
N2    N     N_3   0.686464 0.235308 0.649595 -0.382900
N3    N     N_3   0.122664 0.380832 0.328371 -0.472805
N4    N     N_R   0.476620 0.792180 0.480650 -0.127593
N5    N     N_3   0.106356 0.577901 0.327819 -0.407664
N6    N     N_3   0.401649 0.285830 0.181635 -0.467939
N7    N     N_3   0.728136 0.666494 0.015417 -0.412815
N8    N     N_3   0.362696 0.286090 0.969017 -0.455147
N9    N     N_3   0.678580 0.674047 0.802449 -0.466884
N10   N     N_3   0.362564 0.181734 0.383483 -0.338797
N11   N     N_3   0.884400 0.415212 0.675562 -0.454620
O1    O     O_R   0.506240 0.421700 0.658830 -0.563123
O2    O     O_3   0.636326 0.617472 0.192513 -0.700464
O3    O     O_3   0.335594 0.429756 0.825054 -0.772674
O4    O     O_3   0.277442 0.989763 0.345203 -0.762592
O5    O     O_3   0.305961 0.757984 0.368096 -0.738890
O6    O     O_3   0.129712 0.416652 0.666328 -0.796888
O7    O     O_3   0.127127 0.294309 0.519478 -0.733031
O8    O     O_3   0.871137 0.711119 0.517907 -0.732922
O9    O     O_R   0.491240 0.609310 0.646410 -0.652104
O10   O     O_R   0.692710 0.406190 0.506230 -0.634820
O11   O     O_R   0.677700 0.593810 0.493810 -0.547256
O12   O     O_R   0.508760 0.390690 0.353590 -0.666620
O13   O     O_R   0.493760 0.578300 0.341170 -0.524149
O14   O     O_R   0.322300 0.406190 0.506190 -0.584938
O15   O     O_R   0.307290 0.593810 0.493770 -0.589229
O16   O     O_3   0.860655 0.550866 0.324361 -0.726529
Zn1   Zn    Zn3+2 0.510020 0.374730 0.508290 0.981481
Zn2   Zn    Zn3+2 0.489980 0.625270 0.491710 1.024660

loop_
_geom_bond_atom_site_label_1
_geom_bond_atom_site_label_2
_ccdc_geom_bond_type
C6    N6    S    
C8    O4    S    
C8    C13   A    
C27   C29   A    
C19   C20   S    
C19   H1    S    
C10   N4    A    
O9    Zn2   S    
C12   C23   S    
H19   N2    S    
C22   O8    S    
C23   N3    S    
C28   C29   A    
C10   H28   S    
C21   H29   S    
O12   Zn1   S    
C22   H30   S    
C4    C24   S    
C15   N2    S    
H15   N10   S    
C9    O5    S    
C20   O7    S    
H33   N5    S    
C30   O3    S    
C2    C7    A    
C8    C9    A    
C22   C25   S    
C16   O13   A    
C15   N1    A    
O10   Zn1   S    
H18   N2    S    
O1    Zn1   S    
H2    N5    S    
C29   N9    S    
C13   C14   A    
C27   C30   A    
C16   O12   A    
H20   O4    S    
O11   Zn2   S    
H6    N7    S    
C21   O16   S    
C16   C26   S    
C20   O6    S    
C1    O1    A    
C14   N10   S    
C4    O11   A    
C18   O14   A    
C23   N5    S    
C9    N4    A    
H3    O2    S    
C4    O10   A    
O14   Zn1   S    
C14   N1    A    
C12   C20   S    
C25   H31   S    
O15   Zn2   S    
H4    N6    S    
H11   N9    S    
C21   C23   S    
C22   C24   S    
H13   O3    S    
C17   H23   S    
H16   N11   S    
H25   N3    S    
O13   Zn2   S    
C15   C17   A    
H8    N8    S    
C11   C17   A    
H10   N9    S    
C18   O15   A    
C19   N11   S    
C28   N7    S    
H17   N11   S    
C3    C5    A    
C25   H12   S    
C6    C7    A    
C1    O9    A    
C12   C25   S    
C2    C30   A    
C5    O2    S    
C2    C3    A    
H22   O6    S    
C7    N8    S    
C11   C13   A    
C6    C26   A    
H26   N3    S    
H32   O16   S    
N4    Zn2   S    
C19   C24   S    
H14   N10   S    
H21   O5    S    
C10   C11   A    
C5    C26   A    
H5    N6    S    
C3    C28   A    
C21   C24   S    
C12   C18   S    
C1    C27   S    
H9    N8    S    
H27   O8    S    
N1    Zn1   S    
H7    N7    S    
H24   O7    S    
