data_mof_unit_58889.cif
_audit_creation_date              2012-12-11T14:17:25-0500
_audit_creation_method            fapswitch 2.2
_symmetry_space_group_name_H-M    P1
_symmetry_Int_Tables_number       1
_space_group_crystal_system       triclinic
_cell_length_a                    6.94894
_cell_length_b                    13.613889
_cell_length_c                    20.430544
_cell_angle_alpha                 102.059603
_cell_angle_beta                  90.449442
_cell_angle_gamma                 90.384024
_cell_volume                      1889.99064851

loop_
_atom_site_label
_atom_site_type_symbol
_atom_type_description
_atom_site_fract_x
_atom_site_fract_y
_atom_site_fract_z
_atom_type_partial_charge
O1    O     O_R   0.506860 0.599390 0.449240 -0.540736
O2    O     O_R   0.180220 0.594600 0.586780 -0.544971
O3    O     O_R   0.004500 0.400610 0.550760 -0.536530
C1    C     C_R   0.349378 0.616061 0.613460 0.734659
O4    O     O_R   0.177490 0.611290 0.451970 -0.542805
O5    O     O_R   0.001750 0.417420 0.414990 -0.537173
C2    C     C_R   0.345777 0.637771 0.434976 0.699529
O6    O     O_R   0.509610 0.582580 0.585010 -0.545696
O7    O     O_3   0.337420 0.436370 0.488020 -0.363482
V1    V     V_3+5 0.064680 0.511800 0.502220 1.436995
O8    O     O_R   0.671710 0.405400 0.413220 -0.541546
C3    C     C_R   0.839688 0.382125 0.387522 0.708347
O9    O     O_R   0.674440 0.388710 0.548030 -0.539109
C4    C     C_R   0.843384 0.362185 0.564885 0.700921
V2    V     V_3+5 0.564010 0.488200 0.497780 1.450460
O10   O     O_3   0.841140 0.563630 0.511980 -0.377023
C5    C     C_R   0.890527 0.112287 0.613215 -0.144994
H1    H     H_    0.884059 0.162338 0.520379 0.130964
H2    H     H_    0.915327 0.987631 0.696590 0.123633
H3    H     H_    0.908539 0.034414 0.588382 0.118544
C6    C     C_R   0.853153 0.285421 0.605149 -0.039097
C7    C     C_R   0.837474 0.315194 0.928670 -0.188088
C8    C     C_R   0.823821 0.391068 0.892860 -0.125205
C9    C     C_R   0.830908 0.368594 0.823171 -0.161599
C10   C     C_R   0.852508 0.268355 0.787184 0.079382
C11   C     C_R   0.867736 0.190939 0.824390 0.069575
C12   C     C_R   0.859306 0.242312 0.715691 0.072446
C13   C     C_R   0.882388 0.139933 0.683322 0.133941
C14   C     C_R   0.897593 0.065745 0.720971 -0.200176
C15   C     C_R   0.890177 0.090607 0.790303 -0.195071
C16   C     C_R   0.844356 0.314164 0.674913 -0.216156
C17   C     C_R   0.876411 0.184713 0.574391 -0.137199
C18   C     C_R   0.859497 0.215485 0.895213 -0.077286
H4    H     H_    0.826941 0.393124 0.695504 0.093243
H5    H     H_    0.831163 0.334300 0.982828 0.118152
H6    H     H_    0.819091 0.431588 0.799179 0.105761
H7    H     H_    0.807181 0.468139 0.919348 0.118460
H8    H     H_    0.902472 0.030076 0.817013 0.117193
C19   C     C_2   0.988209 0.303870 0.280685 -0.208552
C20   C     C_2   0.845674 0.304073 0.325394 -0.195352
H9    H     H_    0.099048 0.361891 0.291799 0.138324
C21   C     C_2   0.013267 0.226476 0.218181 -0.033055
C22   C     C_2   0.862452 0.191461 0.177283 -0.336163
H10   H     H_    0.721278 0.221744 0.190812 0.179116
C23   C     C_2   0.204509 0.790999 0.781870 -0.139249
C24   C     C_2   0.363115 0.815620 0.820019 -0.304202
H11   H     H_    0.066807 0.821456 0.800701 0.129979
H12   H     H_    0.501529 0.785465 0.802388 0.128006
C25   C     C_2   0.203451 0.722484 0.714412 -0.131355
C26   C     C_2   0.361643 0.684325 0.680225 -0.309959
H13   H     H_    0.062330 0.703632 0.691893 0.133725
H14   H     H_    0.504679 0.702826 0.700657 0.124683
C27   C     C_R   0.311234 0.889040 0.387577 -0.025047
H15   H     H_    0.309911 0.836198 0.479863 0.108347
H16   H     H_    0.285273 0.012928 0.300384 0.163254
C28   C     C_R   0.351097 0.715362 0.395143 -0.045488
C29   C     C_R   0.386207 0.683980 0.071780 -0.290320
C30   C     C_R   0.391175 0.606440 0.107802 0.482638
C31   C     C_R   0.381209 0.631541 0.177625 -0.207132
C32   C     C_R   0.358324 0.732012 0.213065 0.014034
C33   C     C_R   0.344538 0.808533 0.175315 0.055226
C34   C     C_R   0.349701 0.758969 0.284688 0.093138
C35   C     C_R   0.322968 0.861583 0.316818 0.081484
C36   C     C_R   0.306991 0.934561 0.277762 -0.167550
C37   C     C_R   0.318545 0.908682 0.208651 -0.165614
C38   C     C_R   0.365470 0.687292 0.325620 -0.213184
C39   C     C_R   0.323484 0.815563 0.425864 -0.211837
C40   C     C_R   0.360706 0.783770 0.104760 -0.121657
H17   H     H_    0.384655 0.608426 0.305332 0.096845
H18   H     H_    0.404850 0.667828 0.018061 0.093789
H19   H     H_    0.391377 0.569432 0.202488 0.132998
H20   H     H_    0.306168 0.968489 0.181430 0.143135
O11   O     O_R   0.203230 0.917310 0.915020 -0.541825
O12   O     O_R   0.535500 0.888690 0.048040 -0.538143
O13   O     O_R   0.711080 0.082610 0.085000 -0.524851
C41   C     C_R   0.367090 0.861778 0.064767 0.717789
O14   O     O_R   0.532630 0.905370 0.913230 -0.550116
O15   O     O_R   0.708190 0.099410 0.949230 -0.540080
C42   C     C_R   0.364043 0.884223 0.886538 0.734683
O16   O     O_R   0.206120 0.900510 0.050790 -0.542189
O17   O     O_3   0.375360 0.063570 0.011990 -0.363475
V3    V     V_3+5 0.648170 0.988200 0.997780 1.442440
O18   O     O_R   0.038240 0.111390 0.951940 -0.543792
C43   C     C_R   0.869261 0.138039 0.935265 0.679520
O19   O     O_R   0.041120 0.094710 0.086750 -0.539542
C44   C     C_R   0.873370 0.117248 0.112937 0.751714
V4    V     V_3+5 0.148810 0.011930 0.002180 1.439488
O20   O     O_3   0.871750 0.936430 0.988010 -0.377726
C45   C     C_1   0.706956 0.222565 0.318638 0.343697
N1    N     N_1   0.596672 0.157325 0.313811 -0.347178
C46   C     C_1   0.208260 0.196483 0.200947 0.351328
N2    N     N_1   0.364048 0.172175 0.186698 -0.366104
C47   C     C_1   0.283909 0.991889 0.422484 0.289664
N3    N     N_1   0.262108 0.074149 0.450441 -0.354983
O21   O     O_3   0.421834 0.505746 0.078607 -0.555745
C48   C     C_3   0.339562 0.476981 0.013862 0.072119
H21   H     H_    0.436262 0.499763 0.976449 0.122996
H22   H     H_    0.193916 0.509844 0.010981 0.116802
C49   C     C_3   0.318237 0.363111 0.996190 -0.642962
H23   H     H_    0.215608 0.337755 0.030791 0.210465
H24   H     H_    0.263212 0.339027 0.944084 0.182796
H25   H     H_    0.459648 0.327254 0.000199 0.221935

loop_
_geom_bond_atom_site_label_1
_geom_bond_atom_site_label_2
_ccdc_geom_bond_type
O18   V4    S    
V4    O20   S    
C47   N3    T    
O21   C48   S    
C1    O6    A    
O17   V3    S    
C19   H9    S    
C28   C39   A    
O19   C44   A    
C7    H5    S    
C6    C16   A    
C9    H6    S    
O12   C41   A    
C4    C6    S    
C13   C14   A    
O16   V4    S    
O5    C3    A    
C24   C42   S    
V3    O20   S    
C38   H17   S    
V2    O10   S    
C48   C49   S    
C5    H3    S    
C15   H8    S    
C32   C34   A    
C21   C46   S    
O11   V4    S    
O13   C44   A    
O8    V2    S    
C49   H23   S    
C25   H13   S    
C48   H22   S    
C26   H14   S    
C8    C9    A    
O1    V2    S    
C20   C45   S    
O7    V1    S    
C23   H11   S    
C31   C32   A    
O9    C4    A    
C48   H21   S    
C22   C44   S    
C2    C28   S    
O12   V3    S    
C19   C21   S    
O14   C42   A    
C6    C17   A    
C24   H12   S    
C34   C38   A    
O19   V4    S    
C12   C16   A    
C9    C10   A    
C19   C20   D    
O4    C2    A    
H15   C39   S    
C30   C31   A    
C23   C24   D    
C27   C47   S    
O15   C43   A    
C1    C26   S    
C32   C33   A    
C3    C20   S    
O2    C1    A    
C30   O21   S    
C14   C15   A    
C8    H7    S    
O15   V3    S    
C11   C18   A    
O18   C43   A    
C23   C25   S    
H16   C36   S    
C34   C35   A    
O11   C42   A    
C16   H4    S    
O17   V4    S    
O3    C4    A    
C49   H24   S    
C11   C15   A    
O6    V2    S    
O9    V2    S    
C22   H10   S    
C10   C12   A    
C29   H18   S    
H1    C17   S    
C21   C22   D    
C29   C40   A    
H2    C14   S    
C46   N2    T    
C7    C18   A    
O1    C2    A    
C5    C13   A    
C41   O16   A    
O5    V1    S    
O8    C3    A    
O13   V3    S    
C40   C41   S    
C37   H20   S    
C36   C37   A    
C10   C11   A    
O4    V1    S    
O3    V1    S    
V1    O10   S    
C27   C35   A    
C33   C40   A    
C29   C30   A    
O14   V3    S    
C28   C38   A    
O7    V2    S    
C27   C39   A    
C18   C43   S    
C35   C36   A    
C33   C37   A    
C49   H25   S    
C25   C26   D    
C12   C13   A    
C5    C17   A    
C7    C8    A    
C45   N1    T    
C31   H19   S    
O2    V1    S    
