data_mof_unit_44903.cif
_audit_creation_date              2012-12-11T15:48:04-0500
_audit_creation_method            fapswitch 2.2
_symmetry_space_group_name_H-M    P1
_symmetry_Int_Tables_number       1
_space_group_crystal_system       triclinic
_cell_length_a                    6.920708
_cell_length_b                    17.597748
_cell_length_c                    19.44139
_cell_angle_alpha                 108.404958
_cell_angle_beta                  89.805631
_cell_angle_gamma                 90.732328
_cell_volume                      2246.44774624

loop_
_atom_site_label
_atom_site_type_symbol
_atom_type_description
_atom_site_fract_x
_atom_site_fract_y
_atom_site_fract_z
_atom_type_partial_charge
O1    O     O_R   0.494330 0.415710 0.413720 -0.542868
O2    O     O_R   0.819360 0.430070 0.560210 -0.547054
O3    O     O_R   0.994320 0.584290 0.586280 -0.541114
C1    C     C_R   0.650404 0.415622 0.582421 0.697846
O4    O     O_R   0.823740 0.406290 0.412670 -0.543180
O5    O     O_R   0.998730 0.560340 0.437690 -0.533315
C2    C     C_R   0.652477 0.380792 0.386388 0.706319
O6    O     O_R   0.489920 0.439660 0.562310 -0.539924
O7    O     O_3   0.662330 0.550570 0.508380 -0.364969
V1    V     V_3+5 0.935370 0.490620 0.498440 1.394015
O8    O     O_R   0.328720 0.569930 0.439790 -0.540145
C3    C     C_R   0.160675 0.585101 0.418165 0.717447
O9    O     O_R   0.324340 0.593710 0.587330 -0.543041
C4    C     C_R   0.155820 0.616334 0.615579 0.692955
V2    V     V_3+5 0.435940 0.509380 0.501560 1.405100
O10   O     O_3   0.159110 0.449430 0.491620 -0.378130
C5    C     C_R   0.298845 0.737157 0.709673 -0.166935
H1    H     H_    0.429520 0.731825 0.677763 0.126449
C6    C     C_R   0.284234 0.800284 0.774711 -0.183557
H2    H     H_    0.404430 0.842178 0.790466 0.121610
C7    C     C_R   0.116907 0.810528 0.818202 -0.061525
C8    C     C_R   0.962902 0.753129 0.795209 0.086012
C9    C     C_R   0.979024 0.691367 0.728568 -0.172915
H3    H     H_    0.862094 0.648043 0.710927 0.115456
C10   C     C_R   0.145062 0.682851 0.685282 -0.066141
C11   C     C_R   0.300897 0.629017 0.317543 -0.176166
C12   C     C_R   0.153523 0.634393 0.368800 -0.092116
C13   C     C_R   0.998595 0.686186 0.372151 -0.164448
C14   C     C_R   0.991142 0.733027 0.325636 0.093750
C15   C     C_R   0.137664 0.726551 0.273457 0.045300
C16   C     C_R   0.293599 0.673694 0.268804 0.071110
C17   C     C_R   0.838573 0.786080 0.330475 -0.182212
C18   C     C_R   0.828327 0.832588 0.284010 0.157924
C19   C     C_R   0.971356 0.825516 0.230318 0.064723
C20   C     C_R   0.127270 0.772656 0.225655 0.043430
C21   C     C_R   0.273801 0.766218 0.173497 0.096532
C22   C     C_R   0.426502 0.713272 0.168719 -0.181167
C23   C     C_R   0.436793 0.666759 0.215181 0.152945
C24   C     C_R   0.963951 0.870111 0.181551 -0.150832
C25   C     C_R   0.111261 0.864729 0.130321 -0.081933
C26   C     C_R   0.266252 0.813040 0.126987 -0.168392
H4    H     H_    0.418813 0.588612 0.315390 0.158304
H5    H     H_    0.884889 0.690801 0.411741 0.123547
H6    H     H_    0.726604 0.791699 0.370822 0.149757
H7    H     H_    0.846127 0.910540 0.183720 0.165481
H8    H     H_    0.379994 0.808571 0.087500 0.117798
H9    H     H_    0.538548 0.707753 0.128438 0.145721
C27   C     C_R   0.785196 0.181693 0.866360 -0.215557
C28   C     C_R   0.622574 0.133529 0.868113 -0.079645
C29   C     C_R   0.464822 0.132251 0.822138 -0.216212
C30   C     C_R   0.468734 0.177964 0.774652 0.088414
C31   C     C_R   0.630847 0.227114 0.774018 0.054336
C32   C     C_R   0.789210 0.229293 0.820297 0.089902
C33   C     C_R   0.313167 0.175478 0.727810 -0.179740
C34   C     C_R   0.316301 0.222477 0.681638 -0.182036
C35   C     C_R   0.475486 0.272500 0.681208 0.093096
C36   C     C_R   0.634451 0.274235 0.727080 0.056741
C37   C     C_R   0.796851 0.323147 0.726196 0.088959
C38   C     C_R   0.952065 0.325907 0.773259 -0.183865
C39   C     C_R   0.948233 0.279442 0.819917 -0.177298
C40   C     C_R   0.478938 0.320515 0.635574 -0.227861
C41   C     C_R   0.642665 0.367543 0.632769 -0.078897
C42   C     C_R   0.801208 0.368391 0.678287 -0.217110
H10   H     H_    0.906855 0.183297 0.901812 0.128523
H11   H     H_    0.339472 0.094839 0.822715 0.123039
H12   H     H_    0.187952 0.137719 0.727376 0.135569
H13   H     H_    0.193460 0.220033 0.646565 0.134252
H14   H     H_    0.355698 0.320382 0.601422 0.133229
H15   H     H_    0.927206 0.405259 0.677180 0.122443
H16   H     H_    0.077341 0.363613 0.773620 0.135335
H17   H     H_    0.070554 0.282284 0.855336 0.138766
C43   C     C_R   0.785873 0.295812 0.268585 -0.166632
H18   H     H_    0.910011 0.335939 0.278041 0.132868
C44   C     C_R   0.775589 0.233083 0.203322 -0.158800
H19   H     H_    0.891171 0.226942 0.164288 0.142582
C45   C     C_R   0.618595 0.179255 0.187944 -0.100935
C46   C     C_R   0.473404 0.187156 0.241116 0.133610
C47   C     C_R   0.473698 0.254745 0.305092 0.047189
C48   C     C_R   0.635643 0.309324 0.319648 -0.090525
O11   O     O_R   0.774940 0.060470 0.937800 -0.541974
O12   O     O_R   0.440880 0.093730 0.087350 -0.524682
O13   O     O_R   0.266130 0.939630 0.062280 -0.527090
C49   C     C_R   0.609507 0.114479 0.116851 0.751742
O14   O     O_R   0.445480 0.069960 0.939820 -0.544294
O15   O     O_R   0.270770 0.915690 0.913690 -0.546912
C50   C     C_R   0.614583 0.084882 0.917999 0.702726
O16   O     O_R   0.770300 0.084410 0.086380 -0.534912
O17   O     O_3   0.602600 0.949510 0.991670 -0.378436
V3    V     V_3+5 0.329470 0.009370 0.001550 1.443104
O18   O     O_R   0.940760 0.906160 0.912560 -0.545573
C51   C     C_R   0.108908 0.881327 0.885672 0.663154
O19   O     O_R   0.936150 0.929930 0.060100 -0.542141
C52   C     C_R   0.104222 0.914175 0.081171 0.742193
V4    V     V_3+5 0.828930 0.990450 0.998310 1.423870
O20   O     O_3   0.105670 0.050490 0.008320 -0.361633
I1    I     I_    0.670383 0.585516 0.198001 -0.460569
I2    I     I_    0.273073 0.089211 0.230597 -0.390528
C53   C     C_3   0.302355 0.265300 0.356697 -0.340069
C54   C     C_3   0.349315 0.237193 0.421755 -0.274404
C55   C     C_3   0.167682 0.233384 0.465450 -0.731232
H20   H     H_    0.105995 0.294015 0.489065 0.233208
H21   H     H_    0.057417 0.193029 0.430451 0.243115
H22   H     H_    0.204313 0.209285 0.510015 0.208310
H23   H     H_    0.412992 0.176431 0.402380 0.229656
H24   H     H_    0.456549 0.278527 0.457475 0.176254
H25   H     H_    0.247614 0.327046 0.373935 0.196397
H26   H     H_    0.173824 0.232098 0.328353 0.196570
C56   C     C_3   0.782368 0.752667 0.839922 -0.362725
C57   C     C_3   0.828628 0.729846 0.908056 -0.277256
C58   C     C_3   0.647058 0.729969 0.952882 -0.747004
H27   H     H_    0.581142 0.790222 0.970103 0.234512
H28   H     H_    0.539859 0.685421 0.920772 0.221846
H29   H     H_    0.685278 0.714137 0.002051 0.213407
H30   H     H_    0.891765 0.668951 0.891706 0.189791
H31   H     H_    0.935962 0.772148 0.942631 0.182495
H32   H     H_    0.707351 0.810777 0.853472 0.192923
H33   H     H_    0.674994 0.708190 0.807542 0.163868
I3    I     I_    0.595266 0.914149 0.301338 -0.408900

loop_
_geom_bond_atom_site_label_1
_geom_bond_atom_site_label_2
_ccdc_geom_bond_type
C49   O16   A    
C34   C35   A    
O18   V4    S    
C20   C21   A    
C25   C52   S    
C1    O6    A    
O15   C51   A    
C46   C47   A    
C35   C36   A    
C13   C14   A    
C11   C12   A    
C14   C15   A    
O13   V3    S    
C44   C45   A    
C15   C20   A    
C21   C22   A    
C6    C7    A    
C22   C23   A    
O14   C50   A    
C43   C48   A    
O5    C3    A    
C15   C16   A    
C27   H10   S    
V2    O10   S    
O16   V4    S    
C1    C41   S    
C56   C57   S    
C19   C20   A    
C58   H27   S    
O19   C52   A    
O11   C50   A    
O8    V2    S    
C42   H15   S    
C47   C53   S    
C26   H8    S    
C46   I2    S    
O1    V2    S    
C22   H9    S    
O7    V1    S    
C24   H7    S    
O12   V3    S    
C54   H23   S    
C38   C39   A    
O13   C52   A    
C7    C8    A    
C21   C26   A    
V4    O20   S    
C28   C50   S    
C45   C49   S    
O19   V4    S    
O12   C49   A    
C32   C39   A    
C29   C30   A    
C36   C37   A    
C8    C9    A    
C27   C32   A    
C54   H24   S    
O17   V4    S    
C44   H19   S    
C3    C12   S    
C19   C24   A    
C45   C46   A    
C43   C44   A    
C24   C25   A    
O4    C2    A    
O15   V3    S    
C47   C48   A    
C39   H17   S    
C37   C38   A    
C55   H22   S    
C53   H26   S    
C30   C31   A    
V3    O20   S    
O2    C1    A    
C41   C42   A    
C54   C55   S    
C9    H3    S    
C55   H21   S    
C5    H1    S    
C17   H6    S    
C58   H29   S    
O3    C4    A    
C57   H30   S    
C27   C28   A    
C28   C29   A    
O6    V2    S    
O9    V2    S    
O14   V3    S    
C18   I3    S    
O2    V1    S    
C31   C32   A    
C11   H4    S    
C2    C48   S    
C7    C51   S    
C37   C42   A    
C33   C34   A    
C25   C26   A    
O1    C2    A    
C56   H33   S    
C43   H18   S    
O5    V1    S    
C34   H13   S    
O8    C3    A    
C33   H12   S    
C14   C17   A    
C13   H5    S    
C53   H25   S    
C16   C23   A    
C30   C33   A    
C5    C10   A    
C17   C18   A    
C56   H32   S    
C6    H2    S    
O7    V2    S    
O4    V1    S    
O3    V1    S    
V1    O10   S    
C57   C58   S    
C40   H14   S    
O18   C51   A    
C8    C56   S    
C55   H20   S    
C5    C6    A    
C18   C19   A    
C9    C10   A    
C4    C10   S    
C40   C41   A    
C29   H11   S    
C58   H28   S    
C31   C36   A    
C57   H31   S    
C38   H16   S    
C11   C16   A    
O17   V3    S    
C53   C54   S    
C23   I1    S    
C12   C13   A    
C35   C40   A    
O9    C4    A    
O11   V4    S    
