data_mof_unit_36792.cif
_audit_creation_date              2013-03-05T16:05:38-0500
_audit_creation_method            fapswitch 2.2
_symmetry_space_group_name_H-M    P1
_symmetry_Int_Tables_number       1
_space_group_crystal_system       triclinic
_cell_length_a                    15.879043
_cell_length_b                    10.817097
_cell_length_c                    9.615347
_cell_angle_alpha                 89.202833
_cell_angle_beta                  89.48481
_cell_angle_gamma                 91.722082
_cell_volume                      1650.60263248

loop_
_atom_site_label
_atom_site_type_symbol
_atom_site_description
_atom_site_fract_x
_atom_site_fract_y
_atom_site_fract_z
_atom_type_partial_charge
O1    O     O_R   0.500000 0.319660 0.618740 -0.552387
O2    O     O_R   0.500000 0.680340 0.381260 -0.552396
O3    O     O_R   0.499990 0.319630 0.381170 -0.561012
O4    O     O_R   0.500010 0.680370 0.618830 -0.560790
C1    C     C_R   0.502445 0.262640 0.500629 0.852002
C2    C     C_R   0.497556 0.737361 0.499373 0.851837
O5    O     O_R   0.379080 0.500000 0.618760 -0.512492
O6    O     O_R   0.620920 0.500000 0.381240 -0.512558
O7    O     O_R   0.379080 0.499970 0.381190 -0.535083
O8    O     O_R   0.620920 0.500030 0.618810 -0.535105
C3    C     C_R   0.340134 0.499564 0.500473 0.833124
C4    C     C_R   0.659866 0.500437 0.499527 0.833054
Cu1   Cu    Cu3+1 0.500000 0.500020 0.640660 1.097042
Cu2   Cu    Cu3+1 0.500000 0.499980 0.359340 1.096980
C5    C     C_3   0.970990 0.422644 0.600565 0.134182
C6    C     C_3   0.029010 0.577356 0.399435 0.134179
C7    C     C_3   0.025842 0.384984 0.476345 0.307080
C8    C     C_3   0.974158 0.615016 0.523654 0.307070
C9    C     C_1   0.250691 0.499690 0.501272 -0.030544
C10   C     C_1   0.749309 0.500311 0.498728 -0.030531
C11   C     C_3   0.028013 0.537834 0.624106 0.306799
C12   C     C_3   0.971987 0.462166 0.375894 0.306795
C13   C     C_3   0.083870 0.500662 0.499177 -0.193154
C14   C     C_3   0.916130 0.499339 0.500823 -0.193154
C15   C     C_1   0.175328 0.500033 0.500682 0.228600
C16   C     C_1   0.824672 0.499968 0.499318 0.228594
C17   C     C_R   0.547583 0.065282 0.396386 0.317065
C18   C     C_R   0.452436 0.934720 0.603642 0.317235
C19   C     C_R   0.540527 0.936987 0.394672 -0.242037
C20   C     C_R   0.459484 0.063017 0.605350 -0.242059
H1    H     H_    0.574254 0.888331 0.315621 0.242611
H2    H     H_    0.425760 0.111676 0.684407 0.242517
C21   C     C_R   0.494852 0.871333 0.498138 -0.205182
C22   C     C_R   0.505155 0.128669 0.501875 -0.205111
C23   C     C_R   0.437100 0.439956 0.077234 0.449169
C24   C     C_R   0.562907 0.560019 0.922758 0.449298
C25   C     C_R   0.435373 0.443617 0.928921 0.255492
C26   C     C_R   0.564623 0.556390 0.071074 0.255587
N1    N     N_R   0.500020 0.500030 0.852070 -0.286846
N2    N     N_R   0.499980 0.499970 0.147930 -0.286901
O9    O     O_3   0.059426 0.267917 0.451106 -0.555162
C27   C     C_3   0.993953 0.177076 0.447209 -0.172233
H3    H     H_    0.938342 0.207394 0.387467 0.185374
H4    H     H_    0.974475 0.148225 0.554117 0.207457
H5    H     H_    0.018167 0.094398 0.394951 0.177291
O10   O     O_3   0.940574 0.732083 0.548893 -0.555170
C28   C     C_3   0.006047 0.822925 0.552790 -0.172246
H6    H     H_    0.025525 0.851775 0.445883 0.207459
H7    H     H_    0.061658 0.792606 0.612533 0.185373
H8    H     H_    0.981833 0.905602 0.605048 0.177290
N3    N     N_R   0.940431 0.338522 0.710776 0.125704
O11   O     O_R   0.993971 0.281786 0.788701 -0.323441
O12   O     O_R   0.860063 0.320327 0.732624 -0.339994
N4    N     N_R   0.059569 0.661479 0.289224 0.125708
O13   O     O_R   0.006029 0.718214 0.211298 -0.323463
O14   O     O_R   0.139937 0.679673 0.267375 -0.339974
O15   O     O_3   0.935609 0.425399 0.248955 -0.538397
C29   C     C_3   0.999037 0.390362 0.155333 -0.098853
H9    H     H_    0.030267 0.305638 0.191778 0.182126
H10   H     H_    0.046641 0.465952 0.135637 0.181430
H11   H     H_    0.969178 0.368511 0.054524 0.221096
O16   O     O_3   0.064391 0.574601 0.751045 -0.538383
C30   C     C_3   0.000963 0.609639 0.844666 -0.098886
H12   H     H_    0.953359 0.534047 0.864363 0.181416
H13   H     H_    0.969732 0.694362 0.808221 0.182107
H14   H     H_    0.030822 0.631490 0.945475 0.221104
N5    N     N_R   0.601273 0.128505 0.295345 0.131030
O17   O     O_R   0.653697 0.215958 0.333952 -0.336111
O18   O     O_R   0.607552 0.086073 0.169796 -0.338683
N6    N     N_R   0.398769 0.871495 0.704713 0.131157
O19   O     O_R   0.346325 0.784058 0.666130 -0.336082
O20   O     O_R   0.392529 0.913913 0.830274 -0.338739
O21   O     O_3   0.373535 0.377994 0.151458 -0.526294
C31   C     C_3   0.384277 0.249062 0.143347 -0.144926
H15   H     H_    0.451624 0.222616 0.140473 0.163083
H16   H     H_    0.351028 0.211177 0.051649 0.212593
H17   H     H_    0.355070 0.204220 0.237189 0.173458
O22   O     O_3   0.626453 0.621997 0.848508 -0.526516
C32   C     C_3   0.615796 0.750946 0.856758 -0.143906
H18   H     H_    0.649934 0.788852 0.947623 0.212919
H19   H     H_    0.548466 0.777511 0.861273 0.162551
H20   H     H_    0.644182 0.795679 0.762155 0.173018
N7    N     N_R   0.362053 0.394053 0.862139 0.163678
O23   O     O_R   0.365929 0.292029 0.793271 -0.379380
O24   O     O_R   0.288569 0.437055 0.892478 -0.275302
N8    N     N_R   0.637919 0.606020 0.137855 0.163668
O25   O     O_R   0.634030 0.708173 0.206477 -0.379419
O26   O     O_R   0.711408 0.562966 0.107656 -0.275504

loop_
_geom_bond_atom_site_label_1
_geom_bond_atom_site_label_2
_geom_bond_distance
_ccdc_geom_bond_type
C26   N2    1.381444 A    
C30   H13   1.109116 S    
C17   C19   1.389271 A    
C8    C11   1.548095 S    
O9    C27   1.410022 S    
C12   O15   1.412089 S    
C28   H7    1.112930 S    
O5    C3    1.299503 A    
C3    C9    1.420259 S    
C7    C13   1.550787 S    
C31   H16   1.108839 S    
C26   N8    1.428499 S    
C8    C14   1.550786 S    
C23   C25   1.426616 A    
C14   C16   1.452681 S    
N8    O26   1.301267 A    
C29   H10   1.109874 S    
C19   C21   1.398775 A    
O21   C31   1.413284 S    
O4    Cu1   1.959211 S    
O10   C28   1.410023 S    
N7    O23   1.297647 A    
C31   H17   1.109654 S    
C6    C12   1.538631 S    
N6    O19   1.301415 A    
C5    N3    1.457352 S    
C29   H11   1.108212 S    
C30   H14   1.108212 S    
Cu1   Cu2   2.704995 S    
C19   H1    1.078113 S    
O2    C2    1.300726 A    
C27   H4    1.108737 S    
O2    Cu2   1.965236 S    
C8    O10   1.411973 S    
C28   H8    1.108982 S    
C7    O9    1.411973 S    
C17   C22   1.409849 A    
N4    O14   1.300167 A    
C31   H15   1.115484 S    
C20   C22   1.398787 A    
N5    O17   1.301413 A    
O4    C2    1.297476 A    
C32   H19   1.116020 S    
O22   C32   1.413354 S    
C29   H9    1.109115 S    
N3    O11   1.300334 A    
N3    O12   1.300167 A    
C27   H5    1.108982 S    
O7    Cu2   1.929672 S    
O16   C30   1.408734 S    
C28   H6    1.108737 S    
O5    Cu1   1.933483 S    
O6    C4    1.299502 A    
C1    C22   1.450991 S    
C4    C10   1.420259 S    
O7    C3    1.298037 A    
C11   O16   1.412090 S    
O3    Cu2   1.959214 S    
O8    C4    1.298036 A    
C5    C14   1.550233 S    
N7    O24   1.301266 A    
C18   C21   1.409862 A    
C6    C13   1.550232 S    
C11   C13   1.551468 S    
O1    C1    1.300703 A    
O1    Cu1   1.965237 S    
C27   H3    1.112931 S    
C5    C7    1.538628 S    
N4    O13   1.300333 A    
C23   O21   1.382190 S    
O6    Cu2   1.933481 S    
N8    O25   1.297634 A    
C24   N1    1.365931 A    
C18   N6    1.438747 S    
C30   H12   1.109874 S    
O3    C1    1.297489 A    
O8    Cu1   1.929672 S    
C32   H20   1.109964 S    
C7    C12   1.548095 S    
C2    C21   1.451006 S    
C24   C26   1.426626 A    
C23   N2    1.366016 A    
C25   N1    1.381433 A    
C24   O22   1.382184 S    
C20   H2    1.078149 S    
O15   C29   1.408735 S    
C10   C16   1.196880 T    
C18   C20   1.389283 A    
C12   C14   1.551468 S    
C13   C15   1.452681 S    
C9    C15   1.196880 T    
C6    N4    1.457353 S    
Cu1   N1    2.032785 S    
C17   N5    1.438754 S    
Cu2   N2    2.032785 S    
C32   H18   1.109259 S    
C5    C11   1.538631 S    
C6    C8    1.538628 S    
C25   N7    1.428550 S    
N6    O20   1.301513 A    
N5    O18   1.301511 A    
