data_mof_unit_31632.cif
_audit_creation_date              2012-12-11T15:26:40-0500
_audit_creation_method            fapswitch 2.2
_symmetry_space_group_name_H-M    P1
_symmetry_Int_Tables_number       1
_space_group_crystal_system       triclinic
_cell_length_a                    7.221927
_cell_length_b                    12.086303
_cell_length_c                    29.088669
_cell_angle_alpha                 89.999715
_cell_angle_beta                  89.99473
_cell_angle_gamma                 89.996722
_cell_volume                      2539.0451237

loop_
_atom_site_label
_atom_site_type_symbol
_atom_type_description
_atom_site_fract_x
_atom_site_fract_y
_atom_site_fract_z
_atom_type_partial_charge
O1    O     O_R   0.647170 0.849180 0.201220 -0.534798
O2    O     O_R   0.352830 0.150820 0.798780 -0.534798
O3    O     O_R   0.352830 0.150820 0.701220 -0.534761
O4    O     O_R   0.647170 0.849180 0.298780 -0.534761
O5    O     O_R   0.147170 0.650820 0.298780 -0.534760
O6    O     O_R   0.852830 0.349180 0.701220 -0.534760
O7    O     O_R   0.852830 0.349180 0.798780 -0.534797
O8    O     O_R   0.147170 0.650820 0.201220 -0.534797
O9    O     O_R   0.317430 0.862210 0.298450 -0.534941
O10   O     O_R   0.682570 0.137790 0.701550 -0.534941
O11   O     O_R   0.682570 0.137790 0.798450 -0.534894
O12   O     O_R   0.317430 0.862210 0.201550 -0.534894
O13   O     O_R   0.817430 0.637790 0.201550 -0.534894
O14   O     O_R   0.182570 0.362210 0.798450 -0.534894
O15   O     O_R   0.182570 0.362210 0.701550 -0.534937
O16   O     O_R   0.817430 0.637790 0.298450 -0.534937
H1    H     H_    0.997818 0.221790 0.456745 0.186962
H2    H     H_    0.002182 0.778210 0.543255 0.186962
H3    H     H_    0.001034 0.778212 0.956739 0.186960
H4    H     H_    0.998966 0.221788 0.043261 0.186960
H5    H     H_    0.499004 0.278225 0.043261 0.186954
H6    H     H_    0.500996 0.721775 0.956739 0.186954
H7    H     H_    0.501769 0.721791 0.543257 0.186962
H8    H     H_    0.498231 0.278208 0.456743 0.186962
C1    C     C_R   0.485727 0.888077 0.313309 0.700156
C2    C     C_R   0.514273 0.111923 0.686691 0.700156
C3    C     C_R   0.514260 0.111921 0.813308 0.700164
C4    C     C_R   0.485740 0.888079 0.186692 0.700164
C5    C     C_R   0.985747 0.611922 0.186692 0.700163
C6    C     C_R   0.014253 0.388078 0.813308 0.700163
C7    C     C_R   0.014265 0.388077 0.686691 0.700151
C8    C     C_R   0.985735 0.611923 0.313309 0.700151
H9    H     H_    0.012344 0.610308 0.691721 0.148942
H10   H     H_    0.987656 0.389692 0.308279 0.148942
H11   H     H_    0.988274 0.389683 0.191724 0.148945
H12   H     H_    0.011725 0.610317 0.808276 0.148945
H13   H     H_    0.511601 0.889678 0.808277 0.148947
H14   H     H_    0.488399 0.110322 0.191723 0.148947
H15   H     H_    0.487793 0.110313 0.308279 0.148945
H16   H     H_    0.512207 0.889687 0.691721 0.148945
H17   H     H_    0.002522 0.337929 0.599634 0.109826
H18   H     H_    0.997478 0.662071 0.400366 0.109826
H19   H     H_    0.997037 0.662084 0.099632 0.109809
H20   H     H_    0.002963 0.337915 0.900368 0.109809
H21   H     H_    0.503170 0.162090 0.900369 0.109802
H22   H     H_    0.496830 0.837910 0.099631 0.109802
H23   H     H_    0.497249 0.837918 0.400367 0.109814
H24   H     H_    0.502751 0.162082 0.599633 0.109814
O17   O     O_3   0.480630 0.680630 0.250000 -0.372638
O18   O     O_3   0.519370 0.319370 0.750000 -0.372638
O19   O     O_3   0.980630 0.819370 0.250000 -0.372639
O20   O     O_3   0.019370 0.180630 0.750000 -0.372639
V1    V     V_3+5 0.205800 0.762860 0.250000 1.513631
V2    V     V_3+5 0.794200 0.237140 0.750000 1.513631
V3    V     V_3+5 0.705800 0.737140 0.250000 1.513616
V4    V     V_3+5 0.294200 0.262860 0.750000 1.513616
H25   H     H_    0.000700 0.282768 0.533080 0.132350
H26   H     H_    0.999299 0.717232 0.466920 0.132350
H27   H     H_    0.998328 0.717229 0.033074 0.132359
H28   H     H_    0.001672 0.282771 0.966925 0.132359
H29   H     H_    0.501637 0.217245 0.966926 0.132352
H30   H     H_    0.498362 0.782755 0.033074 0.132352
H31   H     H_    0.498869 0.782774 0.466924 0.132358
H32   H     H_    0.501131 0.217226 0.533076 0.132358
C9    C     C_R   0.993020 0.533594 0.351639 -0.097740
C10   C     C_R   0.006980 0.466406 0.648361 -0.097740
C11   C     C_R   0.006920 0.466404 0.851638 -0.097724
C12   C     C_R   0.993080 0.533595 0.148362 -0.097724
C13   C     C_R   0.493056 0.966405 0.148362 -0.097722
C14   C     C_R   0.506943 0.033595 0.851638 -0.097722
C15   C     C_R   0.507008 0.033596 0.648362 -0.097728
C16   C     C_R   0.492992 0.966404 0.351638 -0.097728
C17   C     C_R   0.994062 0.345482 0.379833 0.463756
C18   C     C_R   0.005938 0.654518 0.620167 0.463756
C19   C     C_R   0.005314 0.654521 0.879830 0.463743
C20   C     C_R   0.994686 0.345479 0.120170 0.463743
C21   C     C_R   0.494746 0.154524 0.120169 0.463739
C22   C     C_R   0.505254 0.845476 0.879830 0.463739
C23   C     C_R   0.505823 0.845481 0.620168 0.463756
C24   C     C_R   0.494177 0.154519 0.379832 0.463756
C25   C     C_R   0.991326 0.420162 0.343313 -0.106827
C26   C     C_R   0.008674 0.579837 0.656687 -0.106827
C27   C     C_R   0.008225 0.579841 0.843310 -0.106841
C28   C     C_R   0.991775 0.420159 0.156690 -0.106841
C29   C     C_R   0.491842 0.079843 0.156689 -0.106854
C30   C     C_R   0.508158 0.920157 0.843311 -0.106854
C31   C     C_R   0.508592 0.920161 0.656688 -0.106852
C32   C     C_R   0.491408 0.079839 0.343312 -0.106852
C33   C     C_R   0.996949 0.573482 0.396672 -0.209840
C34   C     C_R   0.003051 0.426518 0.603328 -0.209840
C35   C     C_R   0.003224 0.426513 0.896672 -0.209819
C36   C     C_R   0.996776 0.573487 0.103328 -0.209819
C37   C     C_R   0.496676 0.926512 0.103327 -0.209802
C38   C     C_R   0.503323 0.073488 0.896673 -0.209802
C39   C     C_R   0.503181 0.073486 0.603328 -0.209826
C40   C     C_R   0.496819 0.926514 0.396672 -0.209826
C41   C     C_R   0.998144 0.500549 0.434823 0.043556
C42   C     C_R   0.001856 0.499451 0.565177 0.043556
C43   C     C_R   0.001832 0.499448 0.934822 0.043555
C44   C     C_R   0.998168 0.500552 0.065178 0.043555
C45   C     C_R   0.498139 0.999448 0.065177 0.043553
C46   C     C_R   0.501861 0.000552 0.934822 0.043553
C47   C     C_R   0.501904 0.000552 0.565178 0.043553
C48   C     C_R   0.498096 0.999448 0.434822 0.043553
C49   C     C_R   0.997040 0.384743 0.425704 0.052243
C50   C     C_R   0.002960 0.615257 0.574296 0.052243
C51   C     C_R   0.002498 0.615258 0.925702 0.052230
C52   C     C_R   0.997502 0.384742 0.074298 0.052230
C53   C     C_R   0.497526 0.115262 0.074297 0.052226
C54   C     C_R   0.502474 0.884738 0.925703 0.052226
C55   C     C_R   0.502857 0.884744 0.574297 0.052246
C56   C     C_R   0.497143 0.115256 0.425703 0.052246
C57   C     C_R   0.999629 0.538997 0.481516 0.085708
C58   C     C_R   0.000371 0.461003 0.518484 0.085708
C59   C     C_R   0.000529 0.461002 0.981516 0.085707
C60   C     C_R   0.999471 0.538998 0.018484 0.085707
C61   C     C_R   0.499459 0.961000 0.018484 0.085698
C62   C     C_R   0.500541 0.039000 0.981516 0.085698
C63   C     C_R   0.500452 0.038998 0.518484 0.085710
C64   C     C_R   0.499548 0.961002 0.481516 0.085710
C65   C     C_R   0.999943 0.347096 0.507543 -0.212128
C66   C     C_R   0.000057 0.652904 0.492457 -0.212128
C67   C     C_R   0.999408 0.652905 0.007541 -0.212139
C68   C     C_R   0.000591 0.347095 0.992459 -0.212139
C69   C     C_R   0.500593 0.152912 0.992459 -0.212119
C70   C     C_R   0.499407 0.847088 0.007541 -0.212119
C71   C     C_R   0.499790 0.847097 0.492458 -0.212147
C72   C     C_R   0.500210 0.152903 0.507542 -0.212147
C73   C     C_R   0.998342 0.310279 0.462423 -0.143935
C74   C     C_R   0.001658 0.689721 0.537577 -0.143935
C75   C     C_R   0.000889 0.689721 0.962419 -0.143932
C76   C     C_R   0.999111 0.310279 0.037581 -0.143932
C77   C     C_R   0.499137 0.189729 0.037581 -0.143918
C78   C     C_R   0.500863 0.810271 0.962419 -0.143918
C79   C     C_R   0.501396 0.810281 0.537580 -0.143927
C80   C     C_R   0.498604 0.189719 0.462420 -0.143927
Cl1   Cl    Cl    0.992532 0.203185 0.366127 -0.653822
Cl2   Cl    Cl    0.007468 0.796815 0.633873 -0.653822
Cl3   Cl    Cl    0.006454 0.796827 0.866121 -0.653817
Cl4   Cl    Cl    0.993546 0.203173 0.133879 -0.653817
Cl5   Cl    Cl    0.493631 0.296832 0.133878 -0.653814
Cl6   Cl    Cl    0.506369 0.703167 0.866122 -0.653814
Cl7   Cl    Cl    0.507322 0.703180 0.633874 -0.653816
Cl8   Cl    Cl    0.492678 0.296820 0.366126 -0.653816

loop_
_geom_bond_atom_site_label_1
_geom_bond_atom_site_label_2
_ccdc_geom_bond_type
O13   V3    S    
C7    C10   S    
O14   V4    S    
C11   C27   A    
C60   C67   A    
C4    C13   S    
C44   C60   A    
C19   C27   A    
C20   C28   A    
C23   C31   A    
O4    C1    A    
C64   C71   A    
O9    C1    A    
C10   C34   A    
C9    C33   A    
C18   Cl2   S    
H6    C78   S    
O8    C5    A    
H16   C31   S    
O5    V1    S    
C14   C38   A    
C71   C79   A    
C13   C37   A    
C22   Cl6   S    
C43   C59   A    
C42   C58   A    
C15   C39   A    
H12   C27   S    
C45   C53   A    
C59   C60   A    
C68   C76   A    
C47   C55   A    
H5    C77   S    
H28   C68   S    
C58   C65   A    
C9    C25   A    
C23   Cl7   S    
C57   C66   A    
C39   C47   A    
H32   C72   S    
O1    C4    A    
H23   C40   S    
O2    C3    A    
C19   C51   A    
C62   C69   A    
C61   C70   A    
C6    C11   S    
C46   C62   A    
O5    C8    A    
C41   C49   A    
C63   C72   A    
H8    C80   S    
H17   C34   S    
C21   C29   A    
C20   C52   A    
O7    C6    A    
H3    C75   S    
C2    C15   S    
H15   C32   S    
C56   C80   A    
H21   C38   S    
C17   C25   A    
C16   C32   A    
O20   V2    S    
C20   Cl4   S    
H27   C67   S    
C44   C52   A    
H26   C66   S    
H14   C29   S    
C53   C77   A    
C12   C28   A    
H13   C30   S    
C51   C75   A    
H24   C39   S    
C37   C45   A    
H30   C70   S    
C49   C73   A    
C24   Cl8   S    
O17   V3    S    
H1    C73   S    
O18   V4    S    
C33   C41   A    
O19   V1    S    
H4    C76   S    
C18   C50   A    
C5    C12   S    
O3    V4    S    
C17   C49   A    
O11   C3    A    
H11   C28   S    
C69   C77   A    
C24   C56   A    
C11   C35   A    
O10   C2    A    
C22   C54   A    
C1    C16   S    
C21   C53   A    
C3    C14   S    
C38   C46   A    
H20   C35   S    
C15   C31   A    
O11   V2    S    
H10   C25   S    
O12   C4    A    
O6    V2    S    
C40   C48   A    
O4    V3    S    
H2    C74   S    
O9    V1    S    
C41   C57   A    
C14   C30   A    
C13   C29   A    
C36   C44   A    
C48   C56   A    
C57   C58   A    
C18   C26   A    
O13   C5    A    
C50   C74   A    
C59   C68   A    
C67   C75   A    
O3    C2    A    
C47   C63   A    
O12   V1    S    
C65   C73   A    
O8    V1    S    
H29   C69   S    
C63   C64   A    
O15   C7    A    
H7    C79   S    
O16   C8    A    
C43   C51   A    
H19   C36   S    
C42   C50   A    
C23   C55   A    
H18   C33   S    
C45   C61   A    
O15   V4    S    
C72   C80   A    
O1    V3    S    
O16   V3    S    
O14   C6    A    
C24   C32   A    
C19   Cl3   S    
C61   C62   A    
C55   C79   A    
H22   C37   S    
C17   Cl1   S    
C46   C54   A    
C12   C36   A    
C34   C42   A    
O6    C7    A    
O10   V2    S    
H9    C26   S    
C21   Cl5   S    
C52   C76   A    
C54   C78   A    
H25   C65   S    
C16   C40   A    
C70   C78   A    
C22   C30   A    
O2    V4    S    
O7    V2    S    
C35   C43   A    
C66   C74   A    
H31   C71   S    
C10   C26   A    
C8    C9    S    
C48   C64   A    
