data_mof_unit_26544.cif
_audit_creation_date              2012-10-26T19:02:57-0400
_audit_creation_method            fapswitch 2.2
_symmetry_space_group_name_H-M    P1
_symmetry_Int_Tables_number       1
_space_group_crystal_system       triclinic
_cell_length_a                    14.969207
_cell_length_b                    10.985985
_cell_length_c                    9.875564
_cell_angle_alpha                 111.912644
_cell_angle_beta                  98.322846
_cell_angle_gamma                 91.1769
_cell_volume                      1485.9257112

loop_
_atom_site_label
_atom_site_type_symbol
_atom_type_description
_atom_site_fract_x
_atom_site_fract_y
_atom_site_fract_z
_atom_type_partial_charge
C1    C     C_R   0.491456 0.252894 0.439385 0.552272
C2    C     C_2   0.496841 0.484504 0.918363 0.056543
C3    C     C_R   0.329087 0.498329 0.500973 0.547002
C4    C     C_R   0.671058 0.498768 0.498636 0.545308
C5    C     C_R   0.824126 0.614646 0.587306 -0.024170
C6    C     C_R   0.184643 0.369072 0.472655 -0.027283
C7    C     C_R   0.768536 0.499204 0.498902 0.009874
C8    C     C_R   0.232551 0.491415 0.505526 0.024194
C9    C     C_R   0.805500 0.380697 0.424452 -0.033870
C10   C     C_R   0.191558 0.609649 0.560909 -0.023358
C11   C     C_R   0.899498 0.370874 0.459014 0.010936
C12   C     C_R   0.511266 0.746637 0.560187 0.567457
C13   C     C_R   0.105428 0.605857 0.601504 0.019360
C14   C     C_R   0.956411 0.487892 0.537232 -0.029379
C15   C     C_R   0.050491 0.485519 0.537241 -0.025969
C16   C     C_R   0.919381 0.608341 0.611583 0.038985
C17   C     C_R   0.089132 0.364815 0.467915 0.020580
C18   C     C_R   0.938975 0.248678 0.416579 0.037030
C19   C     C_R   0.072904 0.716067 0.706432 0.014749
C20   C     C_3   0.781343 0.745529 0.634243 -0.356370
C21   C     C_3   0.237109 0.249709 0.460676 -0.384624
C22   C     C_3   0.745895 0.275781 0.293160 -0.389597
C23   C     C_R   0.031799 0.245287 0.405877 0.160680
C24   C     C_3   0.237093 0.735018 0.562250 -0.402631
C25   C     C_3   0.886328 0.122381 0.397907 -0.382052
C26   C     C_3   0.137765 0.823181 0.826319 -0.409885
C27   C     C_3   0.077458 0.017526 0.352726 -0.323473
C28   C     C_3   0.928635 0.789031 0.950035 -0.316626
C29   C     C_3   0.495675 0.039279 0.824445 -0.318795
C30   C     C_3   0.388318 0.048109 0.157474 -0.301382
C31   C     C_3   0.687130 0.644753 0.986664 -0.285237
C32   C     C_3   0.339475 0.285096 0.990740 -0.276106
C33   C     C_R   0.979217 0.716682 0.712202 0.154540
C34   C     C_2   0.483481 0.110633 0.405646 0.115478
C35   C     C_2   0.530886 0.886924 0.593871 0.103445
C36   C     C_2   0.531943 0.067147 0.501337 -0.138638
C37   C     C_2   0.521674 0.928546 0.481131 -0.146610
C38   C     C_2   0.513486 0.501800 0.080000 0.040814
Cu1   Cu    Cu3+1 0.515770 0.521810 0.644910 0.927471
Cu2   Cu    Cu3+1 0.484230 0.478190 0.355090 0.938013
H1    H     H_    0.498895 0.858505 0.368832 0.170962
H2    H     H_    0.236165 0.185219 0.343585 0.127556
H3    H     H_    0.785176 0.202437 0.220049 0.129068
H4    H     H_    0.695464 0.225858 0.331413 0.131928
H5    H     H_    0.709583 0.321435 0.220354 0.149191
H6    H     H_    0.190416 0.814405 0.577646 0.123783
H7    H     H_    0.297985 0.769536 0.649637 0.130872
H8    H     H_    0.258609 0.715772 0.453566 0.138265
H9    H     H_    0.819851 0.139510 0.435459 0.123902
H10   H     H_    0.877006 0.051919 0.281085 0.135251
H11   H     H_    0.923079 0.076580 0.469963 0.124482
H12   H     H_    0.577928 0.135076 0.596272 0.125671
H13   H     H_    0.208392 0.795101 0.834017 0.135431
H14   H     H_    0.135021 0.916309 0.806797 0.108659
H15   H     H_    0.120134 0.841080 0.936999 0.134796
H16   H     H_    0.093973 0.132903 0.224474 0.245365
H17   H     H_    0.145116 0.983024 0.331062 0.124747
H18   H     H_    0.025839 0.934511 0.288066 0.143675
H19   H     H_    0.075706 0.046094 0.472707 0.141542
H20   H     H_    0.978840 0.912849 0.856951 0.250134
H21   H     H_    0.896367 0.871230 0.026370 0.136422
H22   H     H_    0.992739 0.773582 0.011387 0.139587
H23   H     H_    0.448651 0.404861 0.842558 0.118624
H24   H     H_    0.882051 0.698492 0.911441 0.149536
H25   H     H_    0.620264 0.034744 0.754348 0.241459
H26   H     H_    0.444771 0.966318 0.828796 0.150481
H27   H     H_    0.527913 0.101618 0.938981 0.136138
H28   H     H_    0.461465 0.103528 0.772317 0.137606
H29   H     H_    0.365211 0.984700 0.325523 0.241051
H30   H     H_    0.347362 0.960475 0.072229 0.125087
H31   H     H_    0.448629 0.066835 0.112907 0.165891
H32   H     H_    0.345914 0.132832 0.181919 0.152139
H33   H     H_    0.582210 0.746029 0.933660 0.285943
H34   H     H_    0.575760 0.555176 0.149071 0.144258
H35   H     H_    0.723101 0.732095 0.079738 0.110858
H36   H     H_    0.717542 0.631424 0.886736 0.166862
H37   H     H_    0.696647 0.556847 0.015494 0.134929
H38   H     H_    0.344036 0.486896 0.027249 0.233187
H39   H     H_    0.277390 0.261478 0.028354 0.136240
H40   H     H_    0.391941 0.220290 0.007277 0.140251
H41   H     H_    0.323389 0.265654 0.870755 0.092616
H42   H     H_    0.716120 0.740721 0.562194 0.117863
H43   H     H_    0.768323 0.775877 0.749566 0.159738
H44   H     H_    0.825010 0.822750 0.622588 0.144587
H45   H     H_    0.309017 0.275834 0.513155 0.135392
H46   H     H_    0.209605 0.196301 0.523004 0.135391
N1    N     N_2   0.460520 0.445420 0.137370 -0.144985
N2    N     N_2   0.539480 0.554580 0.862630 -0.141671
N3    N     N_2   0.060538 0.126638 0.306107 -0.523271
N4    N     N_2   0.946174 0.820724 0.826032 -0.532506
N5    N     N_2   0.564479 0.972803 0.742457 -0.518448
N6    N     N_2   0.416513 0.022396 0.289423 -0.538179
N7    N     N_2   0.592014 0.665246 0.961479 -0.430199
N8    N     N_2   0.370118 0.421968 0.073155 -0.381676
O1    O     O_R   0.508410 0.332340 0.577400 -0.528124
O2    O     O_R   0.491590 0.667660 0.422600 -0.520953
O3    O     O_R   0.481780 0.295500 0.332650 -0.487874
O4    O     O_R   0.518220 0.704500 0.667350 -0.479051
O5    O     O_R   0.383570 0.518390 0.622380 -0.510791
O6    O     O_R   0.616430 0.481610 0.377620 -0.522811
O7    O     O_R   0.356940 0.481550 0.377630 -0.461407
O8    O     O_R   0.643060 0.518450 0.622370 -0.494146

loop_
_geom_bond_atom_site_label_1
_geom_bond_atom_site_label_2
_ccdc_geom_bond_type
C32   N8    S    
C11   C18   A    
C20   H42   S    
H33   N7    S    
C26   H15   S    
C30   H31   S    
C5    C20   S    
C32   H41   S    
C17   C23   A    
Cu2   N1    S    
C36   C37   S    
C35   C37   D    
C11   C14   A    
C9    C22   S    
N1    N8    S    
C15   C17   A    
C19   C26   S    
C25   H10   S    
C5    C16   A    
Cu2   O7    S    
C29   H27   S    
C31   H35   S    
C22   H4    S    
C4    O8    A    
C23   N3    S    
C2    N2    D    
H29   N6    S    
C12   O4    A    
C36   H12   S    
C28   H21   S    
C3    O7    A    
C18   C25   S    
Cu1   N2    S    
Cu2   O2    S    
C4    C7    S    
C26   H14   S    
C30   H30   S    
C1    C34   S    
C31   H37   S    
C34   N6    S    
C21   H45   S    
C13   C19   A    
C18   C23   A    
C24   H8    S    
C30   N6    S    
C3    C8    S    
C27   H17   S    
C1    O3    A    
Cu1   Cu2   S    
C5    C7    A    
Cu1   O4    S    
C6    C8    A    
C10   C24   S    
C31   N7    S    
C6    C21   S    
C27   H18   S    
C21   H2    S    
C25   H11   S    
Cu2   O6    S    
C16   C33   A    
C32   H40   S    
C29   H28   S    
C2    C38   S    
Cu1   O5    S    
C22   H3    S    
C1    O1    A    
C7    C9    A    
C12   C35   S    
C9    C11   A    
Cu1   O1    S    
C28   H24   S    
H16   N3    S    
C13   C15   A    
C19   C33   A    
C14   C16   A    
C26   H13   S    
Cu2   O3    S    
C2    H23   S    
Cu1   O8    S    
C38   H34   S    
H25   N5    S    
C6    C17   A    
N2    N7    S    
C24   H7    S    
C10   C13   A    
C21   H46   S    
C30   H32   S    
H20   N4    S    
C4    O6    A    
C38   N1    D    
C24   H6    S    
C20   H44   S    
C27   H19   S    
C33   N4    S    
C32   H39   S    
C31   H36   S    
H38   N8    S    
C27   N3    S    
C34   C36   D    
C37   H1    S    
C25   H9    S    
C29   H26   S    
C3    O5    A    
C22   H5    S    
C8    C10   A    
C20   H43   S    
C14   C15   A    
C12   O2    A    
C28   N4    S    
C35   N5    S    
C29   N5    S    
C28   H22   S    
