data_mof_unit_54235.cif
_audit_creation_date              2012-10-26T21:24:52-0400
_audit_creation_method            fapswitch 2.2
_symmetry_space_group_name_H-M    P1
_symmetry_Int_Tables_number       1
_space_group_crystal_system       triclinic
_cell_length_a                    9.6043
_cell_length_b                    10.81504
_cell_length_c                    15.36651
_cell_angle_alpha                 88.99627
_cell_angle_beta                  74.854699
_cell_angle_gamma                 89.713605
_cell_volume                      1540.45698414

loop_
_atom_site_label
_atom_site_type_symbol
_atom_type_description
_atom_site_fract_x
_atom_site_fract_y
_atom_site_fract_z
_atom_type_partial_charge
C1    C     C_R   0.999427 0.262494 0.501750 0.548500
C2    C     C_R   0.228124 0.528229 0.040515 0.047357
C3    C     C_R   0.322970 0.481302 0.090158 0.037760
C4    C     C_R   0.918690 0.498164 0.672335 0.539605
C5    C     C_R   0.087202 0.563505 0.084648 -0.131035
C6    C     C_R   0.039748 0.555634 0.178021 -0.122121
C7    C     C_R   0.267475 0.465229 0.184184 -0.130811
C8    C     C_R   0.121313 0.062909 0.508894 0.031774
C9    C     C_R   0.995703 0.129128 0.510546 0.006560
C10   C     C_R   0.864718 0.064553 0.524229 -0.139785
C11   C     C_R   0.864631 0.935649 0.523715 -0.154273
C12   C     C_R   0.670017 0.472234 0.906245 0.037951
C13   C     C_R   0.995483 0.870572 0.509622 0.005345
C14   C     C_R   0.121212 0.935651 0.508320 0.031790
C15   C     C_3   0.266523 0.930621 0.442779 -0.263147
C16   C     C_R   0.999214 0.737498 0.501226 0.542992
C17   C     C_3   0.266774 0.070920 0.443630 -0.247258
C18   C     C_R   0.592400 0.586432 0.451218 0.125329
C19   C     C_R   0.554661 0.420102 0.552788 0.058364
C20   C     C_R   0.406118 0.417985 0.552979 0.111824
C21   C     C_R   0.444300 0.590417 0.454668 0.106875
C22   C     C_3   0.472457 0.622857 0.357059 -0.225992
C23   C     C_R   0.766997 0.428773 0.955343 0.050258
C24   C     C_3   0.632415 0.607285 0.350556 0.000440
C25   C     C_R   0.081652 0.500677 0.327619 0.546566
C26   C     C_R   0.872898 0.485112 0.771166 0.000200
C27   C     C_R   0.127960 0.504539 0.228385 -0.000245
C28   C     C_R   0.914711 0.416130 0.912696 -0.131976
C29   C     C_R   0.967288 0.443256 0.820911 -0.136795
C30   C     C_R   0.727263 0.503840 0.814730 -0.122186
C31   C     C_2   0.314380 0.323409 0.611949 0.208579
C32   C     C_2   0.691430 0.496146 0.293978 0.232357
C33   C     C_2   0.718975 0.723459 0.321610 0.168463
C34   C     C_R   0.520016 0.483699 0.950215 0.039362
C35   C     C_R   0.470415 0.457572 0.044599 0.037430
C36   C     C_R   0.570770 0.411790 0.090310 -0.132462
C37   C     C_R   0.715802 0.397687 0.046322 -0.128507
C38   C     C_R   0.417885 0.520130 0.902874 -0.125391
C39   C     C_R   0.275368 0.542766 0.947469 -0.130927
Cu1   Cu    Cu3+1 0.140670 0.499980 0.500000 0.932664
Cu2   Cu    Cu3+1 0.859330 0.500020 0.500000 0.981674
H1    H     H_    0.788894 0.362956 0.084203 0.126859
H2    H     H_    0.331049 0.424968 0.225429 0.113360
H3    H     H_    0.936754 0.594295 0.210820 0.145043
H4    H     H_    0.202101 0.574617 0.908781 0.114280
H5    H     H_    0.660813 0.543016 0.774881 0.121926
H6    H     H_    0.541298 0.385553 0.160553 0.114585
H7    H     H_    0.443730 0.532597 0.830823 0.107636
H8    H     H_    0.763574 0.113056 0.531057 0.159611
H9    H     H_    0.199051 0.329394 0.631430 0.173572
H10   H     H_    0.438802 0.719243 0.346705 0.133345
H11   H     H_    0.716570 0.505144 0.221223 0.101103
H12   H     H_    0.015691 0.602403 0.047176 0.127721
H13   H     H_    0.785912 0.759617 0.362194 0.134791
H14   H     H_    0.989114 0.382775 0.950052 0.121751
H15   H     H_    0.080448 0.428396 0.788608 0.125540
H16   H     H_    0.763517 0.887802 0.530222 0.138158
H17   H     H_    0.348977 0.888348 0.473157 0.147737
H18   H     H_    0.262633 0.892573 0.376689 0.140488
H19   H     H_    0.349171 0.109482 0.474674 0.182864
H20   H     H_    0.263609 0.114318 0.378011 0.147089
H21   H     H_    0.596252 0.355455 0.594365 0.160171
H22   H     H_    0.430344 0.554004 0.317963 0.149534
N1    N     N_R   0.648210 0.500930 0.499430 -0.228430
N2    N     N_R   0.352300 0.500890 0.499430 -0.256214
O1    O     O_R   0.118810 0.319640 0.500000 -0.523246
O2    O     O_2   0.705350 0.395410 0.327903 -0.481389
O3    O     O_2   0.717716 0.776253 0.250924 -0.519094
O4    O     O_R   0.881230 0.319680 0.499990 -0.484735
O5    O     O_R   0.055580 0.499970 0.629840 -0.531732
O6    O     O_R   0.818000 0.500010 0.629830 -0.514499
O7    O     O_R   0.118770 0.680320 0.500010 -0.492743
O8    O     O_R   0.881190 0.680360 0.500000 -0.528299
O9    O     O_R   0.182000 0.499990 0.370170 -0.516507
O10   O     O_R   0.944420 0.500030 0.370160 -0.460076
O11   O     O_2   0.368583 0.235135 0.641531 -0.557311

loop_
_geom_bond_atom_site_label_1
_geom_bond_atom_site_label_2
_ccdc_geom_bond_type
C18   C21   A    
C19   C20   A    
C16   O7    A    
C4    O5    A    
C12   C23   A    
Cu1   O5    S    
C18   C24   S    
C5    H12   S    
C28   C29   A    
C25   O9    A    
C3    C7    A    
C38   C39   A    
C19   H21   S    
C7    C27   A    
C36   H6    S    
C34   C35   A    
C37   H1    S    
C32   H11   S    
C13   C14   A    
C17   H20   S    
C22   H22   S    
C2    C39   A    
C35   C36   A    
C8    C9    A    
C7    H2    S    
C9    C10   A    
C38   H7    S    
Cu2   O6    S    
C12   C30   A    
Cu1   O1    S    
C21   C22   S    
C28   H14   S    
C16   O8    A    
C20   N2    A    
C1    C9    S    
C23   C37   A    
C1    O4    A    
C25   O10   A    
C24   C32   S    
Cu2   O10   S    
C6    C27   A    
C3    C35   A    
C19   N1    A    
C1    O1    A    
C23   C28   A    
C32   O2    D    
Cu1   Cu2   S    
C26   C30   A    
Cu1   N2    S    
C15   H17   S    
C22   C24   S    
C2    C5    A    
C31   H9    S    
C12   C34   A    
Cu2   O4    S    
C33   H13   S    
C15   C17   S    
C36   C37   A    
C8    C14   A    
Cu1   O7    S    
C21   N2    A    
C34   C38   A    
C15   H18   S    
C30   H5    S    
C8    C17   S    
C4    C26   S    
C29   H15   S    
C25   C27   S    
C24   C33   S    
C39   H4    S    
C2    C3    A    
C11   C13   A    
C18   N1    A    
C31   O11   D    
C5    C6    A    
Cu1   O9    S    
C10   C11   A    
C17   H19   S    
Cu2   O8    S    
C26   C29   A    
C13   C16   S    
C14   C15   S    
C6    H3    S    
Cu2   N1    S    
C11   H16   S    
C10   H8    S    
C4    O6    A    
C33   O3    D    
C22   H10   S    
C20   C31   S    
