data_mof_unit_23494.cif
_audit_creation_date              2012-12-11T15:50:32-0500
_audit_creation_method            fapswitch 2.2
_symmetry_space_group_name_H-M    P1
_symmetry_Int_Tables_number       1
_space_group_crystal_system       triclinic
_cell_length_a                    19.574612
_cell_length_b                    11.159276
_cell_length_c                    18.697193
_cell_angle_alpha                 89.837487
_cell_angle_beta                  91.15914
_cell_angle_gamma                 89.615634
_cell_volume                      4083.24105841

loop_
_atom_site_label
_atom_site_type_symbol
_atom_type_description
_atom_site_fract_x
_atom_site_fract_y
_atom_site_fract_z
_atom_type_partial_charge
C1    C     C_R   0.276969 0.031485 0.856981 0.547114
C2    C     C_R   0.767800 0.548504 0.933697 0.010066
C3    C     C_R   0.208747 0.495366 0.360157 0.564644
C4    C     C_R   0.471059 0.825634 0.647644 0.582333
C5    C     C_R   0.529104 0.826010 0.352386 0.581756
C6    C     C_R   0.971056 0.325633 0.647643 0.582632
C7    C     C_R   0.029104 0.326009 0.352386 0.581822
C8    C     C_R   0.258167 0.629626 0.647305 0.565966
C9    C     C_R   0.741831 0.629872 0.352873 0.564938
C10   C     C_R   0.758170 0.129635 0.647302 0.566116
C11   C     C_R   0.241833 0.129868 0.352872 0.564938
C12   C     C_3   0.482899 0.940438 0.026376 -0.117097
C13   C     C_R   0.719011 0.012018 0.061984 0.009756
C14   C     C_3   0.536177 0.911057 0.968627 -0.126817
C15   C     C_3   0.982877 0.440431 0.026381 -0.117090
C16   C     C_3   0.036163 0.411094 0.968631 -0.126768
C17   C     C_3   0.430967 0.856684 0.988524 -0.115999
C18   C     C_3   0.562584 0.803351 0.013516 -0.117278
C19   C     C_3   0.930963 0.356650 0.988525 -0.116029
C20   C     C_3   0.062591 0.303396 0.013515 -0.117288
C21   C     C_3   0.485055 0.827229 0.932520 0.055031
C22   C     C_3   0.508659 0.831959 0.070048 0.061659
C23   C     C_3   0.985057 0.327236 0.932519 0.055015
C24   C     C_R   0.267801 0.048504 0.933697 0.010075
C25   C     C_3   0.008660 0.331961 0.070048 0.061655
C26   C     C_R   0.273515 0.460567 0.024743 0.020073
C27   C     C_R   0.717444 0.487172 0.971081 0.023113
C28   C     C_R   0.773510 0.960537 0.024737 0.020085
C29   C     C_R   0.217445 0.987170 0.971081 0.023106
C30   C     C_R   0.285262 0.490876 0.953810 0.019654
C31   C     C_R   0.710792 0.501721 0.044204 0.019458
C32   C     C_R   0.785266 0.990865 0.953808 0.019664
C33   C     C_R   0.710327 0.998235 0.139562 0.550252
C34   C     C_R   0.210791 0.001724 0.044203 0.019456
C35   C     C_R   0.180208 0.602822 0.950106 -0.161477
C36   C     C_R   0.816559 0.608861 0.048386 -0.160654
C37   C     C_R   0.680191 0.102755 0.950095 -0.161525
C38   C     C_R   0.316561 0.108856 0.048387 -0.160666
C39   C     C_R   0.169067 0.574141 0.021530 -0.166646
C40   C     C_R   0.820884 0.600934 0.974460 -0.172242
C41   C     C_R   0.669039 0.074050 0.021514 -0.166617
C42   C     C_R   0.320885 0.100934 0.974461 -0.172241
C43   C     C_3   0.348148 0.453920 0.042135 -0.260539
C44   C     C_R   0.776969 0.531485 0.856981 0.547045
C45   C     C_3   0.642250 0.480717 0.958719 -0.274740
C46   C     C_3   0.848144 0.953934 0.042144 -0.260524
C47   C     C_3   0.142251 0.980732 0.958716 -0.274741
C48   C     C_3   0.360817 0.487634 0.964509 -0.273668
C49   C     C_3   0.634800 0.495295 0.039267 -0.270740
C50   C     C_3   0.860822 0.987667 0.964523 -0.273656
C51   C     C_3   0.134799 0.995319 0.039263 -0.270732
C52   C     C_R   0.242062 0.571351 0.916947 0.024076
C53   C     C_R   0.756398 0.574231 0.082905 0.026012
C54   C     C_R   0.742059 0.071326 0.916943 0.024025
C55   C     C_R   0.210341 0.498271 0.139566 0.550266
C56   C     C_R   0.256399 0.074229 0.082905 0.026002
C57   C     C_R   0.495462 0.846641 0.422043 -0.000586
C58   C     C_R   0.498877 0.843844 0.575008 -0.012303
C59   C     C_R   0.995490 0.346628 0.422057 -0.000604
C60   C     C_R   0.998900 0.343853 0.575021 -0.012101
C61   C     C_R   0.466871 0.820787 0.856697 0.538797
C62   C     C_R   0.530155 0.822318 0.144991 0.533481
C63   C     C_R   0.966873 0.320788 0.856697 0.538923
C64   C     C_R   0.030155 0.322318 0.144991 0.533519
C65   C     C_R   0.476933 0.748887 0.462072 -0.081694
C66   C     C_3   0.510562 0.719683 0.976544 -0.125430
C67   C     C_R   0.497152 0.745749 0.531720 -0.054438
C68   C     C_R   0.977040 0.248868 0.462113 -0.081625
C69   C     C_R   0.997321 0.245757 0.531742 -0.054723
C70   C     C_R   0.500458 0.958050 0.538862 0.194700
C71   C     C_R   0.498936 0.959798 0.459898 0.198981
C72   C     C_R   0.000449 0.458057 0.538868 0.194737
C73   C     C_R   0.998936 0.459793 0.459903 0.198961
C74   C     C_3   0.481081 0.615514 0.458294 -0.068267
C75   C     C_3   0.513727 0.617547 0.535484 -0.051161
C76   C     C_3   0.981105 0.115505 0.458329 -0.068078
C77   C     C_3   0.457223 0.749202 0.033539 -0.127963
C78   C     C_3   0.013764 0.117509 0.535517 -0.051161
C79   C     C_R   0.215291 0.504690 0.437039 -0.067838
C80   C     C_R   0.784858 0.503577 0.563183 -0.065827
C81   C     C_R   0.715302 0.004717 0.437035 -0.067910
C82   C     C_R   0.284863 0.003548 0.563179 -0.065800
C83   C     C_R   0.169542 0.574649 0.473467 0.030621
C84   C     C_R   0.833102 0.564559 0.525046 0.001325
C85   C     C_R   0.669558 0.074697 0.473457 0.030595
C86   C     C_R   0.333113 0.064508 0.525038 0.001194
C87   C     C_R   0.183818 0.603139 0.544506 0.079078
C88   C     C_3   0.010586 0.219701 0.976538 -0.125445
C89   C     C_R   0.818871 0.593559 0.453591 0.068403
C90   C     C_R   0.683839 0.103193 0.544492 0.080057
C91   C     C_R   0.318885 0.093511 0.453583 0.068608
C92   C     C_R   0.285027 0.483333 0.545435 0.153207
C93   C     C_R   0.713075 0.489593 0.456317 0.154521
C94   C     C_R   0.785046 0.983384 0.545423 0.153041
C95   C     C_R   0.213085 0.989552 0.456306 0.154474
C96   C     C_R   0.275434 0.471163 0.471755 -0.197288
C97   C     C_R   0.722867 0.479551 0.529953 -0.188564
C98   C     C_R   0.775452 0.971216 0.471744 -0.197350
C99   C     C_3   0.957241 0.249177 0.033535 -0.127966
C100  C     C_R   0.222876 0.979502 0.529943 -0.188585
C101  C     C_3   0.161093 0.703486 0.453898 -0.147740
C102  C     C_3   0.846673 0.691940 0.543040 -0.143727
C103  C     C_3   0.661125 0.203538 0.453882 -0.147901
C104  C     C_3   0.346706 0.191878 0.543030 -0.143753
C105  C     C_3   0.182591 0.732092 0.527437 -0.224331
C106  C     C_3   0.824541 0.722128 0.469949 -0.214204
C107  C     C_3   0.682627 0.232145 0.527421 -0.224193
C108  C     C_3   0.324576 0.222076 0.469940 -0.214051
C109  C     C_R   0.260441 0.635685 0.851083 0.535664
C110  C     C_R   0.219036 0.512086 0.061995 0.009780
C111  C     C_R   0.739724 0.635232 0.149692 0.532278
C112  C     C_R   0.760441 0.135684 0.851084 0.535578
C113  C     C_R   0.239724 0.135232 0.149692 0.532262
C114  C     C_R   0.238889 0.556344 0.583456 0.023273
C115  C     C_R   0.761007 0.554664 0.416394 0.014991
C116  C     C_R   0.738902 0.056377 0.583445 0.023419
C117  C     C_R   0.261013 0.054640 0.416387 0.014989
C118  C     C_R   0.291434 0.995369 0.640124 0.561346
C119  C     C_R   0.708748 0.995368 0.360157 0.564715
C120  C     C_R   0.791434 0.495373 0.640123 0.561187
Cr1   Cr    Cr6+3 0.229640 0.835880 0.747370 1.020498
Cr2   Cr    Cr6+3 0.614230 0.677220 0.250660 1.096850
Cr3   Cr    Cr6+3 0.885770 0.177220 0.749340 1.103145
Cr4   Cr    Cr6+3 0.114230 0.177220 0.250660 1.096862
Cr5   Cr    Cr6+3 0.770360 0.835880 0.252630 1.012267
Cr6   Cr    Cr6+3 0.729640 0.335880 0.747370 1.020805
Cr7   Cr    Cr6+3 0.270360 0.335880 0.252630 1.012344
Cr8   Cr    Cr6+3 0.387390 0.989720 0.750850 1.097489
Cr9   Cr    Cr6+3 0.612610 0.989720 0.249150 1.093808
Cr10  Cr    Cr6+3 0.887390 0.489720 0.750850 1.097967
Cr11  Cr    Cr6+3 0.112610 0.489720 0.249150 1.093976
Cr12  Cr    Cr6+3 0.385770 0.677220 0.749340 1.103190
H1    H     H_    0.376295 0.874928 0.976050 0.121873
H2    H     H_    0.569371 0.610792 0.543739 0.154948
H3    H     H_    0.928293 0.083334 0.452549 0.162165
H4    H     H_    0.069398 0.110588 0.543756 0.155028
H5    H     H_    0.318318 0.447253 0.439480 0.179734
H6    H     H_    0.679487 0.462551 0.562982 0.183670
H7    H     H_    0.818337 0.947322 0.439467 0.179774
H8    H     H_    0.179496 0.962487 0.562969 0.183630
H9    H     H_    0.107859 0.728671 0.442598 0.300508
H10   H     H_    0.900697 0.709804 0.552835 0.297949
H11   H     H_    0.607893 0.228748 0.442580 0.300487
H12   H     H_    0.617466 0.783986 0.024923 0.106680
H13   H     H_    0.400732 0.209705 0.552833 0.297930
H14   H     H_    0.198089 0.737755 0.414386 0.164759
H15   H     H_    0.811903 0.732551 0.582781 0.178590
H16   H     H_    0.698126 0.237784 0.414366 0.164730
H17   H     H_    0.311943 0.232512 0.582766 0.178637
H18   H     H_    0.235976 0.765276 0.529239 0.094614
H19   H     H_    0.771950 0.759494 0.469689 0.094988
H20   H     H_    0.736015 0.265319 0.529225 0.094343
H21   H     H_    0.271991 0.259452 0.469685 0.094900
H22   H     H_    0.145967 0.781756 0.560145 0.243866
H23   H     H_    0.876286 0.374866 0.976053 0.121857
H24   H     H_    0.860755 0.769283 0.435756 0.243847
H25   H     H_    0.646003 0.281813 0.560128 0.244043
H26   H     H_    0.360789 0.269224 0.435744 0.243983
H27   H     H_    0.471531 0.030403 0.048493 0.109493
H28   H     H_    0.566279 0.975345 0.937378 0.120821
H29   H     H_    0.971491 0.530385 0.048504 0.109528
H30   H     H_    0.066253 0.475418 0.937395 0.120921
H31   H     H_    0.519099 0.628748 0.954868 0.120590
H32   H     H_    0.425019 0.686454 0.063439 0.113913
H33   H     H_    0.019133 0.128774 0.954856 0.120602
H34   H     H_    0.117477 0.284057 0.024921 0.106683
H35   H     H_    0.925056 0.186399 0.063434 0.113924
H36   H     H_    0.142156 0.658690 0.923269 0.138948
H37   H     H_    0.857483 0.654237 0.076830 0.136758
H38   H     H_    0.642137 0.158610 0.923254 0.138874
H39   H     H_    0.357486 0.154228 0.076832 0.136730
H40   H     H_    0.865250 0.861537 0.055584 0.140306
H41   H     H_    0.126083 0.891267 0.938959 0.146217
H42   H     H_    0.365237 0.361518 0.055577 0.140311
H43   H     H_    0.626089 0.391249 0.938961 0.146221
H44   H     H_    0.364137 0.522490 0.081673 0.148128
H45   H     H_    0.006949 0.075716 0.412965 0.263301
H46   H     H_    0.623142 0.557988 0.926433 0.138225
H47   H     H_    0.864109 0.022512 0.081691 0.148155
H48   H     H_    0.123152 0.058004 0.926425 0.138238
H49   H     H_    0.384095 0.577103 0.957575 0.152123
H50   H     H_    0.609322 0.579623 0.055101 0.161492
H51   H     H_    0.884083 0.077154 0.957598 0.152113
H52   H     H_    0.109329 0.079659 0.055092 0.161496
H53   H     H_    0.384972 0.414211 0.933694 0.144501
H54   H     H_    0.615102 0.413456 0.065637 0.147580
H55   H     H_    0.884998 0.914263 0.933708 0.144502
H56   H     H_    0.992229 0.064747 0.578940 0.264450
H57   H     H_    0.115090 0.913489 0.065634 0.147576
H58   H     H_    0.589416 0.102587 0.687143 0.372217
H59   H     H_    0.418334 0.131145 0.314735 0.370320
H60   H     H_    0.090071 0.603868 0.686454 0.372492
H61   H     H_    0.918086 0.631432 0.314967 0.370401
H62   H     H_    0.355122 0.662655 0.529131 0.299988
H63   H     H_    0.645838 0.675940 0.468335 0.297889
H64   H     H_    0.855132 0.162736 0.529147 0.299945
H65   H     H_    0.145841 0.175882 0.468326 0.297927
H66   H     H_    0.122890 0.607235 0.045872 0.139888
H67   H     H_    0.506949 0.575763 0.412934 0.263327
H68   H     H_    0.865752 0.637544 0.949682 0.145009
H69   H     H_    0.622852 0.107113 0.045852 0.139867
H70   H     H_    0.365753 0.137546 0.949683 0.144997
H71   H     H_    0.492219 0.564676 0.578880 0.264506
H72   H     H_    0.428288 0.583230 0.452519 0.162195
O1    O     O_R   0.214300 0.709080 0.827500 -0.532346
O2    O     O_R   0.543340 0.717710 0.330180 -0.467199
O3    O     O_R   0.956660 0.217710 0.669820 -0.467909
O4    O     O_R   0.043340 0.217710 0.330180 -0.467212
O5    O     O_R   0.320590 0.625770 0.672930 -0.388492
O6    O     O_R   0.679410 0.625770 0.327070 -0.388236
O7    O     O_R   0.820590 0.125770 0.672930 -0.388699
O8    O     O_R   0.179410 0.125770 0.327070 -0.388277
O9    O     O_3   0.334270 0.834280 0.749190 -0.322210
O10   O     O_3   0.665730 0.834280 0.250810 -0.334465
O11   O     O_3   0.834270 0.334280 0.749190 -0.322367
O12   O     O_R   0.785700 0.709080 0.172500 -0.536121
O13   O     O_3   0.165730 0.334280 0.250810 -0.334500
O14   O     O_R   0.236190 0.958390 0.823150 -0.496065
O15   O     O_R   0.763810 0.958390 0.176850 -0.494726
O16   O     O_R   0.736190 0.458390 0.823150 -0.496088
O17   O     O_R   0.263810 0.458390 0.176850 -0.494750
O18   O     O_R   0.332090 0.075280 0.831290 -0.515353
O19   O     O_R   0.667910 0.075280 0.168710 -0.505719
O20   O     O_R   0.832090 0.575280 0.831290 -0.515365
O21   O     O_R   0.167910 0.575280 0.168710 -0.505752
O22   O     O_R   0.446280 0.918040 0.826620 -0.508313
O23   O     O_R   0.714300 0.209080 0.827500 -0.532367
O24   O     O_R   0.553720 0.918040 0.173380 -0.521561
O25   O     O_R   0.946280 0.418040 0.826620 -0.508089
O26   O     O_R   0.053720 0.418040 0.173380 -0.521478
O27   O     O_R   0.457080 0.716270 0.831760 -0.529612
O28   O     O_R   0.542920 0.716270 0.168240 -0.526941
O29   O     O_R   0.957080 0.216270 0.831760 -0.529628
O30   O     O_R   0.042920 0.216270 0.168240 -0.526950
O31   O     O_R   0.320980 0.624440 0.823040 -0.501591
O32   O     O_R   0.679020 0.624440 0.176960 -0.505356
O33   O     O_R   0.820980 0.124440 0.823040 -0.501598
O34   O     O_R   0.285700 0.209080 0.172500 -0.536134
O35   O     O_R   0.179020 0.124440 0.176960 -0.505351
O36   O     O_R   0.213880 0.710510 0.665560 -0.542775
O37   O     O_R   0.786120 0.710510 0.334440 -0.543295
O38   O     O_R   0.713880 0.210510 0.665560 -0.541710
O39   O     O_R   0.286120 0.210510 0.334440 -0.542994
O40   O     O_R   0.235800 0.959720 0.673040 -0.513409
O41   O     O_R   0.764200 0.959720 0.326960 -0.510737
O42   O     O_R   0.735800 0.459720 0.673040 -0.513434
O43   O     O_R   0.264200 0.459720 0.326960 -0.510735
O44   O     O_R   0.331670 0.076720 0.669350 -0.468008
O45   O     O_R   0.445900 0.919370 0.676500 -0.449078
O46   O     O_R   0.668330 0.076720 0.330650 -0.459411
O47   O     O_R   0.831670 0.576720 0.669350 -0.468021
O48   O     O_R   0.168330 0.576720 0.330650 -0.459462
O49   O     O_2   0.543013 0.191410 0.553459 -0.239797
O50   O     O_2   0.465175 0.124926 0.641686 -0.263937
O51   O     O_3   0.586712 0.040582 0.649401 -0.554436
O52   O     O_2   0.468492 0.201450 0.448312 -0.242795
O53   O     O_2   0.543686 0.125156 0.360763 -0.261765
O54   O     O_3   0.419151 0.063571 0.349226 -0.548832
O55   O     O_2   0.042962 0.691429 0.553454 -0.240514
O56   O     O_R   0.554100 0.919370 0.323500 -0.448781
O57   O     O_2   0.965106 0.624949 0.641674 -0.263287
O58   O     O_3   0.086617 0.540658 0.649456 -0.554239
O59   O     O_2   0.968442 0.701408 0.448305 -0.242973
O60   O     O_2   0.043654 0.625163 0.360756 -0.261563
O61   O     O_3   0.919141 0.563503 0.349220 -0.548769
O62   O     O_2   0.379695 0.428937 0.646291 -0.242073
O63   O     O_2   0.415526 0.412675 0.521920 -0.314312
O64   O     O_3   0.384126 0.627027 0.567882 -0.549176
O65   O     O_2   0.616776 0.437805 0.357409 -0.245711
O66   O     O_2   0.583514 0.424739 0.482466 -0.316155
O67   O     O_R   0.945900 0.419370 0.676500 -0.448693
O68   O     O_3   0.613821 0.639050 0.433129 -0.556572
O69   O     O_2   0.879714 0.928977 0.646276 -0.242091
O70   O     O_2   0.915540 0.912730 0.521906 -0.314279
O71   O     O_3   0.884149 0.127091 0.567882 -0.549258
O72   O     O_2   0.116795 0.937775 0.357384 -0.245680
O73   O     O_2   0.083520 0.924671 0.482434 -0.316144
O74   O     O_3   0.113825 0.138994 0.433127 -0.556580
O75   O     O_R   0.054100 0.419370 0.323500 -0.448676
O76   O     O_R   0.456660 0.717710 0.669820 -0.467817
S1    S     S_3+6 0.521958 0.084438 0.594676 0.017195
S2    S     S_3+6 0.484571 0.092621 0.406072 0.014750
S3    S     S_3+6 0.021901 0.584470 0.594679 0.017138
S4    S     S_3+6 0.984548 0.592594 0.406068 0.014762
S5    S     S_3+6 0.369651 0.478544 0.571892 -0.049065
S6    S     S_3+6 0.628200 0.489378 0.430924 -0.053710
S7    S     S_3+6 0.869669 0.978602 0.571881 -0.049106
S8    S     S_3+6 0.128211 0.989327 0.430906 -0.053699

loop_
_geom_bond_atom_site_label_1
_geom_bond_atom_site_label_2
_ccdc_geom_bond_type
Cr1   O40   S    
Cr2   O32   S    
C34   C56   A    
Cr6   O42   S    
C19   H23   S    
Cr1   O14   S    
Cr2   O2    S    
Cr9   O19   S    
Cr9   O56   S    
O71   S7    S    
C38   H39   S    
C14   C21   S    
C90   C107  S    
C93   S6    S    
C118  O44   A    
C60   C72   A    
C95   S8    S    
Cr9   O10   S    
C36   C53   A    
C108  H21   S    
C89   C106  S    
C103  H16   S    
C90   C116  A    
C59   C73   A    
C85   C103  S    
C8    C114  S    
Cr4   O30   S    
C33   O15   A    
C3    C79   S    
Cr4   O4    S    
O66   S6    D    
C7    O75   A    
C7    C59   S    
C107  H25   S    
O49   S1    D    
C99   H35   S    
O73   S8    D    
C27   C31   A    
C28   C32   A    
H62   O64   S    
C76   H45   S    
C119  O46   A    
Cr4   O35   S    
C19   C99   S    
C58   C70   A    
Cr10  O25   S    
C16   H30   S    
C5    O56   A    
C17   C21   S    
Cr1   O9    S    
C19   C23   S    
C13   C33   S    
O58   S3    S    
C16   C20   S    
C111  O32   A    
C54   C112  S    
C57   C71   A    
H64   O71   S    
C73   S4    S    
C39   H66   S    
C62   O28   A    
C17   H1    S    
H58   O51   S    
C4    O76   A    
C82   C118  S    
C70   S1    S    
C37   H38   S    
C20   H34   S    
C66   C77   S    
C18   C66   S    
C71   S2    S    
C46   H47   S    
C15   H29   S    
Cr12  O5    S    
C72   C73   A    
C103  H11   S    
C85   C90   A    
C94   S7    S    
C5    C57   S    
C81   C119  S    
Cr8   O45   S    
C79   C96   A    
O62   S5    D    
Cr9   O24   S    
C46   H40   S    
C12   H27   S    
C88   C99   S    
C65   C74   S    
C2    C40   A    
C58   C67   A    
Cr7   O34   S    
Cr8   O22   S    
C81   C98   A    
C4    C58   S    
C103  C107  S    
C89   C115  A    
C80   C97   A    
C11   O39   A    
C44   O16   A    
C9    O37   A    
C75   H2    S    
Cr10  O47   S    
C95   C117  A    
C28   C46   S    
C34   C51   S    
C29   C47   S    
C30   C48   S    
C76   C78   S    
C45   H43   S    
C11   O8    A    
C15   C25   S    
C63   O29   A    
C12   C22   S    
C92   C96   A    
H59   O54   S    
C61   O27   A    
C2    C44   S    
Cr6   O38   S    
Cr2   O6    S    
C1    O14   A    
C53   C111  S    
C77   H32   S    
C120  O42   A    
C76   H3    S    
C118  O40   A    
C8    O36   A    
Cr12  O76   S    
C49   H54   S    
O65   S6    D    
Cr7   O39   S    
C75   H71   S    
O59   S4    D    
C25   C64   S    
C64   O30   A    
C47   H48   S    
C102  H15   S    
C87   C105  S    
C9    O6    A    
O51   S1    S    
C35   H36   S    
C109  O1    A    
C70   C71   A    
C45   H46   S    
C109  O31   A    
C113  O34   A    
C26   C30   A    
C16   C23   S    
C106  H24   S    
C23   C88   S    
C42   H70   S    
C92   S5    S    
C67   C75   S    
H65   O74   S    
Cr12  O27   S    
C93   C97   A    
C10   C116  S    
C30   C52   A    
Cr4   O13   S    
C83   C101  S    
C6    O67   A    
C18   C22   S    
C21   C61   S    
C68   C76   S    
C61   O22   A    
C98   H7    S    
C55   O21   A    
Cr10  O20   S    
C119  O41   A    
C48   H53   S    
C64   O26   A    
Cr10  O67   S    
C74   H72   S    
C60   C69   A    
C62   O24   A    
C37   C41   A    
C38   C56   A    
O63   S5    D    
C1    C24   S    
C88   H33   S    
Cr12  O9    S    
C102  H10   S    
Cr2   O28   S    
C81   C85   A    
Cr3   O33   S    
C83   C87   A    
Cr3   O11   S    
O64   S5    S    
C24   C42   A    
Cr5   O41   S    
Cr6   O23   S    
Cr1   O1    S    
C80   C84   A    
C13   C41   A    
C15   C19   S    
C105  H18   S    
O74   S8    S    
C4    O45   A    
C86   C91   A    
C48   H49   S    
C21   C66   S    
C20   C25   S    
C94   C98   A    
C84   C102  S    
C24   C29   A    
C5    O2    A    
O57   S3    D    
C25   C99   S    
Cr6   O16   S    
C68   C69   A    
C65   C67   A    
C12   C17   S    
C56   C113  S    
C91   C117  A    
C13   C28   A    
C2    C27   A    
C44   O20   A    
Cr11  O75   S    
C51   H57   S    
C63   O25   A    
C27   C45   S    
C23   C63   S    
C86   C104  S    
C112  O23   A    
C3    O43   A    
C31   C49   S    
C32   C54   A    
C9    C115  S    
C111  O12   A    
C51   H52   S    
C94   C116  A    
C95   C100  A    
C47   C51   S    
C40   H68   S    
C82   C86   A    
C29   C34   A    
Cr2   O10   S    
C1    O18   A    
C104  H17   S    
C35   C39   A    
C43   H44   S    
C45   C49   S    
C17   C77   S    
Cr10  O11   S    
O54   S2    S    
C72   S3    S    
C47   H41   S    
C33   O19   A    
O60   S4    D    
Cr7   O43   S    
C41   H69   S    
C104  C108  S    
Cr7   O13   S    
O72   S8    D    
Cr9   O46   S    
C106  H19   S    
C91   C108  S    
C22   C77   S    
C57   C65   A    
Cr1   O36   S    
Cr4   O8    S    
O52   S2    D    
C18   H12   S    
C79   C83   A    
C52   C109  S    
C20   C88   S    
C43   H42   S    
Cr12  O31   S    
C10   O7    A    
C74   H67   S    
C112  O33   A    
C35   C52   A    
O70   S7    D    
O61   S4    S    
C80   C120  S    
C14   C18   S    
C50   H51   S    
C10   O38   A    
C120  O47   A    
C36   H37   S    
C38   C42   A    
C93   C115  A    
Cr5   O12   S    
C108  H26   S    
O68   S6    S    
C15   C16   S    
Cr5   O10   S    
C87   C114  A    
C100  H8    S    
Cr3   O29   S    
C101  H9    S    
C39   C110  A    
Cr3   O7    S    
Cr5   O37   S    
C43   C48   S    
C26   C110  A    
Cr8   O9    S    
C55   O17   A    
C105  H22   S    
C69   C78   S    
C50   H55   S    
C26   C43   S    
C101  C105  S    
C101  H14   S    
C74   C75   S    
Cr8   O44   S    
C6    C60   S    
C36   C40   A    
C3    O48   A    
Cr8   O18   S    
C96   H5    S    
C14   H28   S    
H63   O68   S    
C59   C68   A    
C22   C62   S    
Cr11  O21   S    
Cr3   O3    S    
C31   C53   A    
C32   C50   S    
C6    O3    A    
C107  H20   S    
Cr5   O15   S    
C12   C14   S    
C55   C110  S    
O53   S2    D    
C78   H56   S    
C84   C89   A    
C8    O5    A    
C11   C117  S    
C97   H6    S    
Cr11  O48   S    
Cr11  O26   S    
C82   C100  A    
C104  H13   S    
C7    O4    A    
C37   C54   A    
C46   C50   S    
Cr11  O13   S    
H61   O61   S    
O55   S3    D    
C92   C114  A    
O69   S7    D    
C66   H31   S    
C102  C106  S    
H60   O58   S    
Cr6   O11   S    
Cr7   O17   S    
C49   H50   S    
O50   S1    D    
C113  O35   A    
C78   H4    S    
