data_mof_unit_20604.cif
_audit_creation_date              2012-12-10T17:36:20-0500
_audit_creation_method            fapswitch 2.2
_symmetry_space_group_name_H-M    P1
_symmetry_Int_Tables_number       1
_space_group_crystal_system       triclinic
_cell_length_a                    12.551558
_cell_length_b                    13.242018
_cell_length_c                    15.889343
_cell_angle_alpha                 71.671748
_cell_angle_beta                  103.57524
_cell_angle_gamma                 117.709278
_cell_volume                      2207.11821904

loop_
_atom_site_label
_atom_site_type_symbol
_atom_type_description
_atom_site_fract_x
_atom_site_fract_y
_atom_site_fract_z
_atom_type_partial_charge
C1    C     C_R   0.855148 0.287962 0.501353 0.851189
C2    C     C_3   0.107163 0.491760 0.077103 0.071500
C3    C     C_3   0.991756 0.513752 0.076833 0.033994
C4    C     C_3   0.996627 0.632878 0.002155 0.014098
C5    C     C_3   0.027276 0.622851 0.914999 -0.463475
C6    C     C_1   0.992071 0.514853 0.169448 -0.051416
C7    C     C_1   0.010685 0.492526 0.828097 0.046840
C8    C     C_1   0.007652 0.494310 0.751659 -0.118021
C9    C     C_R   0.275475 0.046495 0.457200 0.216602
C10   C     C_R   0.228995 0.840080 0.481022 -0.162252
C11   C     C_R   0.811602 0.078634 0.519796 -0.204770
C12   C     C_R   0.002441 0.498700 0.660191 0.869102
C13   C     C_R   0.729572 0.960881 0.532023 0.299980
C14   C     C_R   0.606522 0.930298 0.513613 -0.189802
C15   C     C_R   0.561708 0.016781 0.477269 0.070507
C16   C     C_R   0.645037 0.136576 0.460512 0.111145
C17   C     C_R   0.435920 0.987768 0.464307 0.052784
C18   C     C_R   0.395424 0.076814 0.444563 0.064009
C19   C     C_R   0.476857 0.193091 0.413945 -0.165048
C20   C     C_R   0.598553 0.220945 0.416104 -0.173046
C21   C     C_R   0.349230 0.872207 0.472287 -0.277752
C22   C     C_R   0.195915 0.926966 0.483762 0.238669
C23   C     C_R   0.145020 0.714587 0.490271 0.865356
C24   C     C_R   0.770599 0.167406 0.490613 -0.149789
C25   C     C_R   0.366134 0.356152 0.664612 0.161461
C26   C     C_R   0.744282 0.635255 0.370233 0.183178
C27   C     C_R   0.630504 0.624410 0.327413 -0.281920
C28   C     C_R   0.529971 0.557201 0.374001 -0.117192
C29   C     C_R   0.543842 0.514530 0.466619 -0.000321
C30   C     C_R   0.654953 0.501320 0.502508 0.210869
C31   C     C_R   0.447828 0.474363 0.522100 -0.075538
C32   C     C_R   0.462884 0.414919 0.611645 0.015718
C33   C     C_R   0.571584 0.406689 0.646351 -0.183012
C34   C     C_R   0.999544 0.504134 0.339234 0.815603
C35   C     C_R   0.656956 0.431927 0.592379 0.261192
C36   C     C_R   0.341134 0.496728 0.496288 0.402963
C37   C     C_R   0.255344 0.361553 0.629177 0.090398
C38   C     C_3   0.113145 0.474256 0.985314 0.439379
C39   C     C_3   0.884072 0.407128 0.951326 -0.436234
C40   C     C_3   0.873441 0.401796 0.049726 0.188721
C41   C     C_1   0.996203 0.511075 0.247002 -0.150811
C42   C     C_3   0.009442 0.497191 0.919000 0.079590
Cu1   Cu    Cu3+1 0.098280 0.475420 0.519630 1.008992
Cu2   Cu    Cu3+1 0.901720 0.524580 0.480370 0.995311
H1    H     H_    0.098208 0.409388 0.127584 0.215587
H2    H     H_    0.447676 0.263183 0.387636 0.185582
H3    H     H_    0.374861 0.805798 0.471733 0.213688
H4    H     H_    0.906681 0.100201 0.536397 0.192174
H5    H     H_    0.548416 0.837848 0.532134 0.174541
H6    H     H_    0.654806 0.309831 0.383931 0.162332
H7    H     H_    0.584719 0.365002 0.715882 0.219075
H8    H     H_    0.442644 0.541786 0.336667 0.226576
H9    H     H_    0.620509 0.672995 0.259282 0.180444
H10   H     H_    0.820470 0.436942 0.902246 0.156375
H11   H     H_    0.861441 0.318441 0.943836 0.242286
H12   H     H_    0.123467 0.682745 0.904704 0.232788
H13   H     H_    0.981971 0.658875 0.852830 0.171790
N1    N     N_R   0.246300 0.438200 0.549400 -0.224490
N2    N     N_R   0.754300 0.561180 0.451130 -0.202188
O1    O     O_R   0.972520 0.318130 0.524690 -0.575074
O2    O     O_R   0.806530 0.359650 0.491530 -0.557324
O3    O     O_R   0.083030 0.479240 0.637150 -0.597688
O4    O     O_R   0.917040 0.520750 0.603990 -0.529211
O5    O     O_R   0.193470 0.640350 0.508470 -0.557463
O6    O     O_R   0.027480 0.681870 0.475310 -0.542803
O7    O     O_R   0.082960 0.479250 0.396010 -0.505225
O8    O     O_R   0.916970 0.520760 0.362850 -0.628674
Br1   Br    Br    0.270363 0.574016 0.936237 -0.474694
Br2   Br    Br    0.262930 0.594089 0.130308 -0.461533
C43   C     C_R   0.873605 0.641535 0.988503 0.104552
C44   C     C_R   0.790215 0.630972 0.910214 -0.163851
C45   C     C_R   0.684569 0.645397 0.902947 -0.108899
C46   C     C_R   0.658872 0.670357 0.972708 -0.064856
C47   C     C_R   0.739147 0.681657 0.049866 -0.113866
C48   C     C_R   0.844951 0.667934 0.057105 -0.147915
H14   H     H_    0.801010 0.608440 0.854377 0.140960
H15   H     H_    0.621671 0.635837 0.843163 0.164869
H16   H     H_    0.576728 0.680809 0.966982 0.186264
H17   H     H_    0.719821 0.701713 0.104014 0.142991
H18   H     H_    0.907464 0.680086 0.115822 0.112620
Br3   Br    Br    0.058170 0.883947 0.541813 -0.459677
Br4   Br    Br    0.223663 0.166447 0.447409 -0.543809
Br5   Br    Br    0.780680 0.837575 0.584501 -0.544206
Br6   Br    Br    0.097850 0.315694 0.000791 -0.531518
C49   C     C_R   0.148035 0.274143 0.676063 0.176863
C50   C     C_R   0.089733 0.161336 0.659816 -0.102989
C51   C     C_R   0.000810 0.070209 0.712548 -0.151024
C52   C     C_R   0.967359 0.091264 0.780772 -0.118723
C53   C     C_R   0.027224 0.202032 0.799246 -0.113185
C54   C     C_R   0.121101 0.291582 0.749977 -0.075376
H19   H     H_    0.115802 0.143032 0.607958 0.199571
H20   H     H_    0.958315 0.983122 0.700815 0.203852
H21   H     H_    0.897098 0.021109 0.820608 0.162438
H22   H     H_    0.002196 0.217298 0.852945 0.196034
H23   H     H_    0.173340 0.373836 0.769947 0.174879
Br7   Br    Br    0.378348 0.256668 0.782918 -0.595991
Br8   Br    Br    0.339284 0.626858 0.398340 -0.518352
C55   C     C_R   0.848874 0.741683 0.334361 0.134409
C56   C     C_R   0.877178 0.846911 0.356038 -0.083896
C57   C     C_R   0.966164 0.952789 0.314571 -0.060798
C58   C     C_R   0.026424 0.954472 0.250311 -0.077740
C59   C     C_R   0.995213 0.850772 0.226052 -0.175050
C60   C     C_R   0.905464 0.745181 0.267138 -0.167303
H24   H     H_    0.828621 0.847220 0.403866 0.193870
H25   H     H_    0.987476 0.033471 0.331741 0.201036
H26   H     H_    0.095165 0.036333 0.217959 0.168636
H27   H     H_    0.038164 0.853045 0.173778 0.148935
H28   H     H_    0.876474 0.666539 0.245347 0.135600
Br9   Br    Br    0.713189 0.310120 0.644738 -0.499475
Br10  Br    Br    0.872171 0.251186 0.125914 -0.516432
C61   C     C_R   0.746004 0.387192 0.062146 0.160818
C62   C     C_R   0.720115 0.380760 0.146464 -0.102820
C63   C     C_R   0.608970 0.371344 0.158877 -0.150776
C64   C     C_R   0.516660 0.359841 0.089288 -0.088211
C65   C     C_R   0.533779 0.352594 0.008481 -0.107897
C66   C     C_R   0.645127 0.362647 0.995540 -0.117942
H29   H     H_    0.782056 0.376314 0.205225 0.147618
H30   H     H_    0.593519 0.370244 0.223397 0.131741
H31   H     H_    0.430308 0.351839 0.099066 0.178493
H32   H     H_    0.459734 0.337497 0.955870 0.189482
H33   H     H_    0.646983 0.347269 0.933451 0.150405
C67   C     C_R   0.092482 0.756333 0.017348 0.129913
C68   C     C_R   0.104269 0.855747 0.945086 -0.150294
C69   C     C_R   0.184019 0.969648 0.952985 -0.073421
C70   C     C_R   0.253843 0.988593 0.033368 -0.079108
C71   C     C_R   0.241731 0.893718 0.106426 -0.133375
C72   C     C_R   0.160299 0.779552 0.099336 -0.102152
H34   H     H_    0.050091 0.845430 0.881792 0.143934
H35   H     H_    0.190770 0.043334 0.896654 0.191808
H36   H     H_    0.315744 0.076914 0.039504 0.154374
H37   H     H_    0.293614 0.908779 0.169697 0.159967
H38   H     H_    0.152100 0.712876 0.159699 0.178375

loop_
_geom_bond_atom_site_label_1
_geom_bond_atom_site_label_2
_ccdc_geom_bond_type
C5    C42   S    
C58   C59   A    
C11   C13   A    
C46   C47   A    
C5    H12   S    
C19   C20   A    
C51   C52   A    
C3    C6    S    
C34   O7    A    
C4    C43   S    
C64   C65   A    
Cu2   O6    S    
C19   H2    S    
C68   C69   A    
C49   C50   A    
C10   C22   A    
C57   H25   S    
C29   C30   A    
C30   C35   A    
C37   C49   S    
C28   C29   A    
C38   C42   S    
C36   N1    A    
C50   H19   S    
Cu1   O7    S    
C62   H29   S    
C9    C22   A    
C14   H5    S    
Cu2   N2    S    
C55   C60   A    
C11   C24   A    
C67   C72   A    
C18   C19   A    
C7    C42   S    
C53   H22   S    
C72   H38   S    
C20   H6    S    
Cu1   N1    S    
C25   C37   A    
C70   H36   S    
C39   H11   S    
C56   C57   A    
C6    C41   T    
C46   H16   S    
C61   C66   A    
C40   C61   S    
C2    Br2   S    
C26   N2    A    
C64   H31   S    
C35   Br9   S    
C16   C20   A    
C9    Br4   S    
C25   C32   A    
C56   H24   S    
C10   C21   A    
C13   C14   A    
C11   H4    S    
C34   C41   S    
C62   C63   A    
Cu1   O5    S    
C39   C42   S    
Cu2   O4    S    
C47   C48   A    
C22   Br3   S    
C7    C8    T    
C66   H33   S    
C1    O1    A    
C39   C40   S    
C12   O4    A    
C50   C51   A    
C45   C46   A    
C40   Br10  S    
C17   C21   A    
C36   Br8   S    
C1    O2    A    
Cu1   Cu2   S    
C45   H15   S    
C12   O3    A    
C2    C38   S    
C31   C32   A    
C8    C12   S    
C30   N2    A    
C17   C18   A    
C26   C27   A    
C4    C67   S    
C59   H27   S    
C60   H28   S    
Cu1   O1    S    
C26   C55   S    
C23   O5    A    
C38   Br1   S    
C3    C40   S    
C65   H32   S    
C47   H17   S    
C70   C71   A    
Cu2   O2    S    
C3    C4    S    
C43   C48   A    
C43   C44   A    
C63   C64   A    
C48   H18   S    
C58   H26   S    
C15   C17   A    
C52   H21   S    
C61   C62   A    
C38   Br6   S    
C31   C36   A    
C37   N1    A    
C4    C5    S    
C54   H23   S    
C34   O8    A    
C49   C54   A    
C27   H9    S    
C10   C23   S    
C33   H7    S    
C13   Br5   S    
C5    H13   S    
C32   C33   A    
C23   O6    A    
C2    C3    S    
C53   C54   A    
C44   C45   A    
C29   C31   A    
C1    C24   S    
C28   H8    S    
C68   H34   S    
C44   H14   S    
C71   H37   S    
C71   C72   A    
C15   C16   A    
C57   C58   A    
C33   C35   A    
C69   H35   S    
C59   C60   A    
C2    H1    S    
C63   H30   S    
C39   H10   S    
C9    C18   A    
C52   C53   A    
C25   Br7   S    
C16   C24   A    
C55   C56   A    
C27   C28   A    
C14   C15   A    
Cu2   O8    S    
C67   C68   A    
C51   H20   S    
C65   C66   A    
Cu1   O3    S    
C69   C70   A    
C21   H3    S    
