data_mof_unit_7410.cif
_audit_creation_date              2012-12-11T14:06:40-0500
_audit_creation_method            fapswitch 2.2
_symmetry_space_group_name_H-M    P1
_symmetry_Int_Tables_number       1
_space_group_crystal_system       triclinic
_cell_length_a                    6.926394
_cell_length_b                    17.286
_cell_length_c                    24.09516
_cell_angle_alpha                 104.518457
_cell_angle_beta                  90.441469
_cell_angle_gamma                 89.940143
_cell_volume                      2792.69705862

loop_
_atom_site_label
_atom_site_type_symbol
_atom_type_description
_atom_site_fract_x
_atom_site_fract_y
_atom_site_fract_z
_atom_type_partial_charge
O1    O     O_R   0.494290 0.391990 0.999150 -0.533806
O2    O     O_R   0.827170 0.534410 0.082350 -0.542996
O3    O     O_R   0.994360 0.608010 0.000850 -0.534589
C1    C     C_R   0.658595 0.549855 0.106177 0.703617
O4    O     O_R   0.824210 0.388010 0.004470 -0.552150
O5    O     O_R   0.991370 0.460560 0.922410 -0.545932
C2    C     C_R   0.654587 0.354841 0.001384 0.776701
O6    O     O_R   0.497270 0.539440 0.077590 -0.541735
O7    O     O_3   0.659770 0.523970 0.973170 -0.368692
V1    V     V_3+5 0.935840 0.495550 0.004980 1.411102
O8    O     O_R   0.320910 0.465590 0.917650 -0.531668
C3    C     C_R   0.151661 0.447538 0.894268 0.690736
O9    O     O_R   0.323870 0.611990 0.995530 -0.546892
C4    C     C_R   0.154366 0.645107 0.998511 0.776305
V2    V     V_3+5 0.435470 0.504450 0.995020 1.430244
O10   O     O_3   0.161670 0.476030 0.026830 -0.374642
C5    C     C_2   0.142740 0.730251 0.998081 -0.342750
H1    H     H_    0.277110 0.761068 0.994692 0.149537
C6    C     C_2   0.972810 0.769780 0.002024 -0.339631
H2    H     H_    0.838441 0.738963 0.005413 0.150372
C7    C     C_R   0.166217 0.249673 0.624177 0.594073
N1    N     N_R   0.108522 0.326567 0.648693 -0.560296
C8    C     C_R   0.036111 0.374224 0.615702 0.578106
C9    C     C_R   0.017650 0.344752 0.555785 -0.024553
C10   C     C_R   0.075030 0.265724 0.530135 -0.016705
C11   C     C_R   0.150683 0.217723 0.564473 -0.033481
C12   C     C_R   0.941858 0.392020 0.521052 -0.148025
C13   C     C_R   0.922917 0.361187 0.461774 -0.136972
C14   C     C_R   0.979559 0.282343 0.435704 -0.027511
C15   C     C_R   0.056280 0.234544 0.470031 -0.015752
C16   C     C_R   0.114127 0.155595 0.444400 -0.024703
C17   C     C_R   0.190066 0.108333 0.479111 -0.148000
C18   C     C_R   0.208024 0.138997 0.538400 -0.133647
C19   C     C_R   0.962379 0.250075 0.376025 0.577714
N2    N     N_R   0.019757 0.173096 0.351552 -0.561119
C20   C     C_R   0.094357 0.125869 0.384577 0.575263
O11   O     O_2   0.238854 0.204251 0.657441 -0.493309
O12   O     O_2   0.979872 0.449532 0.640803 -0.518627
H3    H     H_    0.896452 0.452964 0.539551 0.160334
H4    H     H_    0.863732 0.399392 0.436473 0.180313
O13   O     O_2   0.890899 0.295640 0.342709 -0.511587
O14   O     O_2   0.148130 0.050144 0.359706 -0.515241
H5    H     H_    0.235719 0.047425 0.460612 0.160992
H6    H     H_    0.266734 0.100717 0.563717 0.182668
C21   C     C_R   0.823550 0.129528 0.262794 -0.078117
H7    H     H_    0.693134 0.143283 0.287821 0.122690
C22   C     C_R   0.809718 0.099299 0.203185 -0.194669
H8    H     H_    0.667879 0.090727 0.183406 0.127639
C23   C     C_R   0.977216 0.080949 0.169632 -0.057786
C24   C     C_R   0.158522 0.093357 0.197401 -0.194352
H9    H     H_    0.290656 0.080029 0.173164 0.130499
C25   C     C_R   0.171941 0.123294 0.256915 -0.082543
H10   H     H_    0.312843 0.132607 0.277272 0.120005
C26   C     C_R   0.004799 0.141769 0.290107 0.377003
C27   C     C_R   0.253796 0.415250 0.735704 -0.067748
H11   H     H_    0.351220 0.438997 0.709143 0.139676
C28   C     C_R   0.264659 0.443242 0.795421 -0.169027
H12   H     H_    0.369534 0.489129 0.813838 0.137147
C29   C     C_R   0.139719 0.413669 0.831102 -0.130236
C30   C     C_R   0.004306 0.353073 0.805490 -0.063170
C31   C     C_R   0.994626 0.326127 0.745270 -0.054878
H13   H     H_    0.892768 0.279885 0.725088 0.171947
C32   C     C_R   0.118488 0.356687 0.710270 0.324957
C33   C     C_R   0.425369 0.867369 0.611944 0.581230
N3    N     N_R   0.510512 0.828121 0.648651 -0.571934
C34   C     C_R   0.611445 0.758582 0.628063 0.548275
C35   C     C_R   0.632283 0.726559 0.568541 -0.020579
C36   C     C_R   0.547324 0.766653 0.530346 -0.014743
C37   C     C_R   0.442300 0.837524 0.552072 -0.031598
C38   C     C_R   0.736540 0.655813 0.546354 -0.142333
C39   C     C_R   0.756316 0.625408 0.487138 -0.149426
C40   C     C_R   0.672484 0.664994 0.448552 -0.023748
C41   C     C_R   0.567598 0.735849 0.470290 -0.016056
C42   C     C_R   0.482931 0.775978 0.432108 -0.025964
C43   C     C_R   0.378367 0.846676 0.454300 -0.139348
C44   C     C_R   0.358182 0.877015 0.513503 -0.151022
C45   C     C_R   0.689655 0.635173 0.388660 0.577191
N4    N     N_R   0.606289 0.674794 0.351788 -0.557929
C46   C     C_R   0.504994 0.744332 0.372580 0.576618
O15   O     O_2   0.326073 0.935377 0.633257 -0.495812
O16   O     O_2   0.692204 0.720728 0.665062 -0.521712
H14   H     H_    0.803423 0.623678 0.574669 0.177139
H15   H     H_    0.837569 0.570755 0.471733 0.160534
O17   O     O_2   0.786733 0.566522 0.367559 -0.517508
O18   O     O_2   0.426787 0.783231 0.335826 -0.515631
H16   H     H_    0.311592 0.878853 0.425995 0.178712
H17   H     H_    0.276768 0.931623 0.528916 0.160419
C47   C     C_R   0.802007 0.632576 0.263286 -0.074673
H18   H     H_    0.932510 0.649631 0.288379 0.131079
C48   C     C_R   0.815184 0.601930 0.203669 -0.195370
H19   H     H_    0.956386 0.595893 0.184091 0.128121
C49   C     C_R   0.647626 0.580473 0.169790 -0.058285
C50   C     C_R   0.467148 0.589755 0.197313 -0.194815
H20   H     H_    0.334889 0.573681 0.172917 0.131928
C51   C     C_R   0.454373 0.619967 0.256764 -0.082195
H21   H     H_    0.313851 0.626238 0.276782 0.126331
C52   C     C_R   0.621294 0.642143 0.290365 0.372029
C53   C     C_R   0.328460 0.849663 0.738733 -0.021435
H22   H     H_    0.208759 0.816656 0.714868 0.131137
C54   C     C_R   0.313004 0.879916 0.798194 -0.147577
H23   H     H_    0.181271 0.869510 0.819162 0.132972
C55   C     C_R   0.467894 0.921238 0.830363 -0.101208
C56   C     C_R   0.636589 0.933528 0.801476 -0.159866
H24   H     H_    0.755902 0.966276 0.825806 0.170652
C57   C     C_R   0.652142 0.904960 0.741490 -0.007427
C58   C     C_R   0.497274 0.861276 0.709933 0.293140
C59   C     C_2   0.642942 0.269618 0.001679 -0.328195
H25   H     H_    0.777521 0.238648 0.004935 0.147356
C60   C     C_2   0.472656 0.230233 0.997842 -0.323644
H26   H     H_    0.338092 0.261197 0.994546 0.147056
O19   O     O_R   0.618210 0.960470 0.922400 -0.542083
O20   O     O_R   0.291310 0.111960 0.995450 -0.545026
O21   O     O_R   0.124210 0.039530 0.077580 -0.541891
C61   C     C_R   0.460959 0.145080 0.998356 0.776900
O22   O     O_R   0.288310 0.965490 0.917650 -0.536698
O23   O     O_R   0.121180 0.892010 0.999220 -0.536878
C62   C     C_R   0.456892 0.950446 0.893890 0.715515
O24   O     O_R   0.621230 0.107990 0.000760 -0.535684
O25   O     O_3   0.455770 0.976060 0.026840 -0.374088
V3    V     V_3+5 0.179680 0.004440 0.995020 1.430220
O26   O     O_R   0.791670 0.888040 0.004570 -0.546369
C63   C     C_R   0.961176 0.854917 0.001577 0.773236
O27   O     O_R   0.794680 0.034510 0.082370 -0.544265
C64   C     C_R   0.964278 0.050105 0.106124 0.703630
V4    V     V_3+5 0.680070 0.995560 0.005010 1.418230
O28   O     O_3   0.953840 0.023940 0.973160 -0.367870
C65   C     C_2   0.879764 0.313842 0.840395 0.416582
H27   H     H_    0.912323 0.318851 0.885203 0.039038
O29   O     O_2   0.739835 0.274053 0.819136 -0.514105
C66   C     C_2   0.828567 0.921904 0.711987 0.438730
H28   H     H_    0.844527 0.898223 0.666118 0.065605
O30   O     O_2   0.958026 0.963502 0.738486 -0.506715

loop_
_geom_bond_atom_site_label_1
_geom_bond_atom_site_label_2
_ccdc_geom_bond_type
C27   H11   S    
C6    C63   S    
C50   H20   S    
C33   O15   S    
C41   C42   A    
C20   O14   S    
C51   H21   S    
C9    C12   A    
C1    O6    A    
O20   C61   A    
C28   H12   S    
O27   C64   A    
C22   C23   A    
C45   N4    A    
C14   C15   A    
O23   C63   A    
C13   C14   A    
O5    C3    A    
C15   C16   A    
V3    O28   S    
C28   C29   A    
C13   H4    S    
V2    O10   S    
C53   H22   S    
C37   C44   A    
C19   N2    A    
C31   C32   A    
C54   H23   S    
C43   H16   S    
N1    C32   S    
C3    C29   S    
O8    V2    S    
C16   C17   A    
C12   H3    S    
C36   C37   A    
O22   C62   A    
C27   C32   A    
O19   V4    S    
C24   C25   A    
C59   H25   S    
C38   C39   A    
O1    V2    S    
O24   V4    S    
O7    V1    S    
C47   C52   A    
C34   C35   A    
C29   C30   A    
C50   C51   A    
O9    C4    A    
N2    C26   S    
C59   C60   D    
C4    C5    S    
C31   H13   S    
C19   O13   S    
N1    C8    A    
C7    C11   A    
C25   C26   A    
C24   H9    S    
C39   H15   S    
C21   C22   A    
C42   C43   A    
C35   C36   A    
C9    C10   A    
O20   V3    S    
N4    C46   A    
C45   O17   S    
C36   C41   A    
C21   H7    S    
C23   C64   S    
C14   C19   A    
O23   V3    S    
C30   C31   A    
N2    C20   A    
O2    C1    A    
C43   C44   A    
C65   O29   D    
O26   V4    S    
C40   C45   A    
O21   V3    S    
C11   C18   A    
C48   C49   A    
C22   H8    S    
C8    C9    A    
N4    C52   S    
C54   C55   A    
C5    H1    S    
C56   C57   A    
C33   C37   A    
O3    C4    A    
C44   H17   S    
O26   C63   A    
C61   O24   A    
C55   C62   S    
C60   C61   S    
O25   V4    S    
C47   C48   A    
C21   C26   A    
C23   C24   A    
O6    V2    S    
C53   C54   A    
C42   C46   A    
O9    V2    S    
V4    O28   S    
C2    C59   S    
C65   H27   S    
O2    V1    S    
N3    C58   S    
C46   O18   S    
C25   H10   S    
O4    C2    A    
C10   C15   A    
O1    C2    A    
C18   H6    S    
C30   C65   S    
C40   C41   A    
O5    V1    S    
O25   V3    S    
C51   C52   A    
C57   C66   S    
C8    O12   S    
C57   C58   A    
C53   C58   A    
O19   C62   A    
C66   O30   D    
C17   C18   A    
C35   C38   A    
C6    H2    S    
C27   C28   A    
C66   H28   S    
C10   C11   A    
O4    V1    S    
O3    V1    S    
V1    O10   S    
C60   H26   S    
C33   N3    A    
C34   O16   S    
C48   H19   S    
O21   C64   A    
C49   C50   A    
C5    C6    D    
C17   H5    S    
N3    C34   A    
O7    V2    S    
C55   C56   A    
C38   H14   S    
O27   V4    S    
C39   C40   A    
C7    O11   S    
C47   H18   S    
O22   V3    S    
C56   H24   S    
C16   C20   A    
C1    C49   S    
C7    N1    A    
O8    C3    A    
C12   C13   A    
