data_mof_unit_19605.cif
_audit_creation_date              2013-03-05T16:11:05-0500
_audit_creation_method            fapswitch 2.2
_symmetry_space_group_name_H-M    P1
_symmetry_Int_Tables_number       1
_space_group_crystal_system       triclinic
_cell_length_a                    11.427967
_cell_length_b                    10.048864
_cell_length_c                    10.779332
_cell_angle_alpha                 89.104734
_cell_angle_beta                  92.943239
_cell_angle_gamma                 89.513453
_cell_volume                      1236.04050899

loop_
_atom_site_label
_atom_site_type_symbol
_atom_site_description
_atom_site_fract_x
_atom_site_fract_y
_atom_site_fract_z
_atom_type_partial_charge
O1    O     O_R   0.317570 0.620260 0.500070 -0.548817
O2    O     O_R   0.317570 0.379740 0.500070 -0.568293
C1    C     C_R   0.260945 0.500304 0.496614 0.916409
O3    O     O_R   0.499850 0.620240 0.316900 -0.573451
O4    O     O_R   0.499850 0.379760 0.316900 -0.546334
C2    C     C_R   0.501679 0.501432 0.262385 0.880775
Cu1   Cu    Cu3+1 0.499860 0.642410 0.500060 1.031943
Cu2   Cu    Cu3+1 0.499860 0.357590 0.500060 1.038428
O5    O     O_R   0.682190 0.620260 0.500030 -0.541662
O6    O     O_R   0.682190 0.379740 0.500030 -0.564963
O7    O     O_R   0.499910 0.620280 0.683200 -0.587225
O8    O     O_R   0.499910 0.379720 0.683200 -0.530682
C3    C     C_R   0.738121 0.499913 0.493833 0.776478
C4    C     C_R   0.505465 0.498790 0.739941 0.878548
C5    C     C_3   0.527973 0.627108 0.042537 -0.214060
C6    C     C_3   0.406038 0.461246 0.039963 -0.122746
C7    C     C_3   0.426954 0.581106 0.952374 -0.156073
H1    H     H_    0.356415 0.647161 0.911514 0.200738
H2    H     H_    0.541239 0.730802 0.074168 0.157503
H3    H     H_    0.316927 0.432758 0.064384 0.203037
C8    C     C_3   0.513799 0.496233 0.880179 -0.062974
C9    C     C_3   0.615268 0.543581 0.970270 -0.099337
C10   C     C_3   0.492832 0.376309 0.969731 -0.030504
C11   C     C_3   0.594827 0.423389 0.056666 -0.105900
C12   C     C_3   0.507714 0.505342 0.126888 -0.042788
C13   C     C_3   0.069595 0.628693 0.549835 -0.275667
C14   C     C_3   0.074771 0.384941 0.576354 -0.278670
H4    H     H_    0.107166 0.700912 0.489727 0.212805
H5    H     H_    0.101435 0.303318 0.518426 0.171186
C15   C     C_3   0.931325 0.644357 0.527195 -0.130539
C16   C     C_3   0.935233 0.380825 0.578125 -0.175609
H6    H     H_    0.876061 0.543767 0.289269 0.238074
H7    H     H_    0.887028 0.384723 0.320517 0.261366
C17   C     C_3   0.062114 0.485556 0.353133 -0.117891
C18   C     C_3   0.120910 0.500083 0.493794 -0.258264
C19   C     C_3   0.877429 0.500142 0.491456 -0.084768
C20   C     C_3   0.921975 0.477096 0.358011 -0.398859
C21   C     C_3   0.613357 0.075660 0.559369 -0.160664
C22   C     C_3   0.605181 0.915366 0.573840 -0.147692
H8    H     H_    0.680473 0.089416 0.489817 0.167194
H9    H     H_    0.684922 0.877764 0.529765 0.148107
C23   C     C_3   0.398445 0.083303 0.566962 -0.096266
C24   C     C_3   0.392281 0.918751 0.559425 -0.106130
C25   C     C_3   0.497344 0.082189 0.375064 -0.227847
C26   C     C_3   0.511771 0.921993 0.376414 -0.217464
N1    N     N_3   0.500250 0.143650 0.502780 -0.234268
N2    N     N_3   0.500250 0.856350 0.502780 -0.233314
H10   H     H_    0.422588 0.114238 0.313840 0.236622
H11   H     H_    0.457211 0.876931 0.301708 0.231994
H12   H     H_    0.569644 0.123210 0.322246 0.188670
H13   H     H_    0.599669 0.898288 0.341811 0.164819
C27   C     C_2   0.683360 0.131733 0.670924 0.868060
O9    O     O_2   0.778212 0.080266 0.699813 -0.568088
O10   O     O_R   0.640566 0.222634 0.751438 -0.779944
H14   H     H_    0.696222 0.238649 0.825303 0.356532
C28   C     C_2   0.626814 0.861987 0.706844 0.806397
O11   O     O_2   0.665676 0.751372 0.721576 -0.571618
O12   O     O_R   0.607971 0.935266 0.813215 -0.808249
H15   H     H_    0.623407 0.883502 0.893779 0.320345
C29   C     C_2   0.410453 0.130609 0.700456 0.548623
H16   H     H_    0.473258 0.086677 0.763361 0.117874
O13   O     O_2   0.345328 0.211772 0.742746 -0.482400
C30   C     C_2   0.372374 0.869032 0.693419 0.381919
H17   H     H_    0.429211 0.805607 0.747751 0.136541
O14   O     O_2   0.289524 0.910870 0.749826 -0.442109
C31   C     C_2   0.278302 0.132125 0.516727 0.919208
O15   O     O_2   0.197995 0.124040 0.586307 -0.492698
O16   O     O_R   0.249646 0.140282 0.390276 -0.780660
H18   H     H_    0.164258 0.119345 0.370578 0.359181
C32   C     C_2   0.279576 0.876505 0.484507 0.946783
O17   O     O_2   0.185838 0.888520 0.532627 -0.538249
O18   O     O_R   0.277119 0.848445 0.358408 -0.732797
H19   H     H_    0.195437 0.856119 0.317577 0.360224
C33   C     C_2   0.734427 0.600964 0.954239 0.525836
H20   H     H_    0.743149 0.703971 0.927347 0.122207
O19   O     O_2   0.823177 0.536843 0.981958 -0.425419
C34   C     C_2   0.473781 0.228997 0.966592 0.428756
H21   H     H_    0.545284 0.162433 0.947907 0.107640
O20   O     O_2   0.380732 0.181847 0.995645 -0.503319
C35   C     C_2   0.690274 0.328982 0.105396 0.827122
O21   O     O_2   0.759762 0.283533 0.034469 -0.523713
O22   O     O_R   0.696541 0.287801 0.228955 -0.759516
H22   H     H_    0.752583 0.209761 0.242471 0.367662
C36   C     C_2   0.120434 0.652882 0.683202 0.978128
O23   O     O_2   0.223408 0.677116 0.698023 -0.575270
O24   O     O_R   0.059340 0.630002 0.790257 -0.665547
H23   H     H_    0.107929 0.645828 0.870016 0.354376
C37   C     C_2   0.138367 0.353775 0.703062 1.070217
O25   O     O_2   0.110527 0.255414 0.762881 -0.392086
O26   O     O_R   0.230702 0.430132 0.750820 -0.763473
H24   H     H_    0.253147 0.406506 0.840556 0.351926
C38   C     C_2   0.881686 0.707812 0.638619 0.476441
H25   H     H_    0.881225 0.815456 0.647861 0.105972
O27   O     O_2   0.850503 0.641081 0.725169 -0.488805
C39   C     C_2   0.881304 0.386512 0.705089 0.563625
H26   H     H_    0.787422 0.387068 0.708155 0.063579
O28   O     O_2   0.936485 0.398334 0.803907 -0.402883
C40   C     C_2   0.902199 0.752313 0.424552 0.780842
O29   O     O_2   0.811652 0.748763 0.359193 -0.588362
O30   O     O_R   0.975359 0.861756 0.410885 -0.766859
H27   H     H_    0.945867 0.926147 0.342692 0.360644
C41   C     C_2   0.907549 0.238748 0.535338 0.820972
O31   O     O_2   0.842877 0.215787 0.445595 -0.628897
O32   O     O_R   0.965755 0.131865 0.596853 -0.623067
H28   H     H_    0.946316 0.043062 0.558479 0.379404
C42   C     C_2   0.096951 0.601538 0.268355 0.829654
O33   O     O_2   0.200683 0.621890 0.253390 -0.568088
O34   O     O_R   0.013168 0.677720 0.198970 -0.722024
H29   H     H_    0.049335 0.747869 0.144609 0.355168
C43   C     C_2   0.108650 0.364320 0.285599 0.852081
O35   O     O_2   0.043202 0.276679 0.247079 -0.556404
O36   O     O_R   0.226548 0.359074 0.257026 -0.732055
H30   H     H_    0.244822 0.281675 0.201714 0.373683

loop_
_geom_bond_atom_site_label_1
_geom_bond_atom_site_label_2
_geom_bond_distance
_ccdc_geom_bond_type
C31   O16   1.386397 S    
C30   O14   1.226075 D    
C14   H5    1.089411 S    
C17   C20   1.607994 S    
C39   H26   1.075054 S    
C24   C30   1.549419 S    
Cu1   Cu2   2.862116 S    
C22   H9    1.114972 S    
C34   H21   1.080514 S    
C28   O11   1.198698 D    
C5    H2    1.110619 S    
C33   O19   1.218563 D    
C4    C8    1.509587 S    
C38   H25   1.087810 S    
C19   C20   1.570207 S    
C36   O24   1.396128 S    
C21   C22   1.619829 S    
O7    C4    1.356436 A    
C5    C12   1.539230 S    
C2    C12   1.465649 S    
C21   C27   1.527584 S    
C42   O33   1.223048 D    
C26   H13   1.114478 S    
O34   H29   1.013915 S    
C29   O13   1.209577 D    
C17   C18   1.635760 S    
C23   N1    1.510452 S    
O5    C3    1.367230 A    
C43   O35   1.224000 D    
O36   H30   1.014165 S    
C11   C35   1.507887 S    
C5    C9    1.546793 S    
C25   N1    1.516591 S    
O16   H18   1.012509 S    
C10   C11   1.540004 S    
C32   O17   1.219829 D    
C26   H11   1.098600 S    
C6    H3    1.103822 S    
C26   N2    1.516474 S    
C31   O15   1.217148 D    
C8    C9    1.556362 S    
C14   C37   1.540326 S    
O3    Cu1   1.990322 S    
O32   H28   1.011056 S    
C27   O10   1.373895 S    
Cu2   N1    2.149559 S    
C34   O20   1.221241 D    
C33   H20   1.077381 S    
C14   C16   1.596614 S    
C17   C42   1.537507 S    
C16   C41   1.537670 S    
C11   C12   1.524853 S    
C3    C19   1.593542 S    
C35   O22   1.386644 S    
C23   C29   1.522386 S    
O24   H23   1.014666 S    
C35   O21   1.220985 D    
C14   C18   1.560486 S    
O12   H15   1.012157 S    
O22   H22   1.012273 S    
C10   C34   1.498724 S    
C29   H16   1.051241 S    
O1    C1    1.373080 A    
Cu1   N2    2.150551 S    
Cu1   O7    1.983128 S    
C22   C28   1.530231 S    
C1    C18   1.599065 S    
Cu2   O8    1.990035 S    
C38   O27   1.210661 D    
C7    H1    1.108926 S    
H6    C20   1.100828 S    
C36   O23   1.206813 D    
C41   O32   1.398593 S    
O3    C2    1.339360 A    
O8    C4    1.352756 A    
C13   C15   1.592534 S    
C6    C10   1.538960 S    
C40   O30   1.397647 S    
C8    C10   1.560060 S    
C17   C43   1.534093 S    
C9    C11   1.540325 S    
C23   C24   1.658740 S    
C9    C33   1.500371 S    
C25   C26   1.616579 S    
C22   N2    1.519320 S    
C25   H12   1.106129 S    
C6    C12   1.527860 S    
C5    C7    1.548842 S    
O10   H14   1.009023 S    
C13   C36   1.546256 S    
O1    Cu1   2.096944 S    
O2    Cu2   2.093186 S    
C37   O26   1.391950 S    
O18   H19   1.013183 S    
O6    C3    1.373429 A    
O4    Cu2   1.983404 S    
C39   O28   1.217643 D    
C24   C32   1.550643 S    
C15   C40   1.558967 S    
C13   H4    1.072378 S    
C15   C19   1.623627 S    
O2    C1    1.367758 A    
C21   H8    1.107741 S    
O26   H24   1.011993 S    
O4    C2    1.349038 A    
C42   O34   1.399399 S    
C16   C39   1.531193 S    
O30   H27   1.014196 S    
C28   O12   1.397270 S    
H7    C20   1.089004 S    
C41   O31   1.213141 D    
C43   O36   1.398166 S    
C21   N1    1.549411 S    
C30   H17   1.055142 S    
Cu1   O5    2.093653 S    
C13   C18   1.557876 S    
C37   O25   1.224934 D    
Cu2   O6    2.097410 S    
C40   O29   1.222667 D    
C23   C31   1.524112 S    
C16   C19   1.623248 S    
C32   O18   1.391432 S    
C24   N2    1.537746 S    
C25   H10   1.095399 S    
C6    C7    1.546550 S    
C27   O9    1.220737 D    
C15   C38   1.502916 S    
C7    C8    1.550377 S    
