data_mof_unit_47437.cif
_audit_creation_date              2012-12-11T15:36:43-0500
_audit_creation_method            fapswitch 2.2
_symmetry_space_group_name_H-M    P1
_symmetry_Int_Tables_number       1
_space_group_crystal_system       triclinic
_cell_length_a                    15.06313
_cell_length_b                    15.077329
_cell_length_c                    34.841495
_cell_angle_alpha                 91.269007
_cell_angle_beta                  91.756666
_cell_angle_gamma                 60.112889
_cell_volume                      6857.12631203

loop_
_atom_site_label
_atom_site_type_symbol
_atom_type_description
_atom_site_fract_x
_atom_site_fract_y
_atom_site_fract_z
_atom_type_partial_charge
C1    C     C_R   0.610678 0.302680 0.444048 0.543476
C2    C     C_R   0.597618 0.097034 0.763076 -0.114025
C3    C     C_R   0.093303 0.766236 0.886287 -0.126025
C4    C     C_R   0.122228 0.754432 0.848159 -0.122315
C5    C     C_R   0.124841 0.674825 0.825725 0.032046
C6    C     C_R   0.105360 0.602849 0.842709 -0.121279
C7    C     C_R   0.076968 0.614292 0.880921 -0.126220
C8    C     C_R   0.199693 0.577872 0.765310 -0.119401
C9    C     C_R   0.208483 0.574558 0.725632 -0.116487
C10   C     C_R   0.157400 0.664877 0.704180 0.028704
C11   C     C_R   0.098044 0.758724 0.722892 -0.118261
C12   C     C_R   0.088737 0.762012 0.762595 -0.115382
C13   C     C_R   0.595992 0.170903 0.788902 0.028102
C14   C     C_R   0.655131 0.765092 0.164540 -0.120452
C15   C     C_R   0.139467 0.671560 0.784086 0.029236
C16   C     C_R   0.200877 0.725107 0.645629 -0.121676
C17   C     C_R   0.234417 0.707291 0.607968 -0.128548
C18   C     C_R   0.199906 0.566476 0.602844 -0.124593
C19   C     C_R   0.166687 0.584185 0.640466 -0.122334
C20   C     C_R   0.171395 0.660550 0.662579 0.031343
C21   C     C_R   0.238824 0.624629 0.586961 0.022618
C22   C     C_R   0.672970 0.079228 0.906186 0.021606
C23   C     C_R   0.598094 0.064783 0.886650 -0.129076
C24   C     C_R   0.548384 0.195693 0.640799 -0.120388
C25   C     C_R   0.568240 0.099513 0.849015 -0.122387
C26   C     C_R   0.827627 0.620865 0.161086 -0.123725
C27   C     C_R   0.550721 0.219605 0.602479 -0.124727
C28   C     C_R   0.692105 0.248947 0.617908 -0.125180
C29   C     C_R   0.688742 0.226463 0.656221 -0.122269
C30   C     C_R   0.614616 0.203170 0.668136 0.029065
C31   C     C_R   0.620234 0.250023 0.590991 0.022859
C32   C     C_R   0.045196 0.739254 0.048696 0.540713
C33   C     C_R   0.742766 0.687383 0.182932 0.028537
C34   C     C_R   0.747437 0.746739 0.064111 0.543822
C35   C     C_R   0.751321 0.040246 0.050693 0.541412
C36   C     C_R   0.017127 0.722414 0.939811 0.544711
C37   C     C_R   0.717177 0.730085 0.954934 0.541654
C38   C     C_R   0.826962 0.635827 0.121645 -0.127839
C39   C     C_R   0.721387 0.024458 0.942083 0.542411
C40   C     C_R   0.776725 0.582443 0.241630 -0.107172
C41   C     C_R   0.767559 0.575720 0.281018 -0.102448
C42   C     C_R   0.727360 0.664051 0.304330 0.032230
C43   C     C_R   0.701764 0.758213 0.287869 -0.116252
C44   C     C_R   0.612309 0.149754 0.830569 0.031364
C45   C     C_R   0.710339 0.764973 0.248478 -0.118439
C46   C     C_R   0.745125 0.677638 0.224953 0.026343
C47   C     C_R   0.606368 0.733980 0.358656 -0.119123
C48   C     C_R   0.593368 0.610182 0.449418 0.545214
C49   C     C_R   0.573546 0.721128 0.394002 -0.124851
C50   C     C_R   0.733167 0.561954 0.402819 -0.125642
C51   C     C_R   0.766107 0.575018 0.367515 -0.117855
C52   C     C_R   0.701546 0.659348 0.344524 0.031197
C53   C     C_R   0.635125 0.633149 0.415760 0.021133
C54   C     C_R   0.101166 0.729320 0.085335 0.021083
C55   C     C_R   0.681649 0.170322 0.851248 -0.118357
C56   C     C_R   0.143113 0.637033 0.105651 -0.127337
C57   C     C_R   0.165792 0.634857 0.144759 -0.118646
C58   C     C_R   0.148811 0.724257 0.164022 0.026870
C59   C     C_R   0.117311 0.813987 0.143229 -0.124217
C60   C     C_R   0.304187 0.591273 0.442290 0.544799
C61   C     C_R   0.093423 0.816630 0.104000 -0.127952
C62   C     C_R   0.225825 0.740377 0.226383 -0.115793
C63   C     C_R   0.235275 0.729726 0.266283 -0.111408
C64   C     C_R   0.170849 0.704996 0.286234 0.055888
C65   C     C_R   0.093066 0.697045 0.266093 -0.065060
C66   C     C_R   0.711616 0.135450 0.888630 -0.124346
C67   C     C_R   0.084703 0.706067 0.226260 -0.107026
C68   C     C_R   0.152471 0.725488 0.206164 0.022015
C69   C     C_R   0.210771 0.584634 0.341294 0.239743
C70   C     C_R   0.240137 0.559354 0.379689 -0.087775
C71   C     C_R   0.226485 0.724607 0.391292 -0.142550
C72   C     C_R   0.605519 0.300700 0.553774 0.541855
C73   C     C_R   0.195816 0.750925 0.353069 -0.167409
C74   C     C_R   0.189855 0.680721 0.327526 0.035167
C75   C     C_R   0.251556 0.627500 0.404694 -0.019945
C76   C     C_R   0.724930 0.097408 0.087216 0.023625
C77   C     C_R   0.591411 0.259254 0.774340 -0.119952
C78   C     C_R   0.800731 0.105363 0.108983 -0.126066
C79   C     C_R   0.785451 0.133161 0.147658 -0.122481
C80   C     C_R   0.693873 0.154407 0.164931 0.030446
C81   C     C_R   0.614584 0.155774 0.142301 -0.119231
C82   C     C_R   0.630065 0.127282 0.103722 -0.124957
C83   C     C_R   0.594180 0.240589 0.223493 -0.113173
C84   C     C_R   0.587462 0.606351 0.559118 0.541582
C85   C     C_R   0.584594 0.246974 0.263250 -0.108258
C86   C     C_R   0.665251 0.177219 0.287097 0.024766
C87   C     C_R   0.755456 0.100698 0.270487 -0.118209
C88   C     C_R   0.595256 0.270355 0.734956 -0.117603
C89   C     C_R   0.765149 0.094559 0.230744 -0.115370
C90   C     C_R   0.684766 0.164745 0.206960 0.026808
C91   C     C_R   0.739734 0.183631 0.351250 -0.118641
C92   C     C_R   0.726995 0.212751 0.389796 -0.124482
C93   C     C_R   0.552158 0.245856 0.385655 -0.122183
C94   C     C_R   0.564947 0.216767 0.347068 -0.115533
C95   C     C_R   0.657494 0.189437 0.329188 0.026586
C96   C     C_R   0.297980 0.589154 0.551682 0.544385
C97   C     C_R   0.631709 0.248380 0.406882 0.018583
C98   C     C_R   0.691535 0.689663 0.919951 0.020968
C99   C     C_R   0.602392 0.194015 0.709374 0.025996
C100  C     C_R   0.765543 0.596889 0.903532 -0.127613
C101  C     C_R   0.753265 0.571923 0.865690 -0.123669
C102  C     C_R   0.666868 0.639266 0.843624 0.032064
C103  C     C_R   0.588475 0.727065 0.861249 -0.120528
C104  C     C_R   0.600531 0.751864 0.899113 -0.127700
C105  C     C_R   0.571196 0.650803 0.782090 -0.120378
C106  C     C_R   0.566138 0.650249 0.742057 -0.118530
C107  C     C_R   0.653662 0.623762 0.720699 0.027371
C108  C     C_R   0.741106 0.717211 0.103540 0.021104
C109  C     C_R   0.747107 0.594545 0.740008 -0.117236
C110  C     C_R   0.600209 0.108849 0.723539 -0.117223
C111  C     C_R   0.752081 0.595721 0.780056 -0.113977
C112  C     C_R   0.663820 0.625306 0.801508 0.028804
C113  C     C_R   0.718765 0.544281 0.656466 -0.123116
C114  C     C_R   0.704324 0.541445 0.616780 -0.128684
C115  C     C_R   0.550339 0.707398 0.620022 -0.126568
C116  C     C_R   0.564514 0.709848 0.659665 -0.123013
C117  C     C_R   0.646739 0.626731 0.678356 0.031332
C118  C     C_R   0.617724 0.621244 0.598380 0.021758
C119  C     C_R   0.067002 0.698297 0.902540 0.023734
C120  C     C_R   0.654104 0.779680 0.125204 -0.123746
Cl1   Cl    Cl    0.212769 0.488918 0.310725 -0.659239
Cr1   Cr    Cr6+3 0.426010 0.422500 0.497000 1.014537
Cr2   Cr    Cr6+3 0.651300 0.426310 0.501970 1.010967
Cr3   Cr    Cr6+3 0.422670 0.651170 0.501050 1.011208
Cr4   Cr    Cr6+3 0.905130 0.911420 0.992650 1.009880
Cr5   Cr    Cr6+3 0.911860 0.682710 0.002320 1.010083
Cr6   Cr    Cr6+3 0.682710 0.906840 0.004710 1.011168
H1    H     H_    0.586671 0.842828 0.112125 0.129685
H2    H     H_    0.191150 0.564745 0.160491 0.121642
H3    H     H_    0.041200 0.680335 0.281079 0.149496
H4    H     H_    0.895362 0.586747 0.105749 0.127638
H5    H     H_    0.026670 0.695841 0.210951 0.116404
H6    H     H_    0.260553 0.483475 0.389226 0.159891
H7    H     H_    0.104062 0.883564 0.157842 0.103898
H8    H     H_    0.234830 0.778634 0.409891 0.133080
H9    H     H_    0.874651 0.082693 0.097022 0.122775
H10   H     H_    0.570212 0.122196 0.087514 0.120295
H11   H     H_    0.501071 0.219863 0.330773 0.129468
H12   H     H_    0.497675 0.777336 0.403232 0.129084
H13   H     H_    0.515035 0.308072 0.275380 0.138388
H14   H     H_    0.531387 0.295601 0.205669 0.113849
H15   H     H_    0.840522 0.517280 0.357547 0.115790
H16   H     H_    0.846956 0.133368 0.164533 0.103809
H17   H     H_    0.818301 0.045501 0.288239 0.104670
H18   H     H_    0.834848 0.033831 0.218539 0.108071
H19   H     H_    0.811812 0.163142 0.338140 0.105342
H20   H     H_    0.789874 0.213349 0.405500 0.128638
H21   H     H_    0.543315 0.171842 0.155030 0.106769
H22   H     H_    0.477972 0.272403 0.398096 0.135495
H23   H     H_    0.895872 0.560202 0.174780 0.110089
H24   H     H_    0.836103 0.546799 0.918989 0.122250
H25   H     H_    0.541962 0.823777 0.910942 0.124518
H26   H     H_    0.509208 0.775252 0.675939 0.101800
H27   H     H_    0.786610 0.502329 0.292825 0.108271
H28   H     H_    0.493659 0.670804 0.727728 0.107603
H29   H     H_    0.502355 0.672576 0.797861 0.103454
H30   H     H_    0.813784 0.502533 0.853064 0.099260
H31   H     H_    0.815472 0.574103 0.724116 0.104133
H32   H     H_    0.824160 0.577566 0.794168 0.104115
H33   H     H_    0.782909 0.479383 0.670288 0.100056
H34   H     H_    0.782817 0.493861 0.419182 0.126516
H35   H     H_    0.757538 0.473887 0.600946 0.121998
H36   H     H_    0.521159 0.780755 0.844967 0.100411
H37   H     H_    0.483043 0.770270 0.606754 0.125313
H38   H     H_    0.087342 0.831013 0.902525 0.121828
H39   H     H_    0.803524 0.514254 0.223944 0.107986
H40   H     H_    0.056851 0.560963 0.892747 0.126129
H41   H     H_    0.142238 0.534915 0.652960 0.104073
H42   H     H_    0.256701 0.501603 0.711733 0.109391
H43   H     H_    0.240393 0.507391 0.781341 0.105222
H44   H     H_    0.139163 0.809514 0.835823 0.101125
H45   H     H_    0.150717 0.568319 0.092085 0.126885
H46   H     H_    0.058116 0.829078 0.706743 0.104831
H47   H     H_    0.040218 0.834986 0.776403 0.106544
H48   H     H_    0.205016 0.784464 0.662321 0.101766
H49   H     H_    0.263612 0.753583 0.596368 0.125284
H50   H     H_    0.106276 0.541130 0.825894 0.101121
H51   H     H_    0.587971 0.815817 0.180787 0.106975
H52   H     H_    0.201115 0.503141 0.587102 0.128503
H53   H     H_    0.567247 0.021415 0.899528 0.123994
H54   H     H_    0.769106 0.148072 0.903100 0.125618
H55   H     H_    0.741545 0.231055 0.676895 0.105549
H56   H     H_    0.061013 0.888946 0.089178 0.123439
H57   H     H_    0.594378 0.337890 0.724438 0.112803
H58   H     H_    0.588107 0.318322 0.793504 0.106014
H59   H     H_    0.513695 0.083762 0.833858 0.100914
H60   H     H_    0.605246 0.049411 0.704161 0.106658
H61   H     H_    0.602444 0.027568 0.773456 0.106788
H62   H     H_    0.490942 0.177430 0.649485 0.103547
H63   H     H_    0.672289 0.827080 0.305291 0.107289
H64   H     H_    0.494467 0.219789 0.582310 0.120265
H65   H     H_    0.717947 0.207724 0.837764 0.104084
H66   H     H_    0.746246 0.272490 0.610018 0.125259
H67   H     H_    0.180099 0.824978 0.343031 0.111335
H68   H     H_    0.687625 0.838876 0.236203 0.111051
H69   H     H_    0.554463 0.799254 0.341385 0.105088
H70   H     H_    0.295524 0.736555 0.281410 0.109984
H71   H     H_    0.278268 0.755812 0.211177 0.109986
O1    O     O_R   0.324990 0.503440 0.453910 -0.520313
O2    O     O_R   0.675430 0.831160 0.051290 -0.518249
O3    O     O_R   0.698870 0.998880 0.039560 -0.500676
O4    O     O_R   0.522030 0.339050 0.458320 -0.503216
O5    O     O_R   0.811290 0.006780 0.950620 -0.517023
O6    O     O_R   0.980960 0.812920 0.953200 -0.500684
O7    O     O_R   0.001480 0.656720 0.955830 -0.520487
O8    O     O_R   0.809240 0.683250 0.968050 -0.501694
O9    O     O_R   0.652500 0.818540 0.967340 -0.520673
O10   O     O_R   0.677620 0.987170 0.961730 -0.502436
O11   O     O_3   0.833240 0.833660 0.999890 -0.235428
O12   O     O_R   0.639980 0.519500 0.542640 -0.503270
O13   O     O_R   0.676180 0.324490 0.458320 -0.518062
O14   O     O_R   0.643570 0.521510 0.464260 -0.501421
O15   O     O_R   0.504630 0.675350 0.460920 -0.518620
O16   O     O_R   0.339850 0.642450 0.459830 -0.498103
O17   O     O_R   0.321120 0.501280 0.538470 -0.518186
O18   O     O_R   0.518440 0.337050 0.536710 -0.499866
O19   O     O_R   0.672300 0.322330 0.542880 -0.520914
O20   O     O_R   0.500750 0.673190 0.545480 -0.520585
O21   O     O_R   0.336260 0.640450 0.538210 -0.503971
O22   O     O_3   0.499990 0.499990 0.500010 -0.235636
O23   O     O_R   0.834210 0.019400 0.034570 -0.522173
O24   O     O_R   0.002210 0.824620 0.031030 -0.503139
O25   O     O_R   0.024400 0.669340 0.039790 -0.519645
O26   O     O_R   0.830490 0.694950 0.045870 -0.502241

loop_
_geom_bond_atom_site_label_1
_geom_bond_atom_site_label_2
_ccdc_geom_bond_type
C45   H68   S    
Cr2   O22   S    
Cr3   O22   S    
Cr4   O6    S    
C93   C94   A    
C4    H44   S    
C39   O5    A    
C1    O13   A    
C18   C21   A    
C77   H58   S    
C37   O8    A    
C108  C120  A    
C93   H22   S    
C111  C112  A    
C24   C27   A    
Cr6   O2    S    
C32   O25   A    
C14   C33   A    
C81   C82   A    
C47   C49   A    
Cr3   O16   S    
Cr4   O24   S    
C56   C57   A    
C89   H18   S    
C72   O19   A    
C101  C102  A    
C96   O17   A    
Cr1   O22   S    
C57   H2    S    
C28   C29   A    
C76   C78   A    
C113  C114  A    
C82   H10   S    
C69   C70   A    
C109  C111  A    
C71   H8    S    
C5    C6    A    
C80   C81   A    
C84   O12   A    
C114  H35   S    
C106  C107  A    
C1    O4    A    
Cr5   O7    S    
C115  C116  A    
Cr2   O12   S    
C116  C117  A    
C18   C19   A    
C73   C74   A    
C115  H37   S    
C36   C119  S    
C2    C13   A    
C60   O16   A    
C22   C66   A    
C111  H32   S    
C60   O1    A    
C102  C112  S    
Cr6   O11   S    
C49   H12   S    
C79   H16   S    
C19   C20   A    
C77   C88   A    
C10   C20   S    
C8    C9    A    
C65   C67   A    
Cr2   O13   S    
C70   H6    S    
C24   H62   S    
C87   H17   S    
C29   C30   A    
C9    C10   A    
C40   H39   S    
C17   H49   S    
C81   H21   S    
C41   C42   A    
Cr2   O19   S    
Cr3   O21   S    
C101  H30   S    
C73   H67   S    
C56   H45   S    
C50   H34   S    
C80   C90   S    
C33   C46   S    
C107  C109  A    
C94   C95   A    
C27   H64   S    
C67   C68   A    
C109  H31   S    
C25   C44   A    
C32   C54   S    
C37   C98   S    
C34   O26   A    
C92   C97   A    
C50   C51   A    
C6    C7    A    
Cr3   O20   S    
Cr3   O15   S    
C100  H24   S    
C48   C53   S    
C35   C76   S    
C13   C77   A    
C110  H60   S    
C61   H56   S    
C50   C53   A    
C59   C61   A    
C29   H55   S    
C63   C64   A    
C27   C31   A    
C51   C52   A    
C88   C99   A    
C48   O14   A    
C47   H69   S    
C26   H23   S    
Cr6   O9    S    
C62   H71   S    
C86   C95   S    
C76   C82   A    
C91   C92   A    
C83   H14   S    
Cr4   O11   S    
Cr5   O25   S    
C35   O3    A    
C58   C59   A    
C85   C86   A    
C99   C110  A    
C30   C99   S    
C43   H63   S    
C17   C21   A    
C63   H70   S    
C9    H42   S    
C40   C46   A    
Cr6   O10   S    
C62   C63   A    
Cr1   O17   S    
C7    C119  A    
Cr6   O3    S    
C26   C33   A    
C98   C104  A    
C12   C15   A    
C69   Cl1   S    
C16   C20   A    
C115  C118  A    
Cr2   O14   S    
C28   H66   S    
C23   H53   S    
C69   C74   A    
C14   H51   S    
C13   C44   S    
C43   C45   A    
C85   H13   S    
C39   O10   A    
C116  H26   S    
C114  C118  A    
C84   O20   A    
C113  C117  A    
C16   H48   S    
C58   C68   S    
C31   C72   S    
C72   O18   A    
C105  C112  A    
C18   H52   S    
C8    C15   A    
C14   C120  A    
C10   C11   A    
C87   C89   A    
C6    H50   S    
Cr1   O1    S    
C45   C46   A    
C24   C30   A    
C19   H41   S    
C1    C97   S    
C3    C4    A    
C93   C97   A    
C70   C75   A    
C55   C66   A    
C3    H38   S    
C12   H47   S    
C41   H27   S    
C51   H15   S    
C83   C90   A    
C7    H40   S    
C48   O15   A    
C40   C41   A    
C11   H46   S    
C60   C75   S    
C83   C85   A    
C86   C87   A    
C54   C61   A    
C103  H36   S    
C66   H54   S    
C28   C31   A    
C26   C38   A    
C4    C5    A    
Cr5   O11   S    
C32   O24   A    
C3    C119  A    
C120  H1    S    
C54   C56   A    
C47   C52   A    
C21   C96   S    
Cr4   O23   S    
C8    H43   S    
C96   O21   A    
C105  C106  A    
C59   H7    S    
C98   C100  A    
C62   C68   A    
C34   C108  S    
C55   H65   S    
C104  H25   S    
C35   O23   A    
C38   H4    S    
Cr4   O5    S    
C71   C75   A    
C78   C79   A    
C44   C55   A    
Cr1   O4    S    
C57   C58   A    
C16   C17   A    
Cr5   O8    S    
C94   H11   S    
C22   C39   S    
C64   C65   A    
C100  C101  A    
C67   H5    S    
Cr1   O18   S    
Cr5   O26   S    
C36   O7    A    
C23   C25   A    
C113  H33   S    
C38   C108  A    
C102  C103  A    
C2    H61   S    
C5    C15   S    
C49   C53   A    
C88   H57   S    
C25   H59   S    
C91   C95   A    
C79   C80   A    
C34   O2    A    
C105  H29   S    
C84   C118  S    
C106  H28   S    
C42   C43   A    
C65   H3    S    
C71   C73   A    
C103  C104  A    
C64   C74   S    
C22   C23   A    
C36   O6    A    
C89   C90   A    
C37   O9    A    
C78   H9    S    
C107  C117  S    
C91   H19   S    
C11   C12   A    
C42   C52   S    
C92   H20   S    
C2    C110  A    
