data_mof_unit_46267.cif
_audit_creation_date              2013-03-05T16:33:12-0500
_audit_creation_method            fapswitch 2.2
_symmetry_space_group_name_H-M    P1
_symmetry_Int_Tables_number       1
_space_group_crystal_system       triclinic
_cell_length_a                    27.817142
_cell_length_b                    10.915805
_cell_length_c                    9.565761
_cell_angle_alpha                 90.387025
_cell_angle_beta                  90.044904
_cell_angle_gamma                 90.162519
_cell_volume                      2904.53093932

loop_
_atom_site_label
_atom_site_type_symbol
_atom_site_description
_atom_site_fract_x
_atom_site_fract_y
_atom_site_fract_z
_atom_type_partial_charge
O1    O     O_R   0.500000 0.319640 0.618810 -0.593844
O2    O     O_R   0.500010 0.319680 0.381230 -0.590240
C1    C     C_R   0.500607 0.263068 0.499752 0.786616
O3    O     O_R   0.430260 0.500000 0.618780 -0.620632
O4    O     O_R   0.430270 0.500040 0.381190 -0.543419
C2    C     C_R   0.407303 0.497084 0.499835 0.845476
Cu1   Cu    Cu3+1 0.500000 0.499980 0.640670 0.958207
Cu2   Cu    Cu3+1 0.500000 0.500020 0.359330 0.947284
O5    O     O_R   0.499990 0.680320 0.618770 -0.546957
O6    O     O_R   0.500000 0.680360 0.381190 -0.592822
O7    O     O_R   0.569730 0.499960 0.618810 -0.546139
O8    O     O_R   0.569740 0.500000 0.381220 -0.597923
C3    C     C_R   0.500135 0.737573 0.498951 0.819337
C4    C     C_R   0.592429 0.502286 0.499719 0.866674
C5    C     C_R   0.177466 0.403760 0.455903 0.559997
O9    O     O_2   0.203438 0.300082 0.443008 -0.475367
N1    N     N_R   0.200894 0.513045 0.476102 -0.466313
C6    C     C_R   0.176439 0.621433 0.479300 0.537817
C7    C     C_R   0.280039 0.567390 0.386990 -0.232385
C8    C     C_R   0.330257 0.565325 0.392324 0.340897
C9    C     C_R   0.325622 0.435203 0.599813 0.030416
C10   C     C_R   0.275090 0.454609 0.604570 0.111471
C11   C     C_R   0.252422 0.513319 0.491147 0.249642
C12   C     C_R   0.101013 0.510677 0.455051 -0.126213
C13   C     C_R   0.126751 0.399245 0.450954 -0.072840
C14   C     C_R   0.101283 0.287328 0.442883 0.455021
C15   C     C_R   0.126287 0.622540 0.464888 -0.001283
C16   C     C_R   0.353757 0.498635 0.498371 -0.137842
C17   C     C_R   0.645352 0.506370 0.496786 -0.083527
C18   C     C_R   0.973880 0.399601 0.471163 0.083116
C19   C     C_R   0.973832 0.621746 0.429595 -0.046267
C20   C     C_R   0.948541 0.510933 0.452192 0.067100
C21   C     C_R   0.947597 0.293613 0.507746 -0.201913
C22   C     C_R   0.897861 0.296190 0.519670 -0.138619
C23   C     C_R   0.872406 0.403625 0.492345 0.000738
C24   C     C_R   0.897525 0.511269 0.456380 -0.094382
C25   C     C_R   0.871588 0.618687 0.424436 -0.133287
C26   C     C_R   0.820947 0.611147 0.417822 0.543449
N2    N     N_R   0.797570 0.509813 0.466957 -0.458452
C27   C     C_R   0.822177 0.406516 0.502714 0.535056
C28   C     C_R   0.719031 0.442128 0.384731 -0.111681
C29   C     C_R   0.669335 0.438991 0.393567 -0.329032
C30   C     C_R   0.671609 0.578732 0.592973 0.347321
C31   C     C_R   0.722903 0.580079 0.586938 0.029772
C32   C     C_R   0.746075 0.511244 0.479926 0.297355
O10   O     O_2   0.798032 0.306837 0.547601 -0.544883
C33   C     C_R   0.024648 0.398380 0.456513 -0.001135
C34   C     C_R   0.050010 0.510700 0.450548 0.072737
C35   C     C_R   0.024735 0.623247 0.442030 0.084052
C36   C     C_R   0.050856 0.288221 0.447166 -0.312547
H1    H     H_    0.649447 0.382740 0.319744 0.168037
H2    H     H_    0.736879 0.389634 0.303615 0.162024
H3    H     H_    0.879374 0.212871 0.549484 0.189413
H4    H     H_    0.964758 0.208203 0.533556 0.145173
H5    H     H_    0.032686 0.201100 0.438566 0.134698
O11   O     O_2   0.200601 0.727764 0.497477 -0.538953
C37   C     C_R   0.101007 0.733042 0.462968 -0.139570
H6    H     H_    0.261973 0.613447 0.302007 0.150084
H7    H     H_    0.119615 0.820129 0.471322 0.190109
C38   C     C_R   0.947287 0.727873 0.397454 -0.211743
C39   C     C_R   0.897210 0.728214 0.397171 0.431765
O12   O     O_2   0.795168 0.701939 0.359667 -0.529586
C40   C     C_R   0.051268 0.733673 0.449969 -0.210194
H8    H     H_    0.964588 0.813299 0.371615 0.163591
H9    H     H_    0.034387 0.822436 0.452677 0.134955
C41   C     C_R   0.504037 0.062301 0.618569 -0.001981
C42   C     C_R   0.502470 0.131069 0.497591 -0.107726
C43   C     C_R   0.501962 0.067525 0.369642 -0.230429
H10   H     H_    0.500154 0.118491 0.273027 0.160554
C44   C     C_R   0.500500 0.938551 0.364289 0.074927
C45   C     C_R   0.502117 0.870814 0.492946 -0.127598
C46   C     C_R   0.505900 0.938710 0.615789 -0.002191
C47   C     C_3   0.501757 0.929222 0.771140 0.223326
C48   C     C_3   0.499773 0.071375 0.774160 -0.168719
H11   H     H_    0.468491 0.880532 0.801793 0.135602
H12   H     H_    0.531750 0.117465 0.821013 0.172063
C49   C     C_R   0.541207 0.478784 0.073836 0.235813
N3    N     N_R   0.500300 0.500930 0.147930 -0.185135
C50   C     C_R   0.458372 0.511926 0.074015 -0.077226
H13   H     H_    0.424663 0.523688 0.127937 0.195295
C51   C     C_R   0.458388 0.512405 0.925784 -0.104042
H14   H     H_    0.424690 0.524922 0.871800 0.144483
N4    N     N_R   0.500310 0.500890 0.852020 -0.174768
C52   C     C_R   0.541194 0.478478 0.926524 0.231551
C53   C     C_3   0.586017 0.553226 0.922679 -0.435345
C54   C     C_3   0.586020 0.553486 0.080680 -0.498277
H15   H     H_    0.616558 0.500674 0.877832 0.209692
H16   H     H_    0.579954 0.645516 0.877716 0.277340
H17   H     H_    0.616654 0.501733 0.125239 0.200436
H18   H     H_    0.580156 0.645793 0.127407 0.220310
C55   C     C_3   0.347043 0.333333 0.688296 -0.423101
C56   C     C_3   0.334923 0.205835 0.628153 -0.339128
C57   C     C_3   0.361665 0.179178 0.491827 -0.775058
H19   H     H_    0.349875 0.242705 0.408465 0.258044
H20   H     H_    0.400979 0.188850 0.507532 0.226965
H21   H     H_    0.353939 0.083892 0.457032 0.240193
H22   H     H_    0.345200 0.135572 0.706056 0.201047
H23   H     H_    0.295682 0.196418 0.609391 0.252231
H24   H     H_    0.386185 0.339695 0.699042 0.211976
H25   H     H_    0.333755 0.339500 0.797098 0.172275
O13   O     O_3   0.645744 0.650718 0.685122 -0.755386
H26   H     H_    0.665842 0.674107 0.765971 0.323895
O14   O     O_3   0.874940 0.839095 0.376075 -0.692041
H27   H     H_    0.850007 0.848137 0.449337 0.344436
C58   C     C_3   0.752861 0.650254 0.694554 -0.415030
C59   C     C_3   0.750731 0.789661 0.672957 -0.337452
C60   C     C_3   0.783256 0.856873 0.776784 -0.808751
H28   H     H_    0.771959 0.836973 0.885679 0.269665
H29   H     H_    0.821235 0.828301 0.762065 0.252289
H30   H     H_    0.780802 0.957153 0.759502 0.258138
H31   H     H_    0.762462 0.812892 0.565721 0.264944
H32   H     H_    0.713541 0.824257 0.685821 0.236684
H33   H     H_    0.740925 0.626253 0.801738 0.190370
H34   H     H_    0.791056 0.621441 0.691016 0.207918
C61   C     C_3   0.491286 0.882704 0.220789 -0.362087
C62   C     C_3   0.437621 0.850970 0.205258 -0.303648
C63   C     C_3   0.424251 0.817438 0.055385 -0.841861
H35   H     H_    0.452433 0.759596 0.006834 0.272967
H36   H     H_    0.389654 0.766626 0.053527 0.241892
H37   H     H_    0.419558 0.901913 0.993573 0.240580
H38   H     H_    0.428455 0.773224 0.274052 0.274207
H39   H     H_    0.415284 0.930384 0.238502 0.212952
H40   H     H_    0.501916 0.947801 0.138259 0.191195
H41   H     H_    0.514963 0.803910 0.197423 0.227209
C64   C     C_3   0.245808 0.418999 0.732964 -0.364283
C65   C     C_3   0.255935 0.507722 0.854801 -0.390382
C66   C     C_3   0.229577 0.468409 0.987052 -0.797353
H42   H     H_    0.190204 0.464220 0.968029 0.259367
H43   H     H_    0.242420 0.377126 0.021306 0.262579
H44   H     H_    0.236634 0.535861 0.071928 0.237272
H45   H     H_    0.295041 0.512695 0.877711 0.215284
H46   H     H_    0.243767 0.601097 0.825667 0.241068
H47   H     H_    0.206641 0.422201 0.712738 0.206567
H48   H     H_    0.253188 0.323159 0.763799 0.204224
O15   O     O_3   0.543191 0.880776 0.834428 -0.725452
H49   H     H_    0.571884 0.922291 0.794789 0.335978
C67   C     C_3   0.450943 0.124398 0.821164 -0.392955
C68   C     C_3   0.452563 0.167992 0.973584 -0.349917
C69   C     C_3   0.404275 0.218457 0.022112 -0.844750
H50   H     H_    0.395152 0.302088 0.962922 0.241424
H51   H     H_    0.375469 0.148863 0.007391 0.253606
H52   H     H_    0.406422 0.242928 0.134866 0.251737
H53   H     H_    0.461836 0.090556 0.041117 0.224829
H54   H     H_    0.480550 0.240025 0.986624 0.220775
H55   H     H_    0.442011 0.203938 0.755776 0.233354
H56   H     H_    0.421616 0.056203 0.806229 0.182382
O16   O     O_3   0.125948 0.177687 0.433774 -0.667535
H57   H     H_    0.102808 0.108460 0.430178 0.312103
O17   O     O_3   0.356970 0.626951 0.293428 -0.761896
H58   H     H_    0.335063 0.668558 0.227226 0.316075

loop_
_geom_bond_atom_site_label_1
_geom_bond_atom_site_label_2
_geom_bond_distance
_ccdc_geom_bond_type
C64   H48   1.108570 S    
Cu1   N4    2.021693 S    
C40   H9    1.078079 S    
C57   H19   1.110251 S    
C35   C40   1.413193 A    
C17   C29   1.398197 A    
C47   H11   1.106567 S    
C47   C48   1.552919 S    
C7    C11   1.392043 A    
C7    C8    1.398083 A    
C12   C15   1.409830 A    
C66   H43   1.110910 S    
C51   H14   1.079339 S    
C56   H23   1.110459 S    
O15   H49   0.993447 S    
C59   H32   1.108936 S    
C49   N3    1.362393 A    
C8    O17   1.380752 S    
Cu1   O7    1.951091 S    
C65   C66   1.526172 S    
C48   H12   1.113100 S    
N4    C52   1.365213 A    
C20   C24   1.419728 A    
C58   H33   1.110756 S    
C24   C25   1.413553 A    
C39   O14   1.377262 S    
C68   H53   1.098493 S    
C14   C36   1.403425 A    
C53   C54   1.511386 S    
C26   N2    1.367742 A    
O7    C4    1.303275 A    
C5    C13   1.412216 A    
C59   C60   1.525856 S    
C64   H47   1.107112 S    
C61   C62   1.538350 S    
C41   C48   1.495790 S    
C62   C63   1.522809 S    
C5    N1    1.370190 A    
C22   C23   1.397700 A    
C28   C29   1.385386 A    
O5    C3    1.309176 A    
O16   H57   0.991663 S    
C2    C16   1.489683 S    
C47   O15   1.407580 S    
C43   H10   1.083140 S    
C60   H28   1.110943 S    
C44   C45   1.440762 A    
C55   H25   1.106420 S    
C28   H2    1.083106 S    
C6    O11   1.349752 S    
C29   H1    1.083219 S    
N2    C32   1.438028 S    
C41   C42   1.384362 A    
C67   C68   1.531238 S    
C57   H20   1.108399 S    
C9    C10   1.422839 A    
C17   C30   1.410611 A    
Cu2   N3    2.022318 S    
C60   H29   1.111194 S    
C19   C35   1.420912 A    
O3    Cu1   1.951076 S    
C51   N4    1.369122 A    
C56   H22   1.110830 S    
C37   C40   1.389119 A    
C33   C36   1.410330 A    
C59   H31   1.107523 S    
C53   H15   1.111256 S    
C7    H6    1.082805 S    
C48   C67   1.544066 S    
C41   C46   1.350319 A    
C61   H40   1.105606 S    
C62   H38   1.106737 S    
C42   C43   1.402772 A    
C12   C34   1.419379 A    
O13   H26   0.985758 S    
C18   C33   1.419358 A    
Cu1   Cu2   2.691233 S    
C12   C13   1.413514 A    
O3    C2    1.304483 A    
C15   C37   1.398174 A    
C63   H37   1.106736 S    
C55   C56   1.538781 S    
C50   C51   1.417989 A    
N3    C50   1.369397 A    
C10   C64   1.526177 S    
C8    C16   1.413495 A    
C49   C52   1.409137 A    
C13   C14   1.412099 A    
C31   C58   1.524918 S    
O6    C3    1.284318 A    
C38   C39   1.392998 A    
O1    C1    1.291999 A    
C23   C24   1.410111 A    
C19   C38   1.411068 A    
C27   O10   1.349823 S    
C30   C31   1.428097 A    
C30   O13   1.380927 S    
C25   C26   1.412204 A    
C58   H34   1.109379 S    
C33   C34   1.414324 A    
C65   H46   1.112099 S    
Cu2   O8    1.951070 S    
N1    C6    1.366611 A    
N1    C11   1.440452 S    
C52   C53   1.488770 S    
C62   H39   1.112806 S    
C43   C44   1.408914 A    
C34   C35   1.420001 A    
C9    C16   1.428554 A    
O8    C4    1.297017 A    
C49   C54   1.488812 S    
C57   H21   1.110309 S    
C54   H18   1.112036 S    
C64   C65   1.535680 S    
C60   H30   1.110434 S    
C4    C17   1.473021 S    
C66   H42   1.110868 S    
N2    C27   1.366073 A    
C31   C32   1.421738 A    
C9    C55   1.524361 S    
C53   H16   1.111321 S    
C67   H55   1.102335 S    
C21   H4    1.078653 S    
Cu1   O5    1.981078 S    
C61   H41   1.106504 S    
C18   C21   1.413016 A    
O1    Cu1   1.978226 S    
C19   C20   1.415555 A    
O2    Cu2   1.981080 S    
C6    C15   1.401884 A    
C46   C47   1.494864 S    
C54   H17   1.110140 S    
O4    Cu2   1.951094 S    
C25   C39   1.416007 A    
C69   H50   1.107449 S    
C44   C61   1.519489 S    
C3    C45   1.456838 S    
C58   C59   1.538385 S    
C36   H5    1.078331 S    
C38   H8    1.078445 S    
C67   H56   1.111290 S    
C63   H36   1.109488 S    
O2    C1    1.295007 A    
C66   H44   1.109369 S    
C45   C46   1.388812 A    
C68   H54   1.111282 S    
O17   H58   0.991724 S    
C18   C20   1.419258 A    
C69   H51   1.110831 S    
O4    C2    1.303378 A    
C1    C42   1.441969 S    
C65   H45   1.110594 S    
C56   C57   1.528480 S    
C69   H52   1.110924 S    
C21   C22   1.388662 A    
C23   C27   1.401258 A    
C14   O16   1.383490 S    
C37   H7    1.083569 S    
C68   C69   1.524772 S    
C50   H13   1.078124 S    
C22   H3    1.083535 S    
Cu2   O6    1.978225 S    
O14   H27   0.991023 S    
C28   C32   1.396709 A    
C10   C11   1.412830 A    
C55   H24   1.095531 S    
C63   H35   1.108305 S    
C5    O9    1.349398 S    
C26   O12   1.347878 S    
