data_mof_unit_48580.cif
_audit_creation_date              2012-12-10T17:34:57-0500
_audit_creation_method            fapswitch 2.2
_symmetry_space_group_name_H-M    P1
_symmetry_Int_Tables_number       1
_space_group_crystal_system       triclinic
_cell_length_a                    12.017433
_cell_length_b                    12.813557
_cell_length_c                    15.734514
_cell_angle_alpha                 90.260393
_cell_angle_beta                  86.99232
_cell_angle_gamma                 93.986125
_cell_volume                      2413.70424677

loop_
_atom_site_label
_atom_site_type_symbol
_atom_type_description
_atom_site_fract_x
_atom_site_fract_y
_atom_site_fract_z
_atom_type_partial_charge
C1    C     C_R   0.522772 0.700233 0.501964 0.866200
C2    C     C_3   0.442354 0.596681 0.050596 -0.093404
C3    C     C_3   0.498502 0.498841 0.082772 0.270524
C4    C     C_3   0.429320 0.400034 0.052370 -0.564063
C5    C     C_3   0.424891 0.398878 0.953036 0.653339
C6    C     C_1   0.497154 0.499300 0.174423 -0.019042
C7    C     C_1   0.501511 0.498151 0.825674 -0.018052
C8    C     C_1   0.502050 0.499143 0.750372 -0.175603
C9    C     C_R   0.462521 0.188287 0.506109 -0.035957
C10   C     C_R   0.538735 0.811870 0.505318 -0.079261
C11   C     C_R   0.623708 0.967741 0.438353 -0.223025
C12   C     C_R   0.500750 0.500033 0.661597 0.882907
C13   C     C_R   0.620628 0.861009 0.449918 -0.236879
C14   C     C_R   0.464089 0.869650 0.555420 0.033514
C15   C     C_R   0.460485 0.975882 0.537617 0.162843
C16   C     C_R   0.542217 0.024661 0.479694 0.153774
C17   C     C_R   0.542510 0.130463 0.464599 -0.266381
C18   C     C_R   0.377517 0.140664 0.559490 -0.199110
C19   C     C_R   0.376670 0.034506 0.575656 -0.214940
C20   C     C_R   0.949530 0.390721 0.430719 -0.304814
C21   C     C_R   0.834552 0.402812 0.436436 0.018892
C22   C     C_R   0.860477 0.547355 0.529600 -0.014293
C23   C     C_R   0.477309 0.299636 0.500868 0.880968
C24   C     C_R   0.977092 0.538504 0.525605 0.028828
C25   C     C_R   0.022767 0.460757 0.473553 -0.015599
C26   C     C_R   0.140687 0.455426 0.466530 0.603245
C27   C     C_R   0.163785 0.592832 0.567577 -0.067833
C28   C     C_R   0.048539 0.604704 0.572732 -0.330421
C29   C     C_R   0.499203 0.499960 0.338421 0.906791
C30   C     C_3   0.449388 0.598388 0.951821 -0.456676
C31   C     C_3   0.621165 0.498315 0.946399 -0.568505
C32   C     C_3   0.621121 0.498764 0.044852 -0.040863
C33   C     C_1   0.497424 0.499669 0.249688 -0.199482
C34   C     C_3   0.499353 0.496849 0.917315 0.245201
H1    H     H_    0.364561 0.605880 0.928308 0.205204
H2    H     H_    0.352319 0.588987 0.072364 0.166153
H3    H     H_    0.463831 0.327855 0.075750 0.154574
H4    H     H_    0.606842 0.168671 0.422151 0.141880
H5    H     H_    0.315339 0.186247 0.591677 0.162911
H6    H     H_    0.686635 0.005023 0.394437 0.144621
H7    H     H_    0.310934 0.999297 0.618121 0.158462
H8    H     H_    0.678922 0.816151 0.412644 0.167631
H9    H     H_    0.501601 0.668042 0.927199 0.163416
H10   H     H_    0.218531 0.643329 0.604656 0.169716
H11   H     H_    0.979930 0.326198 0.393793 0.174822
H12   H     H_    0.015540 0.664562 0.613775 0.159466
H13   H     H_    0.778720 0.349222 0.402887 0.130073
H14   H     H_    0.823867 0.606854 0.568977 0.121087
H15   H     H_    0.666435 0.432756 0.918261 0.182307
H16   H     H_    0.669221 0.570437 0.921965 0.179758
H17   H     H_    0.667842 0.571895 0.065159 0.158753
H18   H     H_    0.343446 0.400217 0.082481 0.178149
N1    N     N_R   0.207800 0.519340 0.515510 -0.139764
N2    N     N_R   0.792190 0.480660 0.484490 -0.099852
O1    O     O_R   0.421690 0.658830 0.504140 -0.611671
O2    O     O_R   0.609320 0.646410 0.494190 -0.630450
O3    O     O_R   0.406150 0.506210 0.627840 -0.618608
O4    O     O_R   0.593770 0.493790 0.617880 -0.616334
O5    O     O_R   0.390680 0.353590 0.505810 -0.575402
O6    O     O_R   0.578310 0.341170 0.495860 -0.630780
O7    O     O_R   0.406230 0.506210 0.382120 -0.596566
O8    O     O_R   0.593850 0.493790 0.372160 -0.614945
Zn1   Zn    Zn3+2 0.374720 0.508290 0.506640 0.983852
Zn2   Zn    Zn3+2 0.625280 0.491710 0.493360 0.944050
N3    N     N_3   0.491065 0.694616 0.086324 -0.465759
H19   H     H_    0.440429 0.754701 0.072088 0.185138
H20   H     H_    0.569799 0.714290 0.057133 0.184941
N4    N     N_3   0.392794 0.822179 0.623582 -0.463746
H21   H     H_    0.418986 0.749289 0.639944 0.180634
H22   H     H_    0.405953 0.866665 0.678490 0.163852
O9    O     O_3   0.189477 0.384718 0.412075 -0.594148
C35   C     C_3   0.190198 0.422458 0.327638 -0.295069
H23   H     H_    0.212984 0.508138 0.322589 0.162609
H24   H     H_    0.108454 0.404574 0.299398 0.140121
H25   H     H_    0.253279 0.381880 0.288283 0.188616
N5    N     N_3   0.679380 0.411178 0.077163 -0.460149
H26   H     H_    0.651841 0.341097 0.048502 0.184503
H27   H     H_    0.764437 0.423774 0.059703 0.182121
O10   O     O_3   0.313430 0.411813 0.928920 -0.603559
C36   C     C_3   0.240043 0.321097 0.939558 -0.328815
H28   H     H_    0.153007 0.344670 0.939072 0.187054
H29   H     H_    0.248464 0.280389 0.000842 0.140821
H30   H     H_    0.252492 0.266659 0.885282 0.185941
N6    N     N_3   0.466583 0.301290 0.916359 -0.464059
H31   H     H_    0.425696 0.236052 0.946856 0.154973
H32   H     H_    0.550220 0.295678 0.928798 0.138642

loop_
_geom_bond_atom_site_label_1
_geom_bond_atom_site_label_2
_ccdc_geom_bond_type
C22   H14   S    
C11   C13   A    
C3    C6    S    
C7    C8    T    
C22   N2    A    
C23   O5    A    
C28   H12   S    
C30   H1    S    
C4    H18   S    
C1    O2    A    
N6    H32   S    
C36   H30   S    
C21   N2    A    
C20   C25   A    
C15   C16   A    
C29   C33   S    
C18   C19   A    
O7    Zn1   S    
O8    Zn2   S    
N4    H21   S    
C27   H10   S    
C16   C17   A    
N3    H20   S    
O1    Zn1   S    
O2    Zn2   S    
C5    O10   S    
C20   H11   S    
C12   O4    A    
C2    N3    S    
C26   O9    S    
C3    C32   S    
C31   H15   S    
C35   H25   S    
C13   H8    S    
O3    Zn1   S    
N5    H26   S    
O4    Zn2   S    
C23   O6    A    
C29   O7    A    
C30   C34   S    
N6    H31   S    
C35   H24   S    
C10   C14   A    
C5    N6    S    
C35   H23   S    
C25   C26   A    
C15   C19   A    
C18   H5    S    
C32   H17   S    
C11   C16   A    
C31   C32   S    
C8    C12   S    
C5    C34   S    
C20   C21   A    
C31   C34   S    
C24   C25   A    
C12   O3    A    
C9    C17   A    
C7    C34   S    
C22   C24   A    
C30   H9    S    
C31   H16   S    
C3    C4    S    
C26   N1    A    
C2    H2    S    
C29   O8    A    
C9    C23   S    
C1    C10   S    
C24   C28   A    
N5    H27   S    
C36   H28   S    
C10   C13   A    
C32   N5    S    
C27   N1    A    
O5    Zn1   S    
C6    C33   T    
O6    Zn2   S    
C2    C30   S    
C2    C3    S    
C1    O1    A    
O9    C35   S    
N1    Zn1   S    
N2    Zn2   S    
C36   H29   S    
C17   H4    S    
C11   H6    S    
O10   C36   S    
C9    C18   A    
C4    C5    S    
C4    H3    S    
N4    H22   S    
N3    H19   S    
C27   C28   A    
C14   N4    S    
C14   C15   A    
C19   H7    S    
C21   H13   S    
