data_mof_unit_15977.cif
_audit_creation_date              2012-12-11T14:21:00-0500
_audit_creation_method            fapswitch 2.2
_symmetry_space_group_name_H-M    P1
_symmetry_Int_Tables_number       1
_space_group_crystal_system       triclinic
_cell_length_a                    11.579843
_cell_length_b                    11.514326
_cell_length_c                    19.520157
_cell_angle_alpha                 90.60444
_cell_angle_beta                  89.987705
_cell_angle_gamma                 60.077965
_cell_volume                      2255.60448357

loop_
_atom_site_label
_atom_site_type_symbol
_atom_type_description
_atom_site_fract_x
_atom_site_fract_y
_atom_site_fract_z
_atom_type_partial_charge
C1    C     C_R   0.640285 0.117678 0.599147 0.549773
C2    C     C_1   0.652508 0.150331 0.668559 0.002999
C3    C     C_R   0.665176 0.667000 0.194331 0.000342
C4    C     C_R   0.612160 0.746183 0.598580 0.545863
C5    C     C_R   0.539773 0.716564 0.225953 -0.001727
C6    C     C_R   0.540088 0.685662 0.294705 -0.044695
C7    C     C_R   0.769918 0.633759 0.305340 -0.149541
C8    C     C_R   0.780368 0.621505 0.234723 -0.153684
C9    C     C_R   0.416753 0.778199 0.189751 0.264331
C10   C     C_R   0.307149 0.775160 0.217802 -0.053584
C11   C     C_R   0.312168 0.724213 0.282996 0.212332
C12   C     C_1   0.640795 0.704010 0.667939 0.004739
C13   C     C_R   0.431798 0.675120 0.320211 -0.116471
C14   C     C_R   0.648393 0.669565 0.336109 0.009336
C15   C     C_R   0.168003 0.182868 0.185345 -0.002169
C16   C     C_R   0.240593 0.145534 0.598067 0.558376
C17   C     C_R   0.244524 0.239044 0.208442 0.009922
C18   C     C_R   0.278395 0.229550 0.278531 0.019793
C19   C     C_R   0.198949 0.070191 0.293400 -0.155663
C20   C     C_R   0.148062 0.096929 0.227632 -0.140110
C21   C     C_R   0.281445 0.311217 0.163741 -0.104950
C22   C     C_R   0.319668 0.399112 0.189632 -0.108716
C23   C     C_1   0.127189 0.198098 0.859402 0.005203
C24   C     C_R   0.332666 0.406964 0.259592 -0.114033
C25   C     C_R   0.322472 0.317347 0.302944 -0.103529
C26   C     C_R   0.260953 0.137746 0.320821 -0.003842
C27   C     C_R   0.670113 0.188005 0.193479 0.006482
C28   C     C_R   0.647382 0.110194 0.402107 0.534810
C29   C     C_R   0.724582 0.055062 0.215245 0.022117
C30   C     C_R   0.750549 0.028537 0.285261 0.030862
C31   C     C_R   0.621886 0.267976 0.310994 -0.167586
C32   C     C_R   0.625122 0.292990 0.241784 -0.145429
C33   C     C_R   0.770925 0.947337 0.167676 -0.099020
C34   C     C_1   0.171352 0.170258 0.727676 -0.031615
C35   C     C_R   0.868824 0.819965 0.186282 -0.119180
C36   C     C_R   0.913365 0.796586 0.253405 -0.102312
C37   C     C_R   0.852324 0.897671 0.302957 -0.065856
C38   C     C_R   0.679130 0.136377 0.333277 0.004764
C39   C     C_R   0.082235 0.230710 0.928719 0.542672
C40   C     C_R   0.617911 0.733615 0.403761 0.538806
C41   C     C_R   0.683992 0.604393 0.929577 0.547130
C42   C     C_R   0.708575 0.206307 0.930224 0.537036
C43   C     C_R   0.087132 0.233377 0.123682 0.536959
C44   C     C_R   0.683094 0.612325 0.125514 0.561135
C45   C     C_1   0.150427 0.181764 0.798967 -0.030387
C46   C     C_R   0.706771 0.211182 0.126141 0.527332
C47   C     C_R   0.300882 0.116444 0.393475 0.554630
C48   C     C_1   0.670570 0.646582 0.860216 0.003873
C49   C     C_1   0.654491 0.683791 0.728413 -0.031178
C50   C     C_1   0.663460 0.666820 0.799730 -0.031171
C51   C     C_3   0.448581 0.927596 0.125027 -0.104751
C52   C     C_3   0.198332 0.701262 0.377111 -0.132858
C53   C     C_1   0.194901 0.161216 0.667277 0.001898
C54   C     C_1   0.679020 0.190455 0.860893 0.003212
C55   C     C_1   0.658260 0.167524 0.729037 -0.031348
C56   C     C_1   0.665825 0.180456 0.800406 -0.030909
Cr1   Cr    Cr6+3 0.404720 0.198220 0.499960 1.005718
Cr2   Cr    Cr6+3 0.698290 0.897110 0.500380 1.012608
Cr3   Cr    Cr6+3 0.396970 0.904720 0.499610 1.012583
Cr4   Cr    Cr6+3 0.926180 0.151990 0.028120 1.040619
Cr5   Cr    Cr6+3 0.921330 0.451820 0.027470 1.013244
Cr6   Cr    Cr6+3 0.626260 0.446870 0.028710 1.041772
H1    H     H_    0.855814 0.614484 0.335737 0.125408
H2    H     H_    0.895260 0.872650 0.353070 0.154450
H3    H     H_    0.878894 0.575256 0.211908 0.147550
H4    H     H_    0.216077 0.814081 0.188562 0.147875
H5    H     H_    0.443218 0.626236 0.368647 0.127851
H6    H     H_    0.180813 0.003523 0.324480 0.161001
H7    H     H_    0.276920 0.303565 0.108637 0.128781
H8    H     H_    0.087742 0.054373 0.210903 0.153243
H9    H     H_    0.446650 0.972294 0.176249 0.110297
H10   H     H_    0.384580 0.010981 0.090480 0.132537
H11   H     H_    0.551011 0.879233 0.103551 0.115524
H12   H     H_    0.340029 0.460431 0.155563 0.127707
H13   H     H_    0.216076 0.772822 0.407815 0.136940
H14   H     H_    0.271281 0.595460 0.389344 0.100601
H15   H     H_    0.099530 0.716637 0.392222 0.124016
H16   H     H_    0.363292 0.474355 0.279972 0.143012
H17   H     H_    0.348160 0.323367 0.354872 0.167305
H18   H     H_    0.574994 0.351048 0.347102 0.106485
H19   H     H_    0.740022 0.963706 0.114609 0.114338
H20   H     H_    0.590905 0.394961 0.225900 0.137153
H21   H     H_    0.912257 0.740196 0.148274 0.122279
H22   H     H_    0.992810 0.698304 0.267565 0.153338
O1    O     O_R   0.267740 0.231960 0.575440 -0.501067
O2    O     O_R   0.596130 0.579390 0.952730 -0.493448
O3    O     O_R   0.639060 0.321160 0.958670 -0.497262
O4    O     O_R   0.527280 0.186640 0.570530 -0.493987
O5    O     O_R   0.821240 0.124200 0.104370 -0.513696
O6    O     O_R   0.036890 0.167040 0.097840 -0.491991
O7    O     O_R   0.056180 0.349610 0.102880 -0.528031
O8    O     O_R   0.797660 0.564870 0.097950 -0.522405
O9    O     O_R   0.595880 0.584250 0.104270 -0.471314
O10   O     O_R   0.638830 0.325670 0.099150 -0.513831
O11   O     O_3   0.824590 0.350230 0.028100 -0.255647
O12   O     O_R   0.685970 0.784660 0.430010 -0.501555
O13   O     O_R   0.728090 0.003450 0.576380 -0.503088
O14   O     O_R   0.682970 0.789190 0.570490 -0.492517
O15   O     O_R   0.499290 0.771880 0.575530 -0.509111
O16   O     O_R   0.285330 0.030870 0.569730 -0.488905
O17   O     O_R   0.270980 0.227080 0.423890 -0.530618
O18   O     O_R   0.530280 0.182120 0.430050 -0.532321
O19   O     O_R   0.731330 0.998570 0.424830 -0.533480
O20   O     O_3   0.401058 0.835679 0.125655 -0.549497
O21   O     O_3   0.197908 0.724488 0.306178 -0.594793
O22   O     O_R   0.502530 0.767000 0.423990 -0.537395
O23   O     O_R   0.288330 0.026350 0.429250 -0.498243
O24   O     O_3   0.499990 0.000020 0.499980 -0.264351
O25   O     O_R   0.821500 0.119340 0.952830 -0.508319
O26   O     O_R   0.037130 0.162530 0.957360 -0.489499
O27   O     O_R   0.056440 0.344740 0.951340 -0.510814
O28   O     O_R   0.797900 0.560360 0.957470 -0.497462

loop_
_geom_bond_atom_site_label_1
_geom_bond_atom_site_label_2
_ccdc_geom_bond_type
C55   C56   S    
C47   O17   A    
C4    O14   A    
C27   C29   A    
Cr3   O15   S    
C19   C20   A    
Cr2   O14   S    
Cr2   O13   S    
C52   H13   S    
C12   C49   T    
C7    C8    A    
C46   O5    A    
Cr4   O5    S    
C41   O2    A    
Cr6   O2    S    
C23   C45   T    
C36   C37   A    
C42   O25   A    
C2    C55   T    
C5    C6    A    
C29   C33   A    
C30   C38   A    
C1    C2    S    
C19   C26   A    
Cr2   O12   S    
C16   C53   S    
C43   O7    A    
C44   O9    A    
C39   O26   A    
C35   C36   A    
C41   O28   A    
C18   C26   A    
C11   O21   S    
Cr4   O25   S    
C4    C12   S    
C9    C10   A    
C44   O8    A    
Cr5   O8    S    
C1    O4    A    
C48   C50   T    
C8    H3    S    
Cr6   O11   S    
Cr3   O16   S    
C20   H8    S    
C18   C25   A    
C51   H9    S    
C40   O12   A    
C10   H4    S    
C15   C20   A    
C54   C56   T    
C3    C44   S    
Cr3   O22   S    
C43   O6    A    
C31   H18   S    
C24   C25   A    
C3    C8    A    
C1    O13   A    
C35   H21   S    
C16   O16   A    
C52   H14   S    
C51   O20   S    
C7    C14   A    
C30   C37   A    
C21   H7    S    
C5    C9    A    
C29   C30   A    
Cr1   O18   S    
C6    C14   A    
C31   C32   A    
C46   O10   A    
C28   C38   S    
C17   C18   A    
C19   H6    S    
C34   C45   S    
C7    H1    S    
C26   C47   S    
C27   C46   S    
C24   H16   S    
C52   O21   S    
C47   O23   A    
Cr6   O10   S    
C16   O1    A    
C22   C24   A    
Cr6   O9    S    
C51   H10   S    
C22   H12   S    
C52   H15   S    
Cr5   O27   S    
C37   H2    S    
Cr1   O17   S    
Cr1   O4    S    
C40   O22   A    
C13   H5    S    
C15   C17   A    
C27   C32   A    
C25   H17   S    
C51   H11   S    
C3    C5    A    
Cr5   O11   S    
C42   O3    A    
Cr4   O6    S    
C32   H20   S    
Cr6   O3    S    
Cr3   O24   S    
C31   C38   A    
C15   C43   S    
C42   C54   S    
C6    C13   A    
C11   C13   A    
C28   O19   A    
C36   H22   S    
C9    O20   S    
C23   C39   S    
C39   O27   A    
C33   C35   A    
C41   C48   S    
Cr1   O1    S    
Cr2   O24   S    
Cr3   O23   S    
Cr4   O26   S    
C10   C11   A    
C14   C40   S    
Cr4   O11   S    
C28   O18   A    
Cr1   O24   S    
C34   C53   T    
C49   C50   S    
C4    O15   A    
Cr2   O19   S    
C21   C22   A    
Cr5   O28   S    
C33   H19   S    
Cr5   O7    S    
C17   C21   A    
