data_mof_unit_29343.cif
_audit_creation_date              2013-03-05T15:56:42-0500
_audit_creation_method            fapswitch 2.2
_symmetry_space_group_name_H-M    P1
_symmetry_Int_Tables_number       1
_space_group_crystal_system       triclinic
_cell_length_a                    21.056259
_cell_length_b                    21.470717
_cell_length_c                    13.733771
_cell_angle_alpha                 89.674713
_cell_angle_beta                  89.942994
_cell_angle_gamma                 89.752549
_cell_volume                      6208.78054003

loop_
_atom_site_label
_atom_site_type_symbol
_atom_site_description
_atom_site_fract_x
_atom_site_fract_y
_atom_site_fract_z
_atom_type_partial_charge
O1    O     O_R   0.064880 0.435140 0.582280 -0.591744
O2    O     O_R   0.935120 0.564860 0.417720 -0.591488
O3    O     O_R   0.935120 0.564860 0.582280 -0.591922
O4    O     O_R   0.064880 0.435140 0.417720 -0.589897
O5    O     O_R   0.935120 0.435140 0.417720 -0.578017
O6    O     O_R   0.064880 0.564860 0.582280 -0.586188
O7    O     O_R   0.064880 0.564860 0.417720 -0.583389
O8    O     O_R   0.935120 0.435140 0.582280 -0.577387
O9    O     O_R   0.564880 0.935140 0.582280 -0.576793
O10   O     O_R   0.435120 0.064860 0.417720 -0.575906
O11   O     O_R   0.435120 0.064860 0.582280 -0.575274
O12   O     O_R   0.564880 0.935140 0.417720 -0.579873
O13   O     O_R   0.435120 0.935140 0.417720 -0.600036
O14   O     O_R   0.564880 0.064860 0.582280 -0.590187
O15   O     O_R   0.564880 0.064860 0.417720 -0.590849
O16   O     O_R   0.435120 0.935140 0.582280 -0.595340
C1    C     C_R   0.085693 0.414609 0.500146 0.802206
C2    C     C_R   0.913592 0.584713 0.499877 0.802646
C3    C     C_R   0.913882 0.414859 0.500082 0.792546
C4    C     C_R   0.086196 0.585126 0.499750 0.806590
C5    C     C_R   0.586244 0.915083 0.500059 0.802962
C6    C     C_R   0.414282 0.085395 0.499869 0.801287
C7    C     C_R   0.414155 0.914437 0.500204 0.802617
C8    C     C_R   0.586122 0.085108 0.499725 0.792183
Cu1   Cu    Cu3+1 0.000000 0.500000 0.597420 0.934711
Cu2   Cu    Cu3+1 0.000000 0.500000 0.402580 0.933866
Cu3   Cu    Cu3+1 0.500000 1.000000 0.597420 0.936924
Cu4   Cu    Cu3+1 0.500000 1.000000 0.402580 0.932557
C9    C     C_R   0.150554 0.662682 0.585730 -0.210425
C10   C     C_R   0.876392 0.311486 0.551343 -0.224127
C11   C     C_R   0.877041 0.688316 0.547497 -0.207776
C12   C     C_R   0.118382 0.307132 0.468583 -0.206810
C13   C     C_R   0.625905 0.186292 0.442883 -0.217226
C14   C     C_R   0.351260 0.835413 0.413981 -0.221145
C15   C     C_R   0.382131 0.193503 0.528607 -0.193944
C16   C     C_R   0.622397 0.811225 0.452792 -0.202786
C17   C     C_R   0.135355 0.632614 0.499341 -0.089465
C18   C     C_R   0.865749 0.366467 0.499730 -0.054162
C19   C     C_R   0.865267 0.632709 0.499670 -0.096169
C20   C     C_R   0.133865 0.366519 0.500201 -0.086796
C21   C     C_R   0.635116 0.132594 0.498312 -0.066805
C22   C     C_R   0.365992 0.865803 0.500470 -0.073222
C23   C     C_R   0.366245 0.133669 0.499446 -0.089287
C24   C     C_R   0.634743 0.867180 0.499424 -0.089816
C25   C     C_R   0.167053 0.647653 0.413086 -0.225773
C26   C     C_R   0.810726 0.374481 0.444625 -0.221487
C27   C     C_R   0.808088 0.623037 0.451325 -0.206977
C28   C     C_R   0.195198 0.380542 0.530101 -0.220726
C29   C     C_R   0.691615 0.123179 0.549184 -0.237186
C30   C     C_R   0.335281 0.849538 0.586997 -0.224282
C31   C     C_R   0.304959 0.119693 0.469288 -0.208322
C32   C     C_R   0.693508 0.878163 0.542305 -0.211873
C33   C     C_R   0.213882 0.693723 0.411727 0.007331
C34   C     C_R   0.764425 0.327663 0.441705 0.037878
C35   C     C_R   0.761083 0.669448 0.450781 0.065581
C36   C     C_R   0.243139 0.335130 0.526606 0.067947
C37   C     C_R   0.740222 0.167782 0.545064 0.015116
C38   C     C_R   0.289249 0.802723 0.588380 0.034358
C39   C     C_R   0.257790 0.165921 0.468100 0.064043
C40   C     C_R   0.741273 0.832552 0.539311 0.076337
C41   C     C_R   0.228464 0.724886 0.499685 -0.034379
C42   C     C_R   0.775219 0.271569 0.494544 -0.028807
C43   C     C_R   0.774031 0.727209 0.495947 -0.056860
C44   C     C_R   0.227325 0.274101 0.496265 -0.054325
C45   C     C_R   0.729220 0.224211 0.493544 -0.036664
C46   C     C_R   0.274655 0.771762 0.500221 -0.025017
C47   C     C_R   0.273991 0.227313 0.496177 -0.057951
C48   C     C_R   0.727956 0.774536 0.495159 -0.056714
C49   C     C_R   0.196464 0.709233 0.587131 0.043256
C50   C     C_R   0.832150 0.262887 0.548324 0.016559
C51   C     C_R   0.832718 0.736971 0.543839 0.062943
C52   C     C_R   0.164514 0.259968 0.466623 0.064122
C53   C     C_R   0.672242 0.232878 0.440313 0.048699
C54   C     C_R   0.306171 0.787944 0.412512 0.010213
C55   C     C_R   0.336801 0.241441 0.525785 0.060937
C56   C     C_R   0.668506 0.764151 0.449841 0.058131
C57   C     C_R   0.246585 0.709089 0.324811 0.213543
C58   C     C_R   0.707750 0.335552 0.387334 0.185927
C59   C     C_R   0.701575 0.658813 0.406833 0.177625
C60   C     C_R   0.306150 0.349844 0.553038 0.184864
C61   C     C_R   0.799400 0.157271 0.591099 0.208466
C62   C     C_R   0.257722 0.786046 0.675809 0.179270
C63   C     C_R   0.194968 0.151527 0.440421 0.182823
C64   C     C_R   0.801714 0.843968 0.579905 0.180665
C65   C     C_R   0.844650 0.205038 0.594515 0.210487
C66   C     C_R   0.210681 0.740025 0.674665 0.206623
C67   C     C_R   0.148485 0.199076 0.437185 0.184358
C68   C     C_R   0.846618 0.795060 0.586132 0.179454
C69   C     C_R   0.292428 0.756134 0.325295 0.209443
C70   C     C_R   0.662211 0.287786 0.385742 0.205583
C71   C     C_R   0.655556 0.706789 0.404230 0.189108
C72   C     C_R   0.353242 0.302745 0.552648 0.181069
H1    H     H_    0.125938 0.649771 0.652047 0.194090
H2    H     H_    0.920543 0.306809 0.590946 0.141872
H3    H     H_    0.922001 0.693724 0.584796 0.175749
H4    H     H_    0.069716 0.298027 0.447581 0.164282
H5    H     H_    0.581499 0.191932 0.403891 0.173006
H6    H     H_    0.375871 0.848764 0.348050 0.161775
H7    H     H_    0.430305 0.202132 0.552476 0.168430
H8    H     H_    0.575877 0.804480 0.420946 0.172831
H9    H     H_    0.155107 0.622582 0.347646 0.160446
H10   H     H_    0.804466 0.418041 0.405770 0.135542
H11   H     H_    0.800411 0.578720 0.415902 0.162194
H12   H     H_    0.205085 0.427357 0.554782 0.166277
H13   H     H_    0.696957 0.080654 0.591121 0.135758
H14   H     H_    0.347552 0.874035 0.652834 0.150909
H15   H     H_    0.294547 0.072300 0.448085 0.165438
H16   H     H_    0.701539 0.922470 0.577603 0.157593
C73   C     C_R   0.052193 0.479357 0.793233 0.028275
C74   C     C_R   0.948988 0.523237 0.206579 0.022148
C75   C     C_R   0.948301 0.521599 0.793136 0.026456
C76   C     C_R   0.051452 0.477796 0.206744 0.038427
C77   C     C_R   0.553929 0.015372 0.793009 0.035238
C78   C     C_R   0.445365 0.987230 0.207191 0.026256
C79   C     C_R   0.445528 0.987048 0.793358 0.039977
C80   C     C_R   0.554162 0.014211 0.206822 0.029543
N1    N     N_R   0.000000 0.500000 0.743810 -0.186207
N2    N     N_R   0.000000 0.500000 0.256190 -0.192880
N3    N     N_R   0.500000 1.000000 0.743810 -0.185426
N4    N     N_R   0.500000 0.000000 0.256190 -0.183899
C81   C     C_R   0.947753 0.524722 0.896105 -0.099809
C82   C     C_R   0.053543 0.478082 0.103635 -0.064664
C83   C     C_R   0.053814 0.478260 0.896417 -0.074649
C84   C     C_R   0.947827 0.525044 0.103391 -0.094605
C85   C     C_R   0.443676 0.987313 0.896583 -0.097180
C86   C     C_R   0.555179 0.017128 0.103779 -0.099806
C87   C     C_R   0.555272 0.017324 0.896283 -0.093718
C88   C     C_R   0.443488 0.987094 0.104008 -0.099881
C89   C     C_R   0.000746 0.501438 0.948148 0.000984
C90   C     C_R   0.000673 0.501443 0.051612 -0.014045
C91   C     C_R   0.499562 0.001851 0.948361 -0.002613
C92   C     C_R   0.499421 0.001962 0.051954 0.001852
C93   C     C_R   0.895789 0.550429 0.948075 0.220005
C94   C     C_R   0.106977 0.455212 0.052004 0.228217
C95   C     C_R   0.107220 0.455426 0.948818 0.181632
C96   C     C_R   0.896118 0.551138 0.050851 0.218300
C97   C     C_R   0.387278 0.974248 0.948937 0.216159
C98   C     C_R   0.610141 0.035188 0.051528 0.218616
C99   C     C_R   0.609897 0.036111 0.948737 0.219467
C100  C     C_R   0.387190 0.973552 0.051763 0.222950
H17   H     H_    0.092541 0.463833 0.751426 0.143030
H18   H     H_    0.909248 0.540350 0.248157 0.137999
H19   H     H_    0.907445 0.536192 0.751500 0.142354
H20   H     H_    0.091151 0.460016 0.248091 0.173370
H21   H     H_    0.595679 0.026319 0.750830 0.130286
H22   H     H_    0.403318 0.977534 0.249505 0.133967
H23   H     H_    0.403536 0.976951 0.751459 0.133755
H24   H     H_    0.596410 0.023190 0.248787 0.138175
N5    N     N_2   0.232786 0.679425 0.234743 -0.395233
H25   H     H_    0.185210 0.676463 0.217879 0.241127
C101  C     C_3   0.267804 0.622400 0.217822 -0.684845
H26   H     H_    0.258700 0.606167 0.142559 0.223081
H27   H     H_    0.252852 0.585665 0.270184 0.210203
H28   H     H_    0.319586 0.630232 0.225614 0.244265
N6    N     N_2   0.695910 0.390483 0.331575 -0.431748
H29   H     H_    0.733036 0.405517 0.288627 0.247429
C102  C     C_3   0.664040 0.439764 0.384028 -0.731758
H30   H     H_    0.643246 0.473110 0.330930 0.241619
H31   H     H_    0.698216 0.464496 0.431531 0.236721
H32   H     H_    0.624707 0.421054 0.429465 0.226240
N7    N     N_2   0.687454 0.598854 0.368969 -0.447493
H33   H     H_    0.646282 0.578676 0.394289 0.240619
C103  C     C_3   0.700122 0.589592 0.266492 -0.704820
H34   H     H_    0.728440 0.546331 0.257413 0.227104
H35   H     H_    0.727015 0.629062 0.234527 0.238266
H36   H     H_    0.654738 0.584524 0.226227 0.223166
N8    N     N_2   0.321800 0.412426 0.577591 -0.437309
H37   H     H_    0.352722 0.417697 0.634908 0.246805
C104  C     C_3   0.336288 0.452185 0.495158 -0.694505
H38   H     H_    0.380319 0.436084 0.458481 0.233068
H39   H     H_    0.343336 0.500675 0.520506 0.224482
H40   H     H_    0.296598 0.452236 0.441930 0.230133
N9    N     N_2   0.816857 0.097197 0.626841 -0.414486
H41   H     H_    0.800302 0.060828 0.585796 0.246628
C105  C     C_3   0.807847 0.087676 0.729982 -0.653178
H42   H     H_    0.830508 0.043045 0.752263 0.227398
H43   H     H_    0.756501 0.084988 0.746042 0.211036
H44   H     H_    0.829637 0.125982 0.772310 0.245344
N10   N     N_2   0.270171 0.816890 0.765154 -0.430147
H45   H     H_    0.268648 0.864748 0.760903 0.247395
C106  C     C_3   0.323136 0.791823 0.820142 -0.713291
H46   H     H_    0.324024 0.813247 0.893489 0.243345
H47   H     H_    0.368694 0.801957 0.782608 0.222701
H48   H     H_    0.318299 0.740633 0.829570 0.233206
N11   N     N_2   0.178662 0.088797 0.418263 -0.436949
H49   H     H_    0.138259 0.071216 0.450392 0.244728
C107  C     C_3   0.189784 0.068781 0.319309 -0.713996
H50   H     H_    0.144115 0.066783 0.279079 0.225158
H51   H     H_    0.211075 0.021416 0.320907 0.228900
H52   H     H_    0.222823 0.100552 0.280085 0.235354
N12   N     N_2   0.819180 0.905894 0.605327 -0.435935
H53   H     H_    0.848969 0.909949 0.664303 0.253644
C108  C     C_3   0.838579 0.943631 0.522700 -0.714108
H54   H     H_    0.869641 0.982082 0.547338 0.225338
H55   H     H_    0.796136 0.963635 0.486037 0.228685
H56   H     H_    0.865892 0.915726 0.468922 0.232520
N13   N     N_2   0.903480 0.192825 0.642413 -0.409221
H57   H     H_    0.917663 0.226463 0.690895 0.239194
C109  C     C_3   0.953742 0.170833 0.579285 -0.660402
H58   H     H_    0.966892 0.207422 0.525493 0.223886
H59   H     H_    0.938465 0.128308 0.540130 0.240422
H60   H     H_    0.996242 0.158959 0.623538 0.220891
N14   N     N_2   0.176589 0.725384 0.761668 -0.432914
H61   H     H_    0.203849 0.724076 0.823934 0.282941
C110  C     C_3   0.118678 0.760936 0.774292 -0.684755
H62   H     H_    0.093254 0.744084 0.840157 0.228736
H63   H     H_    0.086900 0.755096 0.710518 0.226844
H64   H     H_    0.129747 0.811128 0.783465 0.236973
N15   N     N_2   0.085736 0.186345 0.403609 -0.445135
H65   H     H_    0.067265 0.143864 0.423689 0.250756
C111  C     C_3   0.074840 0.201371 0.302111 -0.687947
H66   H     H_    0.086211 0.250946 0.286881 0.238031
H67   H     H_    0.024077 0.193684 0.284195 0.223659
H68   H     H_    0.104577 0.171362 0.254705 0.232223
N16   N     N_2   0.905707 0.803536 0.635074 -0.440683
H69   H     H_    0.903190 0.825994 0.701058 0.245133
C112  C     C_3   0.958114 0.823474 0.574420 -0.704044
H70   H     H_    0.003300 0.816696 0.614690 0.223727
H71   H     H_    0.953291 0.873603 0.555997 0.235012
H72   H     H_    0.960467 0.795725 0.506440 0.234872
N17   N     N_2   0.322533 0.772361 0.235720 -0.395012
H73   H     H_    0.317430 0.818244 0.214617 0.236993
C113  C     C_3   0.385350 0.746437 0.219817 -0.680822
H74   H     H_    0.421520 0.783932 0.221628 0.206834
H75   H     H_    0.386885 0.724255 0.147083 0.237455
H76   H     H_    0.397912 0.710783 0.275744 0.223719
N18   N     N_2   0.606461 0.294404 0.327499 -0.437974
H77   H     H_    0.586528 0.338314 0.327157 0.278566
C114  C     C_3   0.612445 0.268844 0.230677 -0.687624
H78   H     H_    0.566017 0.272170 0.192707 0.224362
H79   H     H_    0.626642 0.218971 0.234260 0.230152
H80   H     H_    0.648365 0.295308 0.188133 0.236233
N19   N     N_2   0.596264 0.697809 0.355927 -0.434794
H81   H     H_    0.577255 0.653837 0.361436 0.253353
C115  C     C_3   0.593320 0.722807 0.257890 -0.698573
H82   H     H_    0.544327 0.717835 0.229201 0.222381
H83   H     H_    0.626523 0.697299 0.209458 0.233139
H84   H     H_    0.605692 0.773031 0.256855 0.235887
N20   N     N_2   0.417335 0.316639 0.578237 -0.437933
H85   H     H_    0.424767 0.345030 0.637249 0.247406
C116  C     C_3   0.461682 0.324968 0.498470 -0.693347
H86   H     H_    0.505076 0.296887 0.512932 0.235072
H87   H     H_    0.475460 0.374698 0.492473 0.214871
H88   H     H_    0.441218 0.309910 0.427814 0.236052
N21   N     N_2   0.843235 0.578172 0.898645 -0.407477
H89   H     H_    0.854673 0.605468 0.839249 0.239424
C117  C     C_3   0.790675 0.536511 0.881775 -0.664616
H90   H     H_    0.805206 0.498523 0.831741 0.208245
H91   H     H_    0.750712 0.562816 0.848255 0.225065
H92   H     H_    0.773896 0.516071 0.951670 0.242230
N22   N     N_2   0.159751 0.429467 0.103824 -0.429133
H93   H     H_    0.182751 0.392611 0.071067 0.281467
C118  C     C_3   0.202334 0.473796 0.148332 -0.735762
H94   H     H_    0.217201 0.455865 0.220792 0.232573
H95   H     H_    0.179127 0.519911 0.158513 0.228478
H96   H     H_    0.245345 0.479871 0.102504 0.230518
N23   N     N_2   0.161687 0.431867 0.899301 -0.442236
H97   H     H_    0.151902 0.400607 0.844690 0.244183
C119  C     C_3   0.207611 0.478651 0.871446 -0.680490
H98   H     H_    0.250494 0.455581 0.841049 0.226534
H99   H     H_    0.222047 0.506404 0.935595 0.241445
H100  H     H_    0.187479 0.510456 0.815264 0.218702
N24   N     N_2   0.844969 0.581545 0.099376 -0.411105
H101  H     H_    0.825516 0.557064 0.156690 0.227546
C120  C     C_3   0.856770 0.646419 0.120520 -0.654684
H102  H     H_    0.812940 0.668534 0.148981 0.217154
H103  H     H_    0.870927 0.671805 0.053221 0.240229
H104  H     H_    0.894875 0.650696 0.175965 0.213991
N25   N     N_2   0.330203 0.959079 0.899286 -0.401909
H105  H     H_    0.335200 0.924014 0.849193 0.234488
C121  C     C_3   0.292613 0.011389 0.864700 -0.682782
H106  H     H_    0.294801 0.014354 0.783968 0.204176
H107  H     H_    0.309359 0.056323 0.895157 0.224963
H108  H     H_    0.242411 0.004495 0.886710 0.240363
N26   N     N_2   0.665917 0.055388 0.100641 -0.406375
H109  H     H_    0.658241 0.084180 0.159329 0.234810
C122  C     C_3   0.712192 0.006769 0.118781 -0.666043
H110  H     H_    0.692489 0.971313 0.169602 0.207914
H111  H     H_    0.755335 0.027261 0.151930 0.223661
H112  H     H_    0.726093 0.984012 0.049441 0.242624
N27   N     N_2   0.664105 0.060685 0.900330 -0.410674
H113  H     H_    0.680424 0.034879 0.842457 0.225835
C123  C     C_3   0.660276 0.127020 0.881502 -0.663409
H114  H     H_    0.707755 0.145067 0.861341 0.224012
H115  H     H_    0.644552 0.152303 0.947783 0.239402
H116  H     H_    0.626500 0.136680 0.821110 0.216031
N28   N     N_2   0.330306 0.956075 0.100811 -0.398147
H117  H     H_    0.336460 0.923425 0.155287 0.224621
C124  C     C_3   0.289907 0.007489 0.129199 -0.681003
H118  H     H_    0.244081 0.989020 0.156586 0.224643
H119  H     H_    0.279791 0.038425 0.066120 0.245857
H120  H     H_    0.312758 0.035062 0.187577 0.207659

loop_
_geom_bond_atom_site_label_1
_geom_bond_atom_site_label_2
_geom_bond_distance
_ccdc_geom_bond_type
C50   C65   1.415271 A    
C121  H108  1.109454 S    
C63   C67   1.411787 A    
N14   H61   1.030585 S    
C72   N20   1.428091 S    
C102  H30   1.108200 S    
O8    Cu1   1.967015 S    
C68   N16   1.427553 S    
C122  H110  1.111267 S    
O5    Cu2   1.965055 S    
C75   C81   1.416143 A    
C115  H83   1.109545 S    
C104  H38   1.109541 S    
C16   H8    1.083753 S    
N26   H109  1.030760 S    
C14   C22   1.394346 A    
C30   H14   1.080748 S    
C2    C19   1.445090 S    
C119  H100  1.110652 S    
C23   C31   1.390218 A    
C74   N2    1.363758 A    
N7    H33   1.030107 S    
N11   H49   1.030100 S    
C113  H76   1.112611 S    
C29   C37   1.405545 A    
N22   H93   1.031212 S    
C12   C52   1.400513 A    
C106  H46   1.109972 S    
O10   C6    1.289493 A    
C112  H72   1.111314 S    
C26   H10   1.081785 S    
O13   C7    1.292562 A    
N17   H73   1.030499 S    
C7    C22   1.458732 S    
O12   Cu4   1.956962 S    
C54   C69   1.413035 A    
C27   C35   1.401434 A    
N26   C122  1.445648 S    
C39   C63   1.412688 A    
C53   C70   1.408645 A    
C116  H86   1.109989 S    
C114  H80   1.111471 S    
C38   C62   1.416404 A    
C69   N17   1.425520 S    
C118  H94   1.109847 S    
C107  H51   1.109732 S    
C11   H3    1.083848 S    
C58   N6    1.423783 S    
N22   C118  1.448630 S    
O6    Cu1   1.965052 S    
C123  H115  1.111919 S    
C41   C49   1.415989 A    
C121  H106  1.111131 S    
C46   C54   1.416945 A    
C77   C87   1.419513 A    
C79   H23   1.078892 S    
C124  H120  1.110592 S    
C45   C53   1.416579 A    
C42   C50   1.419714 A    
C64   N12   1.426428 S    
C20   C28   1.390307 A    
N23   H97   1.030862 S    
C101  H28   1.109308 S    
O14   C8    1.292140 A    
N13   C109  1.446780 S    
C82   C94   1.416833 A    
C107  H52   1.112959 S    
C32   C40   1.401474 A    
C74   C84   1.417704 A    
C77   N3    1.364643 A    
C33   C41   1.418765 A    
C41   C46   1.402692 A    
C38   C46   1.419128 A    
N20   H85   1.029362 S    
C108  H55   1.109869 S    
C35   C43   1.417446 A    
C62   N10   1.422770 S    
C109  H60   1.110216 S    
C101  H26   1.109827 S    
N28   C124  1.445785 S    
O13   Cu4   1.965055 S    
O11   Cu3   1.956962 S    
O14   Cu3   1.965052 S    
C117  H92   1.111203 S    
C16   C56   1.399177 A    
N19   H81   1.029410 S    
C10   C50   1.402607 A    
C60   N8    1.427224 S    
C59   C71   1.411506 A    
C122  H111  1.110258 S    
C75   H19   1.077892 S    
C10   H2    1.081531 S    
C39   C47   1.418600 A    
C24   C32   1.392499 A    
O16   Cu3   1.967015 S    
C101  H27   1.110671 S    
C25   C33   1.399726 A    
C109  H58   1.111074 S    
C102  H31   1.110682 S    
N17   C113  1.449663 S    
C80   C86   1.416343 A    
N21   H89   1.030692 S    
C83   C89   1.413737 A    
C123  H116  1.111175 S    
O1    Cu1   1.958352 S    
C8    C21   1.453594 S    
C104  H39   1.110268 S    
N5    C101  1.446323 S    
C87   C99   1.419011 A    
C94   N22   1.427815 S    
C59   N7    1.423827 S    
C15   H7    1.083361 S    
C88   C92   1.413871 A    
N14   C110  1.446601 S    
C21   C29   1.393638 A    
O3    C2    1.289107 A    
N7    C103  1.446871 S    
C61   C65   1.403900 A    
N15   H65   1.029185 S    
C105  H44   1.110918 S    
C9    C49   1.393713 A    
N9    C105  1.442504 S    
C97   C100  1.412181 A    
C95   N23   1.425118 S    
O8    C3    1.293149 A    
C27   H11   1.083952 S    
C78   C88   1.417696 A    
C99   N27   1.422275 S    
C73   N1    1.363377 A    
N12   H53   1.029234 S    
C30   C38   1.399400 A    
C44   C47   1.402206 A    
Cu2   N2    2.010487 S    
C70   N18   1.427285 S    
O3    Cu1   1.956962 S    
C103  H36   1.110626 S    
C78   H22   1.078942 S    
C113  H74   1.110984 S    
C105  H43   1.104899 S    
Cu4   N4    2.010487 S    
C106  H47   1.110335 S    
C57   N5    1.425288 S    
N8    H37   1.029111 S    
C80   H24   1.079101 S    
C97   N25   1.422280 S    
C73   C83   1.417608 A    
C84   C96   1.418360 A    
C29   H13   1.082265 S    
C34   C42   1.420150 A    
C85   C97   1.415900 A    
N27   H113  1.029376 S    
N9    H41   1.027992 S    
O12   C5    1.288560 A    
C58   C70   1.407323 A    
C51   C68   1.410780 A    
N8    C104  1.447074 S    
C83   C95   1.419754 A    
C116  H87   1.110245 S    
C1    C20   1.444261 S    
C61   N9    1.424350 S    
C60   C72   1.413252 A    
C33   C57   1.415546 A    
N16   H69   1.030143 S    
N12   C108  1.450024 S    
C111  H66   1.110690 S    
C76   C82   1.416694 A    
C114  H78   1.110274 S    
C105  H42   1.110208 S    
C3    C18   1.454624 S    
C93   C96   1.411685 A    
C5    C24   1.446296 S    
C35   C59   1.411395 A    
C76   N2    1.363785 A    
C85   C91   1.412529 A    
C118  H95   1.111733 S    
N18   H77   1.030305 S    
C86   C92   1.413722 A    
C22   C30   1.395709 A    
C115  H82   1.110448 S    
C108  H56   1.111933 S    
C15   C55   1.401106 A    
C26   C34   1.404120 A    
Cu3   Cu4   2.675887 S    
C36   C44   1.418352 A    
C124  H118  1.109370 S    
C47   C55   1.418597 A    
C117  H91   1.110262 S    
C84   C90   1.413613 A    
N20   C116  1.449558 S    
Cu1   Cu2   2.675887 S    
C48   C56   1.417607 A    
N23   C119  1.446959 S    
N6    C102  1.445826 S    
N19   C115  1.447907 S    
C40   C48   1.417710 A    
C25   H9    1.080686 S    
C55   C72   1.413556 A    
C14   C54   1.396127 A    
O5    C3    1.290019 A    
O4    C1    1.288995 A    
C13   C53   1.400591 A    
O15   C8    1.290629 A    
N18   C114  1.446591 S    
C43   C51   1.417382 A    
O7    C4    1.291598 A    
O16   C7    1.292847 A    
C79   N3    1.361980 A    
C12   C20   1.389545 A    
N25   C121  1.449323 S    
N28   H117  1.030249 S    
C115  H84   1.110463 S    
C37   C61   1.414530 A    
C16   C24   1.390281 A    
N27   C123  1.448021 S    
C17   C25   1.396058 A    
C119  H98   1.110263 S    
C121  H107  1.112612 S    
N6    H29   1.030688 S    
C52   C67   1.413069 A    
C15   C23   1.390144 A    
O9    Cu3   1.958352 S    
C19   C27   1.392425 A    
C89   C90   1.420958 A    
C120  H102  1.107974 S    
C110  H64   1.111460 S    
O10   Cu4   1.958352 S    
C28   C36   1.401399 A    
C110  H62   1.110297 S    
C43   C48   1.401884 A    
C86   C98   1.415521 A    
C106  H48   1.111053 S    
C42   C45   1.407455 A    
C111  H67   1.110310 S    
C63   N11   1.425946 S    
C64   C68   1.412286 A    
C81   C89   1.413695 A    
O2    C2    1.289599 A    
C119  H99   1.109812 S    
C79   C85   1.418211 A    
O2    Cu2   1.958352 S    
C118  H96   1.110099 S    
O4    Cu2   1.956962 S    
C117  H90   1.111221 S    
C113  H75   1.109466 S    
C96   N24   1.423982 S    
C94   C95   1.417117 A    
C57   C69   1.400211 A    
Cu3   N3    2.010487 S    
C102  H32   1.111621 S    
C112  H71   1.108503 S    
O6    C4    1.292512 A    
C71   N19   1.428659 S    
O11   C6    1.289016 A    
O1    C1    1.289094 A    
C36   C60   1.413431 A    
C62   C66   1.402275 A    
C98   N26   1.425374 S    
C75   N1    1.362630 A    
C116  H88   1.112405 S    
C13   C21   1.390969 A    
C76   H20   1.078263 S    
N16   C112  1.446745 S    
C34   C58   1.417382 A    
C112  H70   1.109614 S    
C107  H50   1.110637 S    
C114  H79   1.111337 S    
C120  H103  1.111469 S    
N24   C120  1.447041 S    
N5    H25   1.030718 S    
C9    H1    1.082800 S    
C4    C17   1.456061 S    
C40   C64   1.412879 A    
O9    C5    1.290639 A    
O15   Cu4   1.967012 S    
C67   N15   1.427894 S    
O7    Cu2   1.967012 S    
N24   H101  1.029640 S    
C37   C45   1.417877 A    
C11   C51   1.398546 A    
C12   H4    1.083713 S    
C14   H6    1.080735 S    
N21   C117  1.445697 S    
C11   C19   1.389278 A    
C88   C100  1.418321 A    
C74   H18   1.077058 S    
C13   H5    1.083974 S    
C44   C52   1.418776 A    
C100  N28   1.424296 S    
C77   H21   1.078356 S    
N13   H57   1.030466 S    
C120  H104  1.111156 S    
C87   C91   1.413129 A    
C18   C26   1.393998 A    
C103  H34   1.109147 S    
N11   C107  1.446234 S    
C98   C99   1.411749 A    
C56   C71   1.412654 A    
N10   H45   1.029237 S    
C80   N4    1.361079 A    
C111  H68   1.109754 S    
C31   C39   1.401141 A    
C32   H16   1.084157 S    
C31   H15   1.083393 S    
C108  H54   1.110008 S    
C122  H112  1.111217 S    
C9    C17   1.392148 A    
C123  H114  1.108081 S    
C109  H59   1.111188 S    
N15   C111  1.447304 S    
C65   N13   1.425759 S    
C124  H119  1.108918 S    
C103  H35   1.109498 S    
C73   H17   1.077643 S    
C104  H40   1.110857 S    
C10   C18   1.390947 A    
C81   C93   1.417396 A    
N25   H105  1.027736 S    
C110  H63   1.110730 S    
C66   N14   1.427527 S    
C82   C90   1.412121 A    
C6    C23   1.445084 S    
C78   N4    1.363023 A    
C49   C66   1.408326 A    
C91   C92   1.422741 A    
C93   N21   1.425280 S    
N10   C106  1.447630 S    
Cu1   N1    2.010487 S    
C28   H12   1.083694 S    
