data_mof_unit_68395.cif
_audit_creation_date              2013-03-05T15:41:25-0500
_audit_creation_method            fapswitch 2.2
_symmetry_space_group_name_H-M    P1
_symmetry_Int_Tables_number       1
_space_group_crystal_system       triclinic
_cell_length_a                    8.530557
_cell_length_b                    15.308524
_cell_length_c                    15.209262
_cell_angle_alpha                 96.415489
_cell_angle_beta                  101.045728
_cell_angle_gamma                 98.463698
_cell_volume                      1908.01879

loop_
_atom_site_label
_atom_site_type_symbol
_atom_site_description
_atom_site_fract_x
_atom_site_fract_y
_atom_site_fract_z
_atom_type_partial_charge
P1    P     P_3+3 0.004160 0.709210 0.580280 0.629022
O1    O     O_2   0.174040 0.723040 0.553850 -0.399539
O2    O     O_3   0.901550 0.609570 0.550800 -0.299177
O3    O     O_3   0.370320 0.665070 0.388210 -0.335445
O4    O     O_2   0.325550 0.820088 0.462432 -0.303299
O5    O     O_3   0.053234 0.744000 0.698235 -0.496172
O6    O     O_3   0.328253 0.816823 0.290417 -0.594848
C1    C     C_3   0.317922 0.812798 0.124619 0.195076
P2    P     P_3+3 0.305010 0.425580 0.290930 0.548310
P3    P     P_3+3 0.861124 0.632253 0.229384 0.692152
O7    O     O_2   0.134800 0.452800 0.278160 -0.321206
O8    O     O_3   0.937630 0.618610 0.340820 -0.376619
O9    O     O_2   0.949935 0.574500 0.171983 -0.170542
O10   O     O_3   0.298588 0.310173 0.255925 -0.665446
O11   O     O_3   0.920123 0.741765 0.208960 -0.434897
C2    C     C_3   0.968227 0.801324 0.290556 0.128773
H1    H     H_    0.071873 0.781529 0.334402 0.148682
H2    H     H_    0.871285 0.800400 0.328857 0.077512
C3    C     C_3   0.015089 0.896326 0.268946 0.673547
H3    H     H_    0.081818 0.894353 0.214669 0.144777
C4    C     C_3   0.665141 0.308186 0.251026 0.451122
H4    H     H_    0.573212 0.322465 0.289506 0.093134
C5    C     C_3   0.581605 0.249717 0.159155 0.117460
H5    H     H_    0.454602 0.260039 0.140097 0.161597
H6    H     H_    0.641849 0.267112 0.103578 0.170571
Ba1   Ba    Ba6+2 0.154720 0.543770 0.458160 1.792571
C6    C     C_3   0.118073 0.683138 0.750484 0.606195
H7    H     H_    0.241144 0.678720 0.741735 -0.124922
C7    C     C_3   0.121370 0.714519 0.850343 0.609742
H8    H     H_    0.176288 0.668054 0.893214 -0.009855
C8    C     C_3   0.152792 0.248059 0.235429 0.950184
C9    C     C_3   0.018105 0.267551 0.160445 -0.091360
H9    H     H_    0.987976 0.334065 0.174230 0.168510
H10   H     H_    0.906976 0.218496 0.156289 0.179227
P4    P     P_3+3 0.806120 0.290780 0.419650 0.622601
O12   O     O_2   0.636250 0.276900 0.446120 -0.340241
O13   O     O_3   0.908740 0.390420 0.449120 -0.336337
O14   O     O_3   0.439970 0.334920 0.611710 -0.331647
O15   O     O_3   0.774144 0.262599 0.300762 -0.527591
P5    P     P_3+3 0.925344 0.380996 0.775478 0.672479
O16   O     O_3   0.402050 0.547860 0.609740 -0.375231
O17   O     O_3   0.872650 0.381380 0.659100 -0.411450
O18   O     O_2   0.808695 0.435157 0.811949 -0.185933
O19   O     O_3   0.865533 0.273019 0.799128 -0.431741
Ba2   Ba    Ba6+2 0.655440 0.456220 0.541760 1.817517
P6    P     P_3+3 0.418270 0.781395 0.393669 0.546914
C10   C     C_3   0.369162 0.772259 0.213496 0.863350
H11   H     H_    0.366179 0.775717 0.071588 0.141347
O20   O     O_3   0.408230 0.452130 0.390190 -0.339489
C11   C     C_3   0.522778 0.735446 0.700222 0.476340
H12   H     H_    0.413275 0.709116 0.647464 0.044232
C12   C     C_3   0.509630 0.831605 0.735867 0.389846
H13   H     H_    0.385960 0.832180 0.747548 0.103139
P7    P     P_3+3 0.500337 0.568396 0.726026 0.619482
O21   O     O_2   0.675480 0.547140 0.721810 -0.200625
O22   O     O_3   0.535235 0.682608 0.769975 -0.566973
C13   C     C_3   0.845176 0.212515 0.719315 0.357346
H14   H     H_    0.740651 0.222106 0.667859 0.125582
H15   H     H_    0.953650 0.222559 0.689454 0.076626
C14   C     C_3   0.818451 0.116826 0.739914 -0.547951
H16   H     H_    0.694743 0.096320 0.749727 0.252793
H17   H     H_    0.835523 0.070382 0.682409 0.212237
H18   H     H_    0.904175 0.110045 0.802607 0.312417
P8    P     P_3+3 0.380928 0.219267 0.607038 0.610287
C15   C     C_3   0.427905 0.199123 0.786817 0.686820
O23   O     O_2   0.466099 0.180906 0.534282 -0.298655
O24   O     O_3   0.474193 0.174150 0.703280 -0.583742
C16   C     C_3   0.464043 0.129336 0.852854 0.402655
H19   H     H_    0.596764 0.135613 0.878304 0.081094
C17   C     C_R   0.640351 0.825293 0.439264 0.282017
H20   H     H_    0.693580 0.693107 0.446375 0.171141
H21   H     H_    0.495267 0.953005 0.377331 0.236166
C18   C     C_R   0.894422 0.792069 0.520516 0.276618
C19   C     C_R   0.055790 0.232332 0.535789 -0.482393
C20   C     C_R   0.160970 0.173735 0.561406 0.202515
C21   C     C_R   0.104489 0.081099 0.546938 0.499385
C22   C     C_R   0.937025 0.045146 0.509005 -0.116670
C23   C     C_R   0.836040 0.106166 0.469513 -0.213142
C24   C     C_R   0.869678 0.949924 0.501581 0.076898
C25   C     C_R   0.708402 0.917648 0.452483 -0.064841
C26   C     C_R   0.617061 0.977016 0.415100 -0.073643
C27   C     C_R   0.676912 0.066738 0.419588 0.566254
C28   C     C_R   0.950998 0.884958 0.544024 -0.118889
C29   C     C_R   0.740889 0.763702 0.464304 -0.407281
C30   C     C_R   0.901053 0.201920 0.481276 0.312496
H22   H     H_    0.050591 0.903747 0.601129 0.224281
H23   H     H_    0.103037 0.303219 0.549071 0.178120
C31   C     C_R   0.241608 0.457638 0.769835 -0.484200
C32   C     C_R   0.137229 0.437132 0.828125 0.249994
C33   C     C_R   0.191010 0.466347 0.922334 0.355256
C34   C     C_R   0.358793 0.500285 0.959495 -0.210919
C35   C     C_R   0.462110 0.514681 0.897042 0.436697
C36   C     C_R   0.397141 0.505656 0.803405 0.143706
C37   C     C_R   0.561534 0.587512 0.101247 0.429543
C38   C     C_R   0.641907 0.588351 0.191452 0.223153
C39   C     C_R   0.414392 0.486324 0.215451 0.244262
C40   C     C_R   0.360500 0.466404 0.120880 -0.189572
C41   C     C_R   0.426544 0.519175 0.061369 0.069889
C42   C     C_R   0.560185 0.544976 0.250145 -0.371849
H24   H     H_    0.265409 0.410383 0.094779 0.217327
H25   H     H_    0.614446 0.552954 0.321557 0.163489
H26   H     H_    0.196633 0.442718 0.697281 0.182800
Cl1   Cl    Cl    0.278817 0.658607 0.195160 -0.579793
Cl2   Cl    Cl    0.587194 0.133689 0.156091 -0.298621
Cl3   Cl    Cl    0.001428 0.576448 0.721804 -0.595383
Cl4   Cl    Cl    0.237515 0.823292 0.886998 -0.434254
Cl5   Cl    Cl    0.921100 0.718342 0.867972 -0.281678
N1    N     N_R   0.096686 0.235009 0.317894 0.196351
O25   O     O_R   0.004053 0.160120 0.320285 -0.338429
O26   O     O_R   0.176254 0.282905 0.393508 -0.401861
Cl6   Cl    Cl    0.205343 0.143872 0.194753 -0.322562
N2    N     N_R   0.142206 0.801051 0.089190 0.232655
O27   O     O_R   0.079173 0.866759 0.057754 -0.200130
O28   O     O_R   0.059135 0.720892 0.063853 -0.232075
Cl7   Cl    Cl    0.062770 0.255393 0.049962 -0.407932
Cl8   Cl    Cl    0.581034 0.781007 0.229770 -0.677170
N3    N     N_R   0.661745 0.734861 0.659745 0.227302
O29   O     O_R   0.788906 0.796768 0.687863 -0.340870
O30   O     O_R   0.659485 0.669342 0.597578 -0.392776
N4    N     N_R   0.628061 0.866175 0.820812 0.311043
O31   O     O_R   0.610445 0.834649 0.894985 -0.193949
O32   O     O_R   0.746821 0.931428 0.824483 -0.233797
Cl9   Cl    Cl    0.532902 0.901906 0.650464 -0.520526
N5    N     N_R   0.392464 0.906724 0.134807 0.296407
O33   O     O_R   0.491244 0.932045 0.083509 -0.145770
O34   O     O_R   0.359236 0.965490 0.193817 -0.235486
Cl10  Cl    Cl    0.149222 0.966898 0.360035 -0.515571
N6    N     N_R   0.254285 0.200761 0.772741 0.181169
O35   O     O_R   0.203306 0.263791 0.817889 -0.409459
O36   O     O_R   0.153997 0.126993 0.739542 -0.437914
N7    N     N_R   0.522027 0.287135 0.828183 0.217185
O37   O     O_R   0.512314 0.353214 0.782930 -0.374172
O38   O     O_R   0.627838 0.299187 0.904509 -0.310968
N8    N     N_R   0.386753 0.141309 0.931125 0.271153
O39   O     O_R   0.320186 0.072633 0.962493 -0.142549
O40   O     O_R   0.384422 0.220664 0.970826 -0.347103
Cl11  Cl    Cl    0.395011 0.018387 0.795450 -0.416816
Cl12  Cl    Cl    0.257040 0.014688 0.568576 -0.454001
Cl13  Cl    Cl    0.535254 0.116371 0.352165 -0.390358
Cl14  Cl    Cl    0.614296 0.680996 0.046655 -0.414734
Cl15  Cl    Cl    0.044148 0.470247 0.989620 -0.400842
Cl16  Cl    Cl    0.673737 0.526998 0.931604 -0.344752
Cl17  Cl    Cl    0.846164 0.949259 0.233974 -0.362150
N9    N     N_R   0.751568 0.392879 0.235468 0.148644
O41   O     O_R   0.745451 0.414451 0.154585 -0.435535
O42   O     O_R   0.828142 0.450762 0.304340 -0.352861

loop_
_geom_bond_atom_site_label_1
_geom_bond_atom_site_label_2
_geom_bond_distance
_ccdc_geom_bond_type
C15   N6    1.459687 S    
C6    C7    1.534556 S    
C11   N3    1.437338 S    
C37   Cl14  1.777418 S    
C8    N1    1.449122 S    
C3    H3    1.089025 S    
O10   C8    1.408989 S    
C20   C21   1.407187 A    
N6    O35   1.296741 A    
N2    O28   1.300067 A    
C26   C27   1.382448 A    
C13   H14   1.107214 S    
C37   C41   1.422768 A    
O3    P6    1.756375 S    
C22   C23   1.462695 A    
N4    O31   1.301335 A    
C27   Cl13  1.748913 S    
C14   H18   1.109953 S    
P4    O13   1.611738 S    
C3    Cl17  1.778330 S    
P3    O11   1.757333 S    
C1    N2    1.469369 S    
C12   Cl9   1.798091 S    
C38   C42   1.399438 A    
C13   H15   1.104952 S    
C6    Cl3   1.744711 S    
O11   C2    1.407719 S    
C39   C42   1.394755 A    
N1    O25   1.301442 A    
C14   H17   1.109939 S    
P1    O1    1.567939 D    
C3    Cl10  1.757832 S    
O2    Ba1   3.025447 S    
O14   Ba2   2.853883 S    
Ba1   Ba2   4.725342 S    
C31   C36   1.389546 A    
P5    O18   1.528699 D    
P4    O12   1.568151 D    
C16   H19   1.110238 S    
C15   O24   1.429844 S    
C11   C12   1.538504 S    
C5    H5    1.105919 S    
C19   H23   1.082556 S    
C35   Cl16  1.756416 S    
C18   C29   1.398362 A    
H21   C26   1.075288 S    
P5    O17   1.741639 S    
C34   C41   1.525100 S    
C4    H4    1.096825 S    
C16   Cl11  1.780744 S    
N2    O27   1.302977 A    
C15   N7    1.467780 S    
N4    O32   1.302021 A    
P2    Ba1   3.505756 S    
C40   C41   1.419184 A    
O14   P8    1.757558 S    
C22   C24   1.469551 A    
C10   Cl8   1.759481 S    
P7    O22   1.761177 S    
C10   Cl1   1.764449 S    
C19   C20   1.393764 A    
C17   C25   1.423537 A    
P1    O5    1.763643 S    
O6    P6    1.789068 S    
P2    O20   1.570917 S    
C21   C22   1.434687 A    
N9    O42   1.291943 A    
Ba1   O20   3.023099 S    
C34   C35   1.427567 A    
C1    N5    1.462574 S    
C13   C14   1.525638 S    
N8    O40   1.299441 A    
O7    Ba1   2.891912 S    
O2    Ba2   2.881686 S    
C11   O22   1.401751 S    
C5    Cl2   1.779529 S    
O8    Ba1   2.782478 S    
C14   H16   1.098994 S    
P1    O2    1.611720 S    
O17   Ba2   2.783097 S    
O6    C10   1.415643 S    
P4    O15   1.769788 S    
P2    O10   1.777029 S    
P8    O24   1.787204 S    
C7    H8    1.111432 S    
C23   C27   1.430030 A    
O3    Ba1   2.854570 S    
O5    C6    1.397935 S    
C4    O15   1.401191 S    
Ba2   O20   2.798469 S    
O19   C13   1.407911 S    
C15   C16   1.569465 S    
C39   C40   1.407311 A    
C11   H12   1.099357 S    
O12   Ba2   2.926181 S    
O1    Ba1   2.925603 S    
P2    O7    1.551693 D    
P2    C39   1.856564 S    
P8    O23   1.544569 D    
P3    O8    1.742841 S    
C12   N4    1.469533 S    
C23   C30   1.467093 A    
C42   H25   1.081624 S    
C4    C5    1.553247 S    
P1    Ba1   3.511980 S    
P5    C32   1.865769 S    
C7    Cl4   1.777763 S    
O13   Ba2   3.026395 S    
N7    O37   1.289280 A    
P4    Ba2   3.512491 S    
C40   H24   1.070908 S    
C17   C29   1.400959 A    
C12   H13   1.104002 S    
N5    O34   1.298960 A    
H20   C29   1.081094 S    
P7    O21   1.586630 D    
C8    Cl6   1.795498 S    
C8    C9    1.544234 S    
C4    N9    1.461001 S    
C25   C26   1.382227 A    
N7    O38   1.303072 A    
P3    O9    1.547883 D    
N6    O36   1.297982 A    
C31   H26   1.082917 S    
Ba1   O13   2.881022 S    
N8    O39   1.302126 A    
C21   Cl12  1.770735 S    
O4    P6    1.544890 D    
P7    C36   1.866330 S    
N9    O41   1.302447 A    
P1    C18   1.895436 S    
C9    H9    1.093980 S    
N3    O30   1.294508 A    
C1    C10   1.563443 S    
C1    H11   1.111726 S    
C24   C28   1.435957 A    
P4    C30   1.924356 S    
C33   C34   1.429484 A    
C2    H1    1.102897 S    
P3    C38   1.847047 S    
C2    C3    1.539140 S    
C16   N8    1.474113 S    
C35   C36   1.409087 A    
P8    C20   1.869798 S    
N1    O26   1.298784 A    
C5    H6    1.107257 S    
C19   C30   1.400011 A    
C37   C38   1.409079 A    
C9    Cl7   1.788779 S    
O16   P7    1.777580 S    
P6    C17   1.881283 S    
C33   Cl15  1.766364 S    
C24   C25   1.420671 A    
P5    O19   1.754120 S    
C28   H22   1.071613 S    
C31   C32   1.399905 A    
Ba2   O21   2.892101 S    
C2    H2    1.098369 S    
C6    H7    1.094040 S    
O16   Ba2   3.022291 S    
C7    Cl5   1.787579 S    
C32   C33   1.417063 A    
N3    O29   1.298763 A    
C18   C28   1.414593 A    
Ba1   O16   2.799178 S    
C9    H10   1.106119 S    
N5    O33   1.300915 A    
