data_mof_unit_45298.cif
_audit_creation_date              2013-03-05T15:49:29-0500
_audit_creation_method            fapswitch 2.2
_symmetry_space_group_name_H-M    P1
_symmetry_Int_Tables_number       1
_space_group_crystal_system       triclinic
_cell_length_a                    18.41313
_cell_length_b                    18.404102
_cell_length_c                    34.255534
_cell_angle_alpha                 90.002252
_cell_angle_beta                  89.993917
_cell_angle_gamma                 89.971103
_cell_volume                      11608.4152463

loop_
_atom_site_label
_atom_site_type_symbol
_atom_site_description
_atom_site_fract_x
_atom_site_fract_y
_atom_site_fract_z
_atom_type_partial_charge
Zn1   Zn    Zn3+2 0.000000 0.586740 0.782740 0.961816
Zn2   Zn    Zn3+2 1.000000 0.413260 0.217260 0.957989
Zn3   Zn    Zn3+2 0.413260 0.000000 0.782740 0.957422
Zn4   Zn    Zn3+2 0.586740 1.000000 0.217260 0.956760
Zn5   Zn    Zn3+2 0.000000 0.413260 0.782740 0.954361
Zn6   Zn    Zn3+2 0.000000 0.586740 0.217260 0.958055
Zn7   Zn    Zn3+2 0.586740 0.000000 0.782740 0.954948
Zn8   Zn    Zn3+2 0.413260 1.000000 0.217260 0.980765
Zn9   Zn    Zn3+2 0.500000 0.086740 0.282740 0.949098
Zn10  Zn    Zn3+2 0.500000 0.913260 0.717260 0.962584
Zn11  Zn    Zn3+2 0.913260 0.500000 0.282740 0.951479
Zn12  Zn    Zn3+2 0.086740 0.500000 0.717260 0.959898
Zn13  Zn    Zn3+2 0.500000 0.913260 0.282740 0.962038
Zn14  Zn    Zn3+2 0.500000 0.086740 0.717260 0.958592
Zn15  Zn    Zn3+2 0.086740 0.500000 0.282740 0.953843
Zn16  Zn    Zn3+2 0.913260 0.500000 0.717260 0.955273
C1    C     C_R   0.634988 0.976925 0.521963 0.157089
C2    C     C_R   0.371744 0.003805 0.479132 0.181246
C3    C     C_R   0.053747 0.621788 0.520178 0.161262
C4    C     C_R   0.949382 0.377430 0.479108 0.142864
C5    C     C_R   0.371913 0.011212 0.520142 0.142305
C6    C     C_R   0.637274 0.984025 0.480959 0.143948
C7    C     C_R   0.946123 0.378486 0.520144 0.160809
C8    C     C_R   0.050487 0.622888 0.479136 0.142907
C9    C     C_R   0.126821 0.471411 0.020268 0.131585
C10   C     C_R   0.867852 0.533913 0.980359 0.143670
C11   C     C_R   0.500601 0.132114 0.020864 0.151674
C12   C     C_R   0.513037 0.867233 0.979628 0.156833
C13   C     C_R   0.870281 0.539563 0.021376 0.159906
C14   C     C_R   0.128164 0.477974 0.979255 0.170918
C15   C     C_R   0.502184 0.866711 0.020562 0.147091
C16   C     C_R   0.489832 0.132015 0.979967 0.155402
O1    O     O_3   1.000000 0.500000 0.750000 -0.487025
O2    O     O_3   1.000000 0.500000 0.250000 -0.487485
O3    O     O_3   0.500000 1.000000 0.750000 -0.487856
O4    O     O_3   0.500000 0.000000 0.250000 -0.490702
O5    O     O_R   0.060740 0.500000 0.662560 -0.640074
O6    O     O_R   0.939260 0.500000 0.337440 -0.662405
O7    O     O_R   0.500000 0.060740 0.662560 -0.641226
O8    O     O_R   0.500000 0.939260 0.337440 -0.634510
O9    O     O_R   0.939260 0.500000 0.662560 -0.640913
O10   O     O_R   0.060740 0.500000 0.337440 -0.661331
O11   O     O_R   0.500000 0.939260 0.662560 -0.641342
O12   O     O_R   0.500000 0.060740 0.337440 -0.660557
O13   O     O_R   0.560740 0.000000 0.162560 -0.644513
O14   O     O_R   0.439260 0.000000 0.837440 -0.645348
O15   O     O_R   1.000000 0.560740 0.162560 -0.639096
O16   O     O_R   1.000000 0.439260 0.837440 -0.663014
O17   O     O_R   0.439260 0.000000 0.162560 -0.627241
O18   O     O_R   0.560740 0.000000 0.837440 -0.643427
O19   O     O_R   1.000000 0.439260 0.162560 -0.639128
O20   O     O_R   1.000000 0.560740 0.837440 -0.649499
O21   O     O_R   0.853850 0.585450 0.727070 -0.647270
O22   O     O_R   0.146150 0.414550 0.272930 -0.626546
O23   O     O_R   0.414550 0.853850 0.727070 -0.643208
O24   O     O_R   0.585450 0.146150 0.272930 -0.635146
O25   O     O_R   0.146150 0.414550 0.727070 -0.646299
O26   O     O_R   0.853850 0.585450 0.272930 -0.628712
O27   O     O_R   0.585450 0.146150 0.727070 -0.646439
O28   O     O_R   0.414550 0.853850 0.272930 -0.630835
O29   O     O_R   0.853850 0.414550 0.272930 -0.623545
O30   O     O_R   0.146150 0.585450 0.727070 -0.627398
O31   O     O_R   0.414550 0.146150 0.272930 -0.632489
O32   O     O_R   0.585450 0.853850 0.727070 -0.617959
O33   O     O_R   0.146150 0.585450 0.272930 -0.621514
O34   O     O_R   0.853850 0.414550 0.727070 -0.627162
O35   O     O_R   0.585450 0.853850 0.272930 -0.636868
O36   O     O_R   0.414550 0.146150 0.727070 -0.617885
O37   O     O_R   0.353850 0.085450 0.227070 -0.636073
O38   O     O_R   0.646150 0.914550 0.772930 -0.634857
O39   O     O_R   0.914550 0.353850 0.227070 -0.643963
O40   O     O_R   0.085450 0.646150 0.772930 -0.628529
O41   O     O_R   0.646150 0.914550 0.227070 -0.642797
O42   O     O_R   0.353850 0.085450 0.772930 -0.630800
O43   O     O_R   0.085450 0.646150 0.227070 -0.645324
O44   O     O_R   0.914550 0.353850 0.772930 -0.628175
O45   O     O_R   0.353850 0.914550 0.772930 -0.634876
O46   O     O_R   0.646150 0.085450 0.227070 -0.620247
O47   O     O_R   0.914550 0.646150 0.772930 -0.624879
O48   O     O_R   0.085450 0.353850 0.227070 -0.627262
O49   O     O_R   0.646150 0.085450 0.772930 -0.633405
O50   O     O_R   0.353850 0.914550 0.227070 -0.618224
O51   O     O_R   0.085450 0.353850 0.772930 -0.625130
O52   O     O_R   0.914550 0.646150 0.227070 -0.628034
C17   C     C_R   0.441722 0.025847 0.581024 0.128607
C18   C     C_R   0.572840 0.013591 0.419032 0.131206
C19   C     C_R   0.959554 0.447217 0.581677 0.119093
C20   C     C_R   0.004278 0.567208 0.418153 0.130469
C21   C     C_R   0.562279 0.970238 0.582453 0.126250
C22   C     C_R   0.442026 0.986977 0.417795 0.124887
C23   C     C_R   0.040323 0.552974 0.581703 0.119520
C24   C     C_R   0.995605 0.433056 0.418163 0.130713
C25   C     C_R   0.942384 0.536556 0.082130 0.122303
C26   C     C_R   0.061535 0.501966 0.917654 0.129572
C27   C     C_R   0.479865 0.936294 0.081344 0.137541
C28   C     C_R   0.474578 0.061183 0.918915 0.139597
C29   C     C_R   0.055363 0.466599 0.081055 0.132232
C30   C     C_R   0.927945 0.495832 0.918721 0.146022
C31   C     C_R   0.522228 0.062143 0.081348 0.132086
C32   C     C_R   0.526540 0.938676 0.918604 0.139521
C33   C     C_R   0.501699 0.999372 0.602087 -0.130509
C34   C     C_R   0.507316 0.000962 0.397984 -0.123899
C35   C     C_R   0.999977 0.500044 0.601921 -0.154156
C36   C     C_R   0.999976 0.500113 0.397560 -0.106705
C37   C     C_R   0.998935 0.500501 0.101978 -0.153132
C38   C     C_R   0.994553 0.498753 0.897804 -0.139210
C39   C     C_R   0.500447 0.999460 0.101889 -0.115534
C40   C     C_R   0.500162 0.999947 0.898232 -0.129039
C41   C     C_R   0.567825 0.981259 0.541761 -0.006553
C42   C     C_R   0.438559 0.996889 0.458623 0.019578
C43   C     C_R   0.031394 0.559100 0.540884 -0.009471
C44   C     C_R   0.980293 0.436717 0.458630 -0.020177
C45   C     C_R   0.438397 0.011489 0.540630 -0.011420
C46   C     C_R   0.572252 0.997331 0.459620 -0.011520
C47   C     C_R   0.968501 0.441144 0.540863 -0.009663
C48   C     C_R   0.019593 0.563599 0.458633 -0.020168
C49   C     C_R   0.060724 0.480085 0.040637 -0.011133
C50   C     C_R   0.930563 0.511789 0.959258 -0.016345
C51   C     C_R   0.507581 0.065413 0.041012 -0.006588
C52   C     C_R   0.513236 0.934221 0.959142 -0.009458
C53   C     C_R   0.936065 0.526466 0.041411 -0.007725
C54   C     C_R   0.062929 0.493247 0.958574 0.025970
C55   C     C_R   0.494467 0.933203 0.040913 -0.009650
C56   C     C_R   0.488540 0.065179 0.959368 -0.007433
C57   C     C_R   0.999998 0.499980 0.644346 0.870078
C58   C     C_R   0.999998 0.500095 0.355549 0.886749
C59   C     C_R   0.500230 0.999930 0.644389 0.871952
C60   C     C_R   0.503933 0.000173 0.355584 0.871842
C61   C     C_R   0.500066 0.999757 0.144317 0.865837
C62   C     C_R   0.500016 0.000250 0.855721 0.871725
C63   C     C_R   0.999907 0.500044 0.144349 0.868602
C64   C     C_R   0.996684 0.499857 0.855537 0.839364
C65   C     C_R   0.859975 0.639965 0.750400 0.889575
C66   C     C_R   0.139720 0.359298 0.250275 0.829892
C67   C     C_R   0.360118 0.859918 0.750178 0.894275
C68   C     C_R   0.639417 0.141113 0.248882 0.836742
C69   C     C_R   0.140018 0.360122 0.750315 0.900762
C70   C     C_R   0.860418 0.640839 0.250395 0.834991
C71   C     C_R   0.640026 0.139928 0.750047 0.896912
C72   C     C_R   0.360804 0.858689 0.248677 0.836293
C73   C     C_R   0.859761 0.360105 0.250349 0.886710
C74   C     C_R   0.140199 0.640282 0.749806 0.835719
C75   C     C_R   0.359892 0.139855 0.250201 0.899469
C76   C     C_R   0.641143 0.860584 0.748830 0.824173
C77   C     C_R   0.140197 0.639961 0.250308 0.887638
C78   C     C_R   0.859473 0.360057 0.750059 0.832694
C79   C     C_R   0.640361 0.860385 0.250452 0.885865
C80   C     C_R   0.358857 0.139458 0.748915 0.818759
C81   C     C_R   0.279735 0.634470 0.699047 0.092153
C82   C     C_R   0.750774 0.335558 0.316361 0.086665
C83   C     C_R   0.351555 0.268135 0.688604 0.089734
C84   C     C_R   0.679331 0.772624 0.322617 0.082052
C85   C     C_R   0.719573 0.366265 0.699615 0.093977
C86   C     C_R   0.248783 0.664553 0.315996 0.090020
C87   C     C_R   0.647199 0.730553 0.689264 0.090746
C88   C     C_R   0.315708 0.222042 0.322904 0.084949
C89   C     C_R   0.273892 0.363403 0.302066 0.078869
C90   C     C_R   0.792376 0.689646 0.676944 0.078497
C91   C     C_R   0.382248 0.711180 0.285161 0.097307
C92   C     C_R   0.683559 0.222979 0.679203 0.082214
C93   C     C_R   0.723684 0.633361 0.299679 0.083217
C94   C     C_R   0.206029 0.308532 0.676751 0.076894
C95   C     C_R   0.617654 0.288205 0.285537 0.096248
C96   C     C_R   0.316551 0.777670 0.678968 0.084101
C97   C     C_R   0.772692 0.144829 0.191441 0.091336
C98   C     C_R   0.270760 0.820064 0.820742 0.087765
C99   C     C_R   0.870426 0.783022 0.203152 0.094946
C100  C     C_R   0.179500 0.266791 0.819850 0.089127
C101  C     C_R   0.230950 0.853108 0.189017 0.089988
C102  C     C_R   0.724332 0.184186 0.821958 0.078825
C103  C     C_R   0.134335 0.222085 0.198939 0.113186
C104  C     C_R   0.826595 0.740792 0.818823 0.081357
C105  C     C_R   0.783277 0.877046 0.790460 0.094217
C106  C     C_R   0.278077 0.187013 0.179228 0.112039
C107  C     C_R   0.865580 0.223927 0.800228 0.075912
C108  C     C_R   0.189439 0.708061 0.176682 0.081611
C109  C     C_R   0.219217 0.127393 0.794318 0.090591
C110  C     C_R   0.728239 0.818850 0.180882 0.085863
C111  C     C_R   0.130439 0.780552 0.796906 0.075202
C112  C     C_R   0.811557 0.290061 0.177200 0.082281
C113  C     C_R   0.317058 0.648858 0.663673 0.397999
C114  C     C_R   0.685709 0.349423 0.336944 0.381896
C115  C     C_R   0.329589 0.299273 0.652596 0.383788
C116  C     C_R   0.674944 0.714495 0.349453 0.372735
C117  C     C_R   0.682032 0.351934 0.664306 0.397449
C118  C     C_R   0.313809 0.649021 0.336176 0.377144
C119  C     C_R   0.668538 0.698880 0.653290 0.382464
C120  C     C_R   0.319460 0.278351 0.350883 0.373757
C121  C     C_R   0.301624 0.350042 0.339946 0.373068
C122  C     C_R   0.742029 0.682889 0.646203 0.391068
C123  C     C_R   0.380963 0.669952 0.319936 0.375851
C124  C     C_R   0.670151 0.279693 0.652517 0.381900
C125  C     C_R   0.694137 0.643789 0.337368 0.375851
C126  C     C_R   0.255925 0.314918 0.645757 0.390425
C127  C     C_R   0.618609 0.328148 0.320726 0.376057
C128  C     C_R   0.329467 0.721135 0.652092 0.380499
C129  C     C_R   0.806548 0.164548 0.155767 0.389042
C130  C     C_R   0.211676 0.829407 0.846584 0.394222
C131  C     C_R   0.857842 0.820560 0.167694 0.400292
C132  C     C_R   0.172407 0.206913 0.845443 0.394788
C133  C     C_R   0.199505 0.831922 0.153000 0.382752
C134  C     C_R   0.781112 0.179761 0.849645 0.392240
C135  C     C_R   0.149993 0.189507 0.162569 0.352677
C136  C     C_R   0.833941 0.803110 0.842712 0.392259
C137  C     C_R   0.815046 0.872022 0.827870 0.371078
C138  C     C_R   0.222967 0.180896 0.150959 0.370824
C139  C     C_R   0.852823 0.195301 0.838024 0.372637
C140  C     C_R   0.182894 0.758550 0.145972 0.385682
C141  C     C_R   0.189347 0.136414 0.832067 0.364194
C142  C     C_R   0.786181 0.832418 0.154960 0.376420
C143  C     C_R   0.140775 0.814708 0.833509 0.371089
C144  C     C_R   0.821275 0.237975 0.147505 0.386030
C145  C     C_R   0.503727 0.996511 0.520595 -0.069765
C146  C     C_R   0.504816 0.996977 0.479587 -0.075781
C147  C     C_R   0.999955 0.500132 0.520328 -0.069594
C148  C     C_R   0.999950 0.500152 0.479234 -0.063624
C149  C     C_R   0.997999 0.503284 0.020423 -0.070243
C150  C     C_R   0.997196 0.502786 0.979391 -0.080375
C151  C     C_R   0.500876 0.999387 0.020491 -0.064339
C152  C     C_R   0.500798 0.999568 0.979665 -0.071269
C153  C     C_R   0.293657 0.759552 0.717080 -0.090142
C154  C     C_R   0.684648 0.262206 0.270348 -0.095031
C155  C     C_R   0.231788 0.288129 0.714108 -0.088621
C156  C     C_R   0.746219 0.695547 0.278322 -0.082199
C157  C     C_R   0.706368 0.240866 0.717368 -0.092471
C158  C     C_R   0.315377 0.737631 0.269983 -0.096947
C159  C     C_R   0.767368 0.710820 0.714332 -0.088741
C160  C     C_R   0.252324 0.302864 0.279071 -0.077722
C161  C     C_R   0.290694 0.238352 0.284686 -0.076946
C162  C     C_R   0.701899 0.749079 0.717184 -0.074068
C163  C     C_R   0.252466 0.698866 0.278941 -0.080424
C164  C     C_R   0.743058 0.306324 0.722896 -0.076666
C165  C     C_R   0.707268 0.759558 0.284603 -0.072601
C166  C     C_R   0.297355 0.250010 0.716887 -0.072823
C167  C     C_R   0.747277 0.301490 0.279230 -0.079623
C168  C     C_R   0.256420 0.694374 0.722419 -0.077836
C169  C     C_R   0.789917 0.266378 0.214721 -0.089596
C170  C     C_R   0.192725 0.756606 0.775931 -0.079402
C171  C     C_R   0.744371 0.796463 0.219337 -0.088544
C172  C     C_R   0.242062 0.190374 0.773770 -0.080053
C173  C     C_R   0.210506 0.732983 0.214105 -0.089840
C174  C     C_R   0.804673 0.245913 0.777619 -0.083806
C175  C     C_R   0.259029 0.206922 0.217756 -0.090152
C176  C     C_R   0.759653 0.812094 0.772159 -0.082596
C177  C     C_R   0.797705 0.748568 0.780560 -0.078162
C178  C     C_R   0.193468 0.243359 0.223311 -0.086817
C179  C     C_R   0.740382 0.207761 0.783562 -0.078003
C180  C     C_R   0.249178 0.798233 0.216956 -0.074773
C181  C     C_R   0.204938 0.254728 0.781317 -0.081249
C182  C     C_R   0.809409 0.759656 0.225496 -0.076817
C183  C     C_R   0.257030 0.794424 0.782536 -0.074663
C184  C     C_R   0.751959 0.200938 0.218035 -0.075070
C185  C     C_R   0.303608 0.804222 0.750120 -0.054319
C186  C     C_R   0.692904 0.200512 0.245660 -0.056642
C187  C     C_R   0.193425 0.301537 0.749061 -0.054136
C188  C     C_R   0.805715 0.698983 0.251526 -0.073924
C189  C     C_R   0.695949 0.196214 0.750394 -0.038293
C190  C     C_R   0.307536 0.799102 0.245093 -0.058817
C191  C     C_R   0.807058 0.699114 0.749076 -0.051380
C192  C     C_R   0.194790 0.301519 0.251021 -0.076877
C193  C     C_R   0.303076 0.195271 0.250984 -0.058958
C194  C     C_R   0.700078 0.806428 0.745879 -0.074861
C195  C     C_R   0.200029 0.692392 0.248643 -0.058322
C196  C     C_R   0.802236 0.304388 0.750171 -0.076025
C197  C     C_R   0.697489 0.805297 0.251641 -0.055896
C198  C     C_R   0.300106 0.193881 0.746298 -0.075060
C199  C     C_R   0.799867 0.307783 0.248935 -0.058079
C200  C     C_R   0.196592 0.696790 0.749329 -0.073161
N1    N     N_2   0.275539 0.561530 0.713009 -0.231475
H1    H     H_    0.278680 0.521190 0.692202 0.253319
C201  C     C_3   0.316547 0.546417 0.748114 -0.801371
H2    H     H_    0.308031 0.488942 0.756869 0.231142
H3    H     H_    0.298079 0.581746 0.772458 0.243874
H4    H     H_    0.375407 0.555385 0.742847 0.221190
N2    N     N_2   0.818763 0.344983 0.335642 -0.250826
H5    H     H_    0.818575 0.380966 0.358690 0.267236
C202  C     C_3   0.855637 0.277490 0.344561 -0.814511
H6    H     H_    0.905159 0.288604 0.361825 0.275605
H7    H     H_    0.871981 0.249256 0.317289 0.235888
H8    H     H_    0.819729 0.241353 0.361970 0.226604
N3    N     N_2   0.427059 0.267598 0.698041 -0.228385
H9    H     H_    0.462405 0.270112 0.674789 0.248169
C203  C     C_3   0.448226 0.313829 0.730289 -0.797405
H10   H     H_    0.507441 0.307932 0.735670 0.232735
H11   H     H_    0.419071 0.298046 0.757369 0.245602
H12   H     H_    0.436296 0.371596 0.723362 0.212777
N4    N     N_2   0.666859 0.845016 0.335879 -0.258936
H13   H     H_    0.632345 0.849697 0.359446 0.271578
C204  C     C_3   0.732509 0.887513 0.340226 -0.826268
H14   H     H_    0.719309 0.941418 0.352677 0.261099
H15   H     H_    0.759027 0.895890 0.311458 0.240159
H16   H     H_    0.770993 0.859698 0.360255 0.234124
N5    N     N_2   0.724107 0.439223 0.713557 -0.231392
H17   H     H_    0.720249 0.479564 0.692786 0.252800
C205  C     C_3   0.684218 0.454364 0.749040 -0.802636
H18   H     H_    0.692932 0.511878 0.757676 0.230452
H19   H     H_    0.703517 0.419164 0.773244 0.241180
H20   H     H_    0.625212 0.445286 0.744338 0.222138
N6    N     N_2   0.180812 0.655500 0.335385 -0.250958
H21   H     H_    0.180876 0.619662 0.358496 0.268418
C206  C     C_3   0.143902 0.723058 0.344113 -0.816063
H22   H     H_    0.094016 0.711997 0.361104 0.275196
H23   H     H_    0.128071 0.751332 0.316770 0.235338
H24   H     H_    0.179584 0.759106 0.361704 0.227849
N7    N     N_2   0.571831 0.731614 0.699000 -0.228700
H25   H     H_    0.536168 0.728876 0.675891 0.248316
C207  C     C_3   0.550944 0.685818 0.731471 -0.793562
H26   H     H_    0.491847 0.692074 0.737111 0.232019
H27   H     H_    0.580636 0.701723 0.758360 0.245962
H28   H     H_    0.562452 0.627923 0.724639 0.211933
N8    N     N_2   0.329071 0.148651 0.334323 -0.258618
H29   H     H_    0.360342 0.141849 0.359013 0.265431
C208  C     C_3   0.265823 0.101843 0.333538 -0.839669
H30   H     H_    0.283010 0.044427 0.336399 0.230442
H31   H     H_    0.236060 0.106626 0.305471 0.245267
H32   H     H_    0.228586 0.115973 0.357880 0.233688
N9    N     N_2   0.281472 0.434293 0.285107 -0.239312
H33   H     H_    0.299832 0.474375 0.303624 0.276466
C209  C     C_3   0.318061 0.437411 0.247677 -0.742731
H34   H     H_    0.322652 0.494879 0.238126 0.227909
H35   H     H_    0.286983 0.407639 0.225021 0.229873
H36   H     H_    0.373559 0.414054 0.250135 0.236679
N10   N     N_2   0.868535 0.687326 0.669364 -0.271002
H37   H     H_    0.884538 0.654343 0.646742 0.246879
C210  C     C_3   0.902635 0.758134 0.667930 -0.818694
H38   H     H_    0.883655 0.788454 0.641794 0.253338
H39   H     H_    0.962451 0.751832 0.666326 0.229346
H40   H     H_    0.889776 0.790012 0.694584 0.247691
N11   N     N_2   0.448698 0.718211 0.263610 -0.244734
H41   H     H_    0.495907 0.701885 0.277103 0.257688
C211  C     C_3   0.447696 0.701657 0.222186 -0.790596
H42   H     H_    0.467314 0.749656 0.205731 0.234885
H43   H     H_    0.392735 0.686947 0.211482 0.242841
H44   H     H_    0.484486 0.655178 0.216007 0.227945
N12   N     N_2   0.686199 0.149282 0.666340 -0.273126
H45   H     H_    0.657244 0.138291 0.641322 0.252291
C212  C     C_3   0.759115 0.119731 0.664724 -0.826749
H46   H     H_    0.792065 0.149879 0.642887 0.249971
H47   H     H_    0.757361 0.061771 0.656125 0.231849
H48   H     H_    0.785878 0.123126 0.693722 0.247471
N13   N     N_2   0.717906 0.563603 0.281275 -0.239825
H49   H     H_    0.699758 0.521946 0.298836 0.273731
C213  C     C_3   0.682520 0.562720 0.243493 -0.754572
H50   H     H_    0.714007 0.594414 0.221760 0.231903
H51   H     H_    0.626697 0.585310 0.245912 0.237388
H52   H     H_    0.678806 0.505946 0.232767 0.228608
N14   N     N_2   0.129701 0.311806 0.669647 -0.272197
H53   H     H_    0.113823 0.342341 0.646038 0.246763
C214  C     C_3   0.093517 0.242010 0.671048 -0.817214
H54   H     H_    0.111271 0.207738 0.646097 0.251446
H55   H     H_    0.033883 0.249865 0.669365 0.228803
H56   H     H_    0.105644 0.213357 0.698823 0.247385
N15   N     N_2   0.551520 0.282131 0.263622 -0.244838
H57   H     H_    0.504645 0.300741 0.276617 0.257529
C215  C     C_3   0.554085 0.297198 0.222053 -0.789883
H58   H     H_    0.539455 0.247207 0.205837 0.235538
H59   H     H_    0.608449 0.315788 0.212268 0.242576
H60   H     H_    0.514436 0.340562 0.214588 0.226729
N16   N     N_2   0.314559 0.851552 0.666370 -0.271867
H61   H     H_    0.343014 0.862415 0.641180 0.251181
C216  C     C_3   0.242105 0.882387 0.665522 -0.824925
H62   H     H_    0.208127 0.853401 0.643691 0.248022
H63   H     H_    0.244644 0.940564 0.657431 0.231833
H64   H     H_    0.215935 0.878745 0.694664 0.247793
N17   N     N_2   0.771254 0.069967 0.202341 -0.230196
H65   H     H_    0.776592 0.033120 0.179898 0.247908
C217  C     C_3   0.814152 0.051138 0.236280 -0.796693
H66   H     H_    0.807705 0.992315 0.242692 0.230657
H67   H     H_    0.795716 0.082199 0.262250 0.244320
H68   H     H_    0.872501 0.062583 0.230757 0.215755
N18   N     N_2   0.343444 0.822541 0.834903 -0.269898
H69   H     H_    0.351542 0.855592 0.858796 0.255327
C218  C     C_3   0.375596 0.750980 0.839164 -0.862943
H70   H     H_    0.431721 0.755185 0.850208 0.238938
H71   H     H_    0.377775 0.722562 0.810574 0.253767
H72   H     H_    0.343707 0.717804 0.860156 0.237947
N19   N     N_2   0.942700 0.776949 0.217900 -0.233737
H73   H     H_    0.983941 0.780430 0.197639 0.254625
C219  C     C_3   0.957010 0.815668 0.253842 -0.807890
H74   H     H_    0.013920 0.805566 0.263135 0.230810
H75   H     H_    0.920396 0.796478 0.277450 0.243938
H76   H     H_    0.949283 0.874983 0.249432 0.224178
N20   N     N_2   0.172001 0.338997 0.834466 -0.264170
H77   H     H_    0.140705 0.344124 0.859254 0.264181
C220  C     C_3   0.239936 0.378582 0.836766 -0.841743
H78   H     H_    0.230320 0.434359 0.847666 0.242479
H79   H     H_    0.265556 0.383128 0.807527 0.241823
H80   H     H_    0.278021 0.350722 0.856978 0.233594
N21   N     N_2   0.232440 0.928555 0.198634 -0.225710
H81   H     H_    0.231136 0.964291 0.175468 0.268257
C221  C     C_3   0.185907 0.950026 0.230687 -0.794170
H82   H     H_    0.192722 0.009048 0.236425 0.234709
H83   H     H_    0.200595 0.920028 0.257690 0.245048
H84   H     H_    0.128128 0.939294 0.223320 0.211340
N22   N     N_2   0.650811 0.174893 0.833958 -0.266638
H85   H     H_    0.641969 0.144404 0.858749 0.256050
C222  C     C_3   0.604204 0.238207 0.829821 -0.867112
H86   H     H_    0.585259 0.256591 0.858918 0.233259
H87   H     H_    0.556449 0.223841 0.811642 0.244671
H88   H     H_    0.632422 0.284782 0.815758 0.249025
N23   N     N_2   0.061089 0.222706 0.212770 -0.231191
H89   H     H_    0.021458 0.215798 0.191833 0.255623
C223  C     C_3   0.047734 0.180768 0.247770 -0.801349
H90   H     H_    0.989846 0.186438 0.256393 0.229753
H91   H     H_    0.081764 0.200725 0.272285 0.243718
H92   H     H_    0.059563 0.122411 0.242343 0.222362
N24   N     N_2   0.837591 0.670554 0.835380 -0.254056
H93   H     H_    0.871826 0.668896 0.859169 0.270173
C224  C     C_3   0.771306 0.629683 0.841213 -0.822944
H94   H     H_    0.783531 0.578020 0.856391 0.269072
H95   H     H_    0.745562 0.616687 0.812748 0.235371
H96   H     H_    0.732527 0.661156 0.859434 0.230085
N25   N     N_2   0.784376 0.944663 0.769607 -0.245271
H97   H     H_    0.803940 0.988525 0.785017 0.260533
C225  C     C_3   0.815142 0.942262 0.730677 -0.788367
H98   H     H_    0.781981 0.907807 0.711009 0.239860
H99   H     H_    0.871699 0.921212 0.731785 0.236627
H100  H     H_    0.816154 0.997855 0.718156 0.227902
N26   N     N_2   0.352260 0.187272 0.167547 -0.270389
H101  H     H_    0.362686 0.159029 0.142202 0.265597
C226  C     C_3   0.384288 0.259246 0.167736 -0.859662
H102  H     H_    0.441271 0.256769 0.157793 0.237740
H103  H     H_    0.383919 0.282482 0.197660 0.257994
H104  H     H_    0.354067 0.296000 0.147786 0.237146
N27   N     N_2   0.936219 0.217493 0.782937 -0.238444
H105  H     H_    0.977039 0.200190 0.801282 0.267298
C227  C     C_3   0.939046 0.180620 0.745591 -0.755313
H106  H     H_    0.908805 0.211512 0.723016 0.233148
H107  H     H_    0.916005 0.125018 0.748244 0.236843
H108  H     H_    0.996355 0.176083 0.735863 0.224563
N28   N     N_2   0.187008 0.631868 0.168945 -0.270406
H109  H     H_    0.156986 0.616698 0.145028 0.246013
C228  C     C_3   0.257240 0.596380 0.170062 -0.821093
H110  H     H_    0.292185 0.616932 0.146027 0.251074
H111  H     H_    0.250484 0.536889 0.166649 0.229648
H112  H     H_    0.284589 0.605927 0.198470 0.245552
N29   N     N_2   0.215735 0.057878 0.775390 -0.242951
H113  H     H_    0.195164 0.016185 0.792110 0.261442
C229  C     C_3   0.184772 0.057060 0.736477 -0.769990
H114  H     H_    0.219384 0.087497 0.715633 0.236756
H115  H     H_    0.129234 0.080823 0.736891 0.233700
H116  H     H_    0.181156 0.000145 0.725878 0.225054
N30   N     N_2   0.655524 0.814156 0.166775 -0.272464
H117  H     H_    0.645837 0.841577 0.141126 0.251441
C230  C     C_3   0.627449 0.740574 0.165816 -0.825781
H118  H     H_    0.661365 0.706144 0.146341 0.248289
H119  H     H_    0.571166 0.740383 0.154564 0.230994
H120  H     H_    0.626445 0.716620 0.195569 0.252643
N31   N     N_2   0.060325 0.781979 0.778896 -0.236567
H121  H     H_    0.017420 0.794668 0.796970 0.268948
C231  C     C_3   0.056639 0.820330 0.742048 -0.765982
H122  H     H_    0.999882 0.820061 0.731221 0.227022
H123  H     H_    0.091315 0.793510 0.719787 0.234243
H124  H     H_    0.074193 0.877664 0.745918 0.239226
N32   N     N_2   0.811933 0.365916 0.168370 -0.271710
H125  H     H_    0.840598 0.380680 0.143917 0.246339
C232  C     C_3   0.740928 0.399809 0.169645 -0.823040
H126  H     H_    0.745933 0.459005 0.164383 0.230607
H127  H     H_    0.715494 0.392498 0.198733 0.245254
H128  H     H_    0.705167 0.376061 0.146839 0.250543
O53   O     O_3   0.082339 0.838539 0.855437 -0.549568
C233  C     C_3   0.053986 0.779357 0.876722 -0.212141
H129  H     H_    0.094591 0.756964 0.897415 0.137095
H130  H     H_    0.033533 0.735562 0.857228 0.148354
H131  H     H_    0.007608 0.799011 0.894428 0.243390
O54   O     O_3   0.840008 0.257877 0.109751 -0.579691
C234  C     C_3   0.913588 0.280298 0.107826 -0.278139
H132  H     H_    0.943436 0.279256 0.136193 0.157186
H133  H     H_    0.916194 0.336281 0.095853 0.171062
H134  H     H_    0.942962 0.244804 0.086947 0.199049
O55   O     O_3   0.173680 0.077287 0.855648 -0.564682
C235  C     C_3   0.239275 0.044815 0.868419 -0.195911
H135  H     H_    0.282720 0.085131 0.874976 0.118586
H136  H     H_    0.259923 0.005051 0.846766 0.186053
H137  H     H_    0.228227 0.014559 0.895780 0.219758
O56   O     O_3   0.773237 0.850906 0.116437 -0.588673
C236  C     C_3   0.760761 0.926373 0.113991 -0.258281
H138  H     H_    0.717955 0.945314 0.134570 0.154456
H139  H     H_    0.741912 0.939329 0.084036 0.196752
H140  H     H_    0.811778 0.956819 0.119018 0.199466
O57   O     O_3   0.909589 0.175901 0.862425 -0.550751
C237  C     C_3   0.942321 0.239313 0.877627 -0.219212
H141  H     H_    0.903094 0.272498 0.894545 0.122203
H142  H     H_    0.967360 0.273415 0.854501 0.161840
H143  H     H_    0.986295 0.222860 0.897906 0.233273
O58   O     O_3   0.165460 0.736601 0.108399 -0.580377
C238  C     C_3   0.090676 0.719078 0.105632 -0.280411
H144  H     H_    0.059368 0.723982 0.133439 0.156649
H145  H     H_    0.084973 0.662573 0.094730 0.169871
H146  H     H_    0.064981 0.755054 0.083625 0.199750
O59   O     O_3   0.830456 0.933516 0.849675 -0.568456
C239  C     C_3   0.764704 0.965351 0.862712 -0.211331
H147  H     H_    0.723096 0.924490 0.871484 0.122606
H148  H     H_    0.741291 0.001950 0.840277 0.185217
H149  H     H_    0.776598 0.998950 0.888809 0.227438
O60   O     O_3   0.240137 0.159707 0.113310 -0.593188
C240  C     C_3   0.231313 0.219727 0.088137 -0.282956
H150  H     H_    0.250081 0.203920 0.058563 0.181660
H151  H     H_    0.264729 0.266897 0.097634 0.139133
H152  H     H_    0.173331 0.235897 0.085640 0.198542
O61   O     O_3   0.094339 0.170379 0.137522 -0.613769
C241  C     C_3   0.086566 0.094200 0.138504 -0.345204
H153  H     H_    0.064599 0.076246 0.167184 0.147001
H154  H     H_    0.138483 0.065613 0.132149 0.213140
H155  H     H_    0.047622 0.077720 0.115505 0.178891
O62   O     O_3   0.867265 0.797006 0.878757 -0.599461
C242  C     C_3   0.814640 0.802462 0.908519 -0.300939
H156  H     H_    0.764446 0.770889 0.902007 0.133912
H157  H     H_    0.801219 0.860021 0.914534 0.203147
H158  H     H_    0.838327 0.780422 0.935792 0.189662
O63   O     O_3   0.191913 0.881865 0.123136 -0.564530
C243  C     C_3   0.120117 0.908353 0.123412 -0.316947
H159  H     H_    0.108098 0.938069 0.150885 0.127265
H160  H     H_    0.079784 0.864332 0.119287 0.193882
H161  H     H_    0.113520 0.946822 0.098756 0.198888
O64   O     O_3   0.768221 0.151426 0.886378 -0.584116
C244  C     C_3   0.747023 0.208226 0.911588 -0.321602
H162  H     H_    0.702101 0.241689 0.899401 0.156543
H163  H     H_    0.793731 0.243612 0.918877 0.173752
H164  H     H_    0.727227 0.184015 0.939262 0.199624
O65   O     O_3   0.914845 0.841893 0.144105 -0.579075
C245  C     C_3   0.941255 0.909574 0.157463 -0.404332
H165  H     H_    0.985945 0.901425 0.178703 0.168652
H166  H     H_    0.898826 0.944718 0.171011 0.150906
H167  H     H_    0.963933 0.939539 0.132199 0.186274
O66   O     O_3   0.140755 0.216604 0.881701 -0.588386
C246  C     C_3   0.195280 0.216309 0.910593 -0.311851
H168  H     H_    0.242140 0.251761 0.902875 0.139306
H169  H     H_    0.214042 0.160302 0.916754 0.194263
H170  H     H_    0.171498 0.237293 0.938102 0.188287
O67   O     O_3   0.820376 0.112412 0.127723 -0.584195
C247  C     C_3   0.894054 0.092258 0.130399 -0.353552
H171  H     H_    0.907324 0.069901 0.159671 0.140184
H172  H     H_    0.930661 0.138448 0.124054 0.204892
H173  H     H_    0.905204 0.049802 0.108255 0.190293
O68   O     O_3   0.221716 0.858904 0.883303 -0.584915
C248  C     C_3   0.238476 0.803063 0.910189 -0.305955
H174  H     H_    0.297521 0.803133 0.916213 0.172249
H175  H     H_    0.222105 0.747353 0.900783 0.125375
H176  H     H_    0.210182 0.814765 0.938080 0.205799
O69   O     O_3   0.554745 0.349373 0.338740 -0.569039
C249  C     C_3   0.522832 0.288445 0.357229 -0.226215
H177  H     H_    0.563288 0.252235 0.371640 0.105060
H178  H     H_    0.489916 0.256062 0.336444 0.178900
H179  H     H_    0.485853 0.308474 0.380377 0.244481
O70   O     O_3   0.348451 0.736143 0.613847 -0.587597
C250  C     C_3   0.424037 0.748032 0.611694 -0.269211
H180  H     H_    0.443960 0.787202 0.634022 0.155785
H181  H     H_    0.436876 0.771333 0.582639 0.194308
H182  H     H_    0.453842 0.695977 0.614252 0.194068
O71   O     O_3   0.679193 0.585462 0.361606 -0.553720
C251  C     C_3   0.745393 0.555723 0.375229 -0.227759
H183  H     H_    0.783054 0.598093 0.386450 0.099038
H184  H     H_    0.773163 0.523457 0.352268 0.186162
H185  H     H_    0.733447 0.518714 0.399944 0.216366
O72   O     O_3   0.233286 0.331672 0.608208 -0.579201
C252  C     C_3   0.215132 0.406315 0.605149 -0.283020
H186  H     H_    0.220245 0.438141 0.632775 0.153143
H187  H     H_    0.158437 0.411420 0.594481 0.172656
H188  H     H_    0.250484 0.431885 0.582823 0.196316
O73   O     O_3   0.444650 0.647624 0.337680 -0.569549
C253  C     C_3   0.475853 0.707164 0.357735 -0.214087
H189  H     H_    0.435019 0.744437 0.371010 0.105860
H190  H     H_    0.512049 0.738902 0.338299 0.180065
H191  H     H_    0.509238 0.685491 0.381992 0.241697
O74   O     O_3   0.651284 0.264942 0.614228 -0.587411
C254  C     C_3   0.575772 0.252659 0.612023 -0.265267
H192  H     H_    0.556082 0.213102 0.634211 0.155105
H193  H     H_    0.563087 0.229631 0.582888 0.195052
H194  H     H_    0.545661 0.304513 0.614738 0.192078
O75   O     O_3   0.317544 0.406453 0.365323 -0.551651
C255  C     C_3   0.252066 0.438103 0.378695 -0.216578
H195  H     H_    0.212969 0.396855 0.389589 0.100059
H196  H     H_    0.225482 0.471350 0.355747 0.181573
H197  H     H_    0.264788 0.474735 0.403471 0.211966
O76   O     O_3   0.764132 0.665913 0.608587 -0.579568
C256  C     C_3   0.782827 0.591390 0.605644 -0.283501
H198  H     H_    0.778062 0.559713 0.633335 0.153451
H199  H     H_    0.839490 0.586626 0.594876 0.173261
H200  H     H_    0.747526 0.565404 0.583437 0.195827
O77   O     O_3   0.618347 0.689546 0.623698 -0.583580
C257  C     C_3   0.593662 0.617080 0.624540 -0.352457
H201  H     H_    0.567436 0.603905 0.652843 0.135273
H202  H     H_    0.638160 0.577935 0.618878 0.202818
H203  H     H_    0.552754 0.609692 0.601137 0.192045
O78   O     O_3   0.350435 0.264764 0.386935 -0.607851
C258  C     C_3   0.295266 0.259044 0.415268 -0.304423
H204  H     H_    0.249491 0.223790 0.405584 0.143378
H205  H     H_    0.275247 0.313383 0.423934 0.195375
H206  H     H_    0.319002 0.234451 0.441901 0.195113
O79   O     O_3   0.660026 0.407875 0.640118 -0.580106
C259  C     C_3   0.591468 0.433270 0.652793 -0.401674
H207  H     H_    0.598208 0.478219 0.674019 0.168674
H208  H     H_    0.556700 0.390395 0.666183 0.148732
H209  H     H_    0.561765 0.455187 0.627212 0.188040
O80   O     O_3   0.311459 0.605062 0.368943 -0.587416
C260  C     C_3   0.325136 0.646579 0.402753 -0.280280
H210  H     H_    0.303388 0.703083 0.401096 0.124917
H211  H     H_    0.383999 0.647109 0.409322 0.211082
H212  H     H_    0.298688 0.619325 0.427831 0.179783
O81   O     O_3   0.379365 0.308657 0.622794 -0.580926
C261  C     C_3   0.404263 0.381073 0.623617 -0.351370
H213  H     H_    0.431091 0.394068 0.651773 0.134778
H214  H     H_    0.359766 0.420376 0.618284 0.199946
H215  H     H_    0.444775 0.388475 0.600008 0.193348
O82   O     O_3   0.642694 0.726095 0.385436 -0.616992
C262  C     C_3   0.695123 0.721426 0.415305 -0.290417
H216  H     H_    0.747937 0.746960 0.407223 0.135556
H217  H     H_    0.702841 0.664284 0.424490 0.206780
H218  H     H_    0.673896 0.750394 0.441251 0.187567
O83   O     O_3   0.338055 0.592986 0.639169 -0.578996
C263  C     C_3   0.406474 0.566535 0.651412 -0.398665
H219  H     H_    0.399507 0.520996 0.672247 0.167701
H220  H     H_    0.441785 0.608648 0.665079 0.147754
H221  H     H_    0.435662 0.545037 0.625556 0.188337
O84   O     O_3   0.687957 0.391962 0.370244 -0.589295
C264  C     C_3   0.673011 0.349352 0.403498 -0.276054
H222  H     H_    0.694467 0.292790 0.401397 0.122554
H223  H     H_    0.613960 0.349064 0.409606 0.214795
H224  H     H_    0.698977 0.375474 0.429063 0.178673
N33   N     N_2   0.390979 0.074529 0.598939 -0.273761
H225  H     H_    0.368549 0.113927 0.581230 0.251307
C265  C     C_3   0.343515 0.047440 0.629322 -0.720245
H226  H     H_    0.286062 0.051066 0.619685 0.232314
H227  H     H_    0.350024 0.081303 0.655895 0.239448
H228  H     H_    0.355906 0.990197 0.636679 0.220999
N34   N     N_2   0.638426 0.043804 0.402355 -0.290706
H229  H     H_    0.666442 0.075813 0.421957 0.239893
C266  C     C_3   0.643663 0.075557 0.363827 -0.778657
H230  H     H_    0.699901 0.095651 0.359146 0.210764
H231  H     H_    0.607046 0.123212 0.361372 0.255080
H232  H     H_    0.634243 0.034415 0.340794 0.236951
N35   N     N_2   0.905060 0.406198 0.601784 -0.271445
H233  H     H_    0.857336 0.396173 0.586978 0.244527
C267  C     C_3   0.928135 0.349859 0.628637 -0.707837
H234  H     H_    0.907854 0.296147 0.618774 0.235304
H235  H     H_    0.904820 0.360581 0.657910 0.243822
H236  H     H_    0.988114 0.347602 0.630966 0.214048
N36   N     N_2   0.991829 0.637899 0.400751 -0.292971
H237  H     H_    0.973415 0.675697 0.420655 0.240061
C268  C     C_3   0.954127 0.648694 0.364069 -0.806994
H238  H     H_    0.941921 0.707413 0.360166 0.212361
H239  H     H_    0.901617 0.619388 0.364014 0.246813
H240  H     H_    0.989153 0.633577 0.339035 0.247511
N37   N     N_2   0.611023 0.922062 0.602266 -0.272943
H241  H     H_    0.632599 0.879861 0.586191 0.253141
C269  C     C_3   0.657570 0.950584 0.632685 -0.719728
H242  H     H_    0.715378 0.944911 0.624018 0.232356
H243  H     H_    0.649068 0.919010 0.659885 0.240055
H244  H     H_    0.645981 0.008606 0.638574 0.220623
N38   N     N_2   0.381775 0.960190 0.396010 -0.289595
H245  H     H_    0.341474 0.995927 0.388221 0.245584
C270  C     C_3   0.362392 0.884545 0.401030 -0.755285
H246  H     H_    0.311209 0.880099 0.417965 0.230151
H247  H     H_    0.405869 0.853857 0.416411 0.236932
H248  H     H_    0.353896 0.859517 0.371906 0.229840
N39   N     N_2   0.094616 0.594165 0.601860 -0.271296
H249  H     H_    0.142363 0.604394 0.587112 0.245295
C271  C     C_3   0.071267 0.650261 0.628798 -0.707476
H250  H     H_    0.091095 0.704147 0.618948 0.235213
H251  H     H_    0.094828 0.639630 0.658022 0.243638
H252  H     H_    0.011277 0.652048 0.631243 0.214062
N40   N     N_2   0.008130 0.362303 0.400849 -0.292918
H253  H     H_    0.027219 0.324774 0.420720 0.239169
C272  C     C_3   0.044340 0.351127 0.363764 -0.807530
H254  H     H_    0.055913 0.292302 0.359790 0.212803
H255  H     H_    0.097077 0.379967 0.363098 0.246768
H256  H     H_    0.008537 0.366498 0.339102 0.247710
N41   N     N_2   0.898647 0.589341 0.101949 -0.272461
H257  H     H_    0.882896 0.634305 0.086090 0.244946
C273  C     C_3   0.847103 0.564868 0.131048 -0.712910
H258  H     H_    0.790844 0.576986 0.121420 0.232051
H259  H     H_    0.856841 0.594332 0.158785 0.244464
H260  H     H_    0.852171 0.505796 0.136384 0.214916
N42   N     N_2   0.127183 0.514452 0.896461 -0.266322
H261  H     H_    0.129695 0.490983 0.869241 0.218730
C274  C     C_3   0.151039 0.589321 0.896323 -0.787882
H262  H     H_    0.204961 0.593155 0.881954 0.225933
H263  H     H_    0.156257 0.610153 0.926641 0.243838
H264  H     H_    0.111876 0.623530 0.879904 0.234440
N43   N     N_2   0.434482 0.882786 0.099294 -0.266194
H265  H     H_    0.398044 0.856306 0.081392 0.254421
C275  C     C_3   0.462869 0.839716 0.131129 -0.742072
H266  H     H_    0.462883 0.781404 0.122833 0.232448
H267  H     H_    0.427429 0.846637 0.157064 0.239296
H268  H     H_    0.518915 0.855971 0.138852 0.224724
N44   N     N_2   0.426401 0.112003 0.900750 -0.292934
H269  H     H_    0.387441 0.135521 0.918326 0.222789
C276  C     C_3   0.453588 0.157835 0.869747 -0.764667
H270  H     H_    0.451709 0.215691 0.878860 0.239429
H271  H     H_    0.418888 0.151168 0.843509 0.236225
H272  H     H_    0.510171 0.143624 0.862165 0.241007
N45   N     N_2   0.099723 0.412192 0.099141 -0.276089
H273  H     H_    0.116392 0.369786 0.081601 0.225218
C277  C     C_3   0.151466 0.433863 0.128762 -0.733117
H274  H     H_    0.207703 0.423630 0.118446 0.226398
H275  H     H_    0.142519 0.401073 0.155497 0.244915
H276  H     H_    0.145893 0.492120 0.136097 0.220333
N46   N     N_2   0.859141 0.474452 0.901802 -0.290623
H277  H     H_    0.826141 0.447953 0.921531 0.237986
C278  C     C_3   0.851499 0.440785 0.863809 -0.797350
H278  H     H_    0.793879 0.424916 0.859276 0.211865
H279  H     H_    0.884442 0.390482 0.862125 0.248599
H280  H     H_    0.864337 0.479675 0.840111 0.242803
N47   N     N_2   0.569988 0.114012 0.098910 -0.275574
H281  H     H_    0.606807 0.139125 0.080660 0.247901
C279  C     C_3   0.544017 0.158415 0.130784 -0.736448
H282  H     H_    0.544522 0.216478 0.122001 0.232654
H283  H     H_    0.580692 0.151632 0.156224 0.240133
H284  H     H_    0.488215 0.143228 0.139488 0.225625
N48   N     N_2   0.575519 0.888908 0.900178 -0.290343
H285  H     H_    0.615136 0.865870 0.917504 0.224532
C280  C     C_3   0.549955 0.843894 0.868412 -0.757044
H286  H     H_    0.551864 0.785832 0.877116 0.232767
H287  H     H_    0.586023 0.851326 0.842775 0.239178
H288  H     H_    0.493658 0.858064 0.859964 0.230341
N49   N     N_2   0.700929 0.972264 0.543638 -0.307697
H289  H     H_    0.739752 0.937967 0.532225 0.229659
C281  C     C_3   0.729674 0.041786 0.555991 -0.787111
H290  H     H_    0.778303 0.033063 0.574569 0.234733
H291  H     H_    0.688606 0.072000 0.573364 0.264987
H292  H     H_    0.745532 0.074976 0.530290 0.227722
N50   N     N_2   0.304591 0.007140 0.458572 -0.301643
H293  H     H_    0.262598 0.978030 0.470831 0.230361
C282  C     C_3   0.283576 0.079478 0.446607 -0.869294
H294  H     H_    0.233150 0.076568 0.428934 0.241573
H295  H     H_    0.326970 0.104200 0.428455 0.263129
H296  H     H_    0.273390 0.114422 0.472462 0.237403
N51   N     N_2   0.072852 0.686353 0.540687 -0.304388
H297  H     H_    0.118207 0.712943 0.530376 0.231045
C283  C     C_3   0.012155 0.734322 0.548401 -0.798054
H298  H     H_    0.030778 0.781206 0.566162 0.234481
H299  H     H_    0.969211 0.705179 0.564969 0.265001
H300  H     H_    0.988847 0.755115 0.520660 0.225989
N52   N     N_2   0.916397 0.319108 0.458218 -0.308986
H301  H     H_    0.925286 0.267849 0.469302 0.224879
C284  C     C_3   0.841631 0.332147 0.447687 -0.803446
H302  H     H_    0.807649 0.337847 0.474321 0.228452
H303  H     H_    0.821008 0.285657 0.430346 0.239364
H304  H     H_    0.837224 0.382315 0.429811 0.258521
N53   N     N_2   0.305119 0.011218 0.541249 -0.308794
H305  H     H_    0.263444 0.040660 0.528922 0.229837
C285  C     C_3   0.282644 0.940269 0.554927 -0.773002
H306  H     H_    0.233313 0.945833 0.573326 0.235177
H307  H     H_    0.326094 0.914976 0.572864 0.262853
H308  H     H_    0.270008 0.904173 0.529845 0.228612
N54   N     N_2   0.704495 0.973564 0.461011 -0.309388
H309  H     H_    0.749581 0.996106 0.474042 0.225172
C286  C     C_3   0.716308 0.900490 0.447089 -0.792632
H310  H     H_    0.720077 0.862255 0.472099 0.223987
H311  H     H_    0.767890 0.898225 0.430378 0.235500
H312  H     H_    0.671257 0.883826 0.427499 0.272023
N55   N     N_2   0.927021 0.313901 0.540635 -0.304669
H313  H     H_    0.881695 0.287292 0.530306 0.231053
C287  C     C_3   0.987726 0.265944 0.548338 -0.795691
H314  H     H_    0.969122 0.219086 0.566124 0.234606
H315  H     H_    0.030694 0.295108 0.564874 0.264810
H316  H     H_    0.010997 0.245115 0.520592 0.225865
N56   N     N_2   0.083418 0.681287 0.458279 -0.309338
H317  H     H_    0.074683 0.732515 0.469441 0.224972
C288  C     C_3   0.158051 0.668203 0.447509 -0.806255
H318  H     H_    0.178553 0.714749 0.430166 0.238919
H319  H     H_    0.162175 0.618116 0.429549 0.258343
H320  H     H_    0.192289 0.662332 0.474034 0.229233
N57   N     N_2   0.192995 0.463055 0.041439 -0.313018
H321  H     H_    0.230451 0.428162 0.029284 0.219045
C289  C     C_3   0.224490 0.530703 0.054822 -0.767842
H322  H     H_    0.273044 0.519089 0.073000 0.230999
H323  H     H_    0.184904 0.561396 0.072923 0.264747
H324  H     H_    0.241148 0.564761 0.029599 0.229483
N58   N     N_2   0.803577 0.555180 0.960123 -0.309508
H325  H     H_    0.755298 0.538578 0.972414 0.224274
C290  C     C_3   0.802952 0.630157 0.947782 -0.797057
H326  H     H_    0.752758 0.641109 0.930859 0.235381
H327  H     H_    0.850617 0.641551 0.928888 0.267982
H328  H     H_    0.804042 0.666751 0.973571 0.224209
N59   N     N_2   0.498339 0.198601 0.042209 -0.305088
H329  H     H_    0.524088 0.241962 0.029187 0.228311
C291  C     C_3   0.427384 0.216877 0.057514 -0.794610
H330  H     H_    0.431634 0.265791 0.076337 0.236712
H331  H     H_    0.405695 0.171504 0.075400 0.272352
H332  H     H_    0.388983 0.228507 0.033301 0.218175
N60   N     N_2   0.517900 0.800419 0.958734 -0.302953
H333  H     H_    0.547625 0.760148 0.972194 0.224071
C292  C     C_3   0.449446 0.774901 0.943237 -0.820585
H334  H     H_    0.410838 0.762825 0.967297 0.230394
H335  H     H_    0.458484 0.724576 0.926037 0.236335
H336  H     H_    0.425431 0.816513 0.923654 0.260287
N61   N     N_2   0.804913 0.551397 0.042749 -0.308030
H337  H     H_    0.771086 0.591008 0.031719 0.227863
C293  C     C_3   0.767234 0.485386 0.053632 -0.788893
H338  H     H_    0.719407 0.499099 0.071949 0.233723
H339  H     H_    0.803586 0.449286 0.070810 0.264894
H340  H     H_    0.748268 0.455939 0.027232 0.227605
N62   N     N_2   0.194699 0.466692 0.958831 -0.271217
H341  H     H_    0.239968 0.490027 0.971274 0.227771
C294  C     C_3   0.206494 0.392732 0.946157 -0.811506
H342  H     H_    0.256679 0.389985 0.928277 0.239658
H343  H     H_    0.160169 0.373933 0.928053 0.263900
H344  H     H_    0.212690 0.356134 0.971719 0.211726
N63   N     N_2   0.505233 0.800065 0.041712 -0.310943
H345  H     H_    0.479954 0.756580 0.028533 0.227921
C295  C     C_3   0.576422 0.782485 0.056944 -0.772587
H346  H     H_    0.572810 0.733110 0.075452 0.237051
H347  H     H_    0.597424 0.827798 0.075116 0.261765
H348  H     H_    0.615066 0.771925 0.032697 0.227630
N64   N     N_2   0.486787 0.199015 0.959192 -0.300417
H349  H     H_    0.456899 0.239433 0.972433 0.223264
C296  C     C_3   0.556423 0.223924 0.944949 -0.830197
H350  H     H_    0.548941 0.274744 0.927977 0.231470
H351  H     H_    0.581189 0.182357 0.925572 0.261893
H352  H     H_    0.593835 0.235111 0.969661 0.229380

loop_
_geom_bond_atom_site_label_1
_geom_bond_atom_site_label_2
_geom_bond_distance
_ccdc_geom_bond_type
C221  H84   1.111234 S    
C254  H192  1.113281 S    
Zn4   O4    1.951498 S    
N41   H257  1.031425 S    
C28   N44   1.431154 S    
C201  H4    1.111113 S    
C2    C5    1.411417 A    
N43   C275  1.445848 S    
C232  H126  1.108161 S    
C295  H346  1.110068 S    
C107  C139  1.417458 A    
C48   C148  1.411641 A    
C15   C55   1.415429 A    
C56   C152  1.411477 A    
C22   N38   1.425287 S    
Zn6   O43   1.945721 S    
C37   C63   1.451599 S    
Zn13  O28   1.945722 S    
C206  H22   1.106347 S    
C248  H176  1.109228 S    
C38   C64   1.448570 S    
Zn14  O27   1.945721 S    
C275  H267  1.109586 S    
Zn8   O37   1.944454 S    
C72   C190  1.476760 S    
C117  C124  1.406730 A    
C73   C199  1.465243 S    
C271  H251  1.108427 S    
C25   C53   1.411964 A    
C83   N3    1.427430 S    
C246  H169  1.107262 S    
C249  H177  1.114594 S    
N59   C291  1.447187 S    
C233  H130  1.112543 S    
C267  H235  1.108420 S    
Zn16  O9    1.933920 S    
C116  C125  1.410333 A    
O8    C60   1.283882 A    
C93   C156  1.420470 A    
C121  O75   1.385558 S    
C284  H304  1.110865 S    
C176  C177  1.392780 A    
N51   H297  1.030566 S    
C255  H196  1.109834 S    
N27   H105  1.030118 S    
N14   H53   1.027272 S    
Zn3   O42   1.944516 S    
C43   C147  1.417522 A    
O50   C72   1.273222 A    
O6    C58   1.278967 A    
C251  H185  1.108708 S    
N52   H301  1.029958 S    
N31   C231  1.447783 S    
C281  H292  1.110682 S    
N4    C204  1.447792 S    
C85   C164  1.428168 A    
C49   C149  1.412591 A    
C257  H201  1.109956 S    
C118  O80   1.384318 S    
C7    N55   1.424668 S    
C282  H296  1.110390 S    
C19   C47   1.412179 A    
C202  H7    1.110438 S    
C39   C61   1.453430 S    
C268  H240  1.108331 S    
C29   C37   1.407720 A    
Zn2   O2    1.950920 S    
N49   C281  1.448088 S    
C28   C40   1.411857 A    
O44   C78   1.286627 A    
C172  C181  1.391392 A    
N25   C225  1.449509 S    
C12   N60   1.425540 S    
C182  C188  1.430647 A    
C20   N36   1.449245 S    
C109  N29   1.435736 S    
C110  C171  1.411831 A    
C179  C189  1.416263 A    
N15   H57   1.029586 S    
N56   C288  1.442977 S    
C216  H64   1.110480 S    
C241  H154  1.112434 S    
C81   C168  1.428325 A    
C32   C40   1.412105 A    
N10   H37   1.027400 S    
C157  C164  1.394415 A    
Zn15  O22   1.944456 S    
C172  C198  1.425435 A    
C275  H268  1.106722 S    
C269  H242  1.109896 S    
O21   C65   1.287662 A    
O80   C260  1.410266 S    
C82   C114  1.413188 A    
C287  H314  1.110195 S    
C270  H248  1.109974 S    
O11   C59   1.278391 A    
N12   C212  1.449395 S    
C9    N57   1.426292 S    
C107  N27   1.433987 S    
O62   C242  1.409999 S    
C252  H186  1.116928 S    
C83   C166  1.430409 A    
Zn14  O3    1.950991 S    
C263  H221  1.108844 S    
O15   C63   1.279416 A    
C18   N34   1.447239 S    
C227  H106  1.109549 S    
O40   C74   1.286517 A    
C156  C165  1.395556 A    
C98   C130  1.412940 A    
Zn4   O46   1.945387 S    
C294  H342  1.109712 S    
C100  C181  1.418003 A    
Zn12  O30   1.945387 S    
C265  H228  1.106911 S    
C261  H214  1.107867 S    
C90   N10   1.426767 S    
C256  H200  1.109194 S    
C243  H159  1.110666 S    
C257  H203  1.108516 S    
C262  H217  1.106816 S    
C253  H189  1.114484 S    
C273  H260  1.106315 S    
C47   C147  1.417537 A    
C143  O53   1.383358 S    
N20   H77   1.030439 S    
C222  H88   1.112297 S    
C272  H256  1.108277 S    
N35   H233  1.031363 S    
C69   C187  1.459562 S    
C218  H70   1.103279 S    
Zn13  O4    1.950990 S    
C19   C35   1.407446 A    
C26   C54   1.411137 A    
C120  O78   1.383150 S    
C234  H133  1.110013 S    
C217  H67   1.110469 S    
C181  C187  1.417037 A    
C237  H142  1.110993 S    
N1    C201  1.446957 S    
C153  C168  1.394018 A    
O35   C79   1.276566 A    
N37   H241  1.031442 S    
C129  O67   1.381317 S    
C232  H128  1.111429 S    
C89   N9    1.435044 S    
C277  H276  1.105929 S    
C159  C162  1.399162 A    
Zn2   O39   1.945680 S    
Zn3   O45   1.945388 S    
C23   N39   1.432380 S    
C212  H48   1.110662 S    
C156  C188  1.430574 A    
C261  H215  1.108636 S    
C290  H327  1.110514 S    
C252  H188  1.109189 S    
C269  H243  1.109261 S    
N26   H101  1.029855 S    
C223  H91   1.110441 S    
C139  O57   1.385081 S    
C1    C6    1.411310 A    
Zn15  O10   1.933920 S    
C23   C35   1.407540 A    
O64   C244  1.410779 S    
N58   C290  1.443247 S    
C1    C41   1.412592 A    
N38   H245  1.026629 S    
C29   N45   1.432805 S    
C3    C43   1.415637 A    
C237  H143  1.108961 S    
C264  H222  1.115546 S    
Zn3   O14   1.934018 S    
C132  C141  1.410748 A    
C30   C38   1.421404 A    
N43   H265  1.031569 S    
C169  C199  1.409956 A    
C85   N5    1.427602 S    
O76   C256  1.417475 S    
C108  C140  1.408796 A    
Zn5   O44   1.945722 S    
C222  H87   1.109602 S    
C2    N50   1.424360 S    
C149  C150  1.405682 A    
C285  H307  1.110867 S    
C87   C119  1.418563 A    
N33   H225  1.031563 S    
C113  O83   1.382346 S    
C291  H331  1.110195 S    
C244  H163  1.107574 S    
C104  C177  1.421810 A    
C157  C189  1.411453 A    
O31   C75   1.277821 A    
N35   C267  1.449642 S    
C114  O84   1.384131 S    
C14   N62   1.425850 S    
C133  C140  1.405463 A    
C217  H68   1.111142 S    
C293  H339  1.111473 S    
C29   C49   1.410103 A    
C230  H118  1.111787 S    
C102  C134  1.413975 A    
C265  H226  1.110201 S    
C242  H157  1.106978 S    
O10   C58   1.278897 A    
C31   C51   1.409115 A    
N12   H45   1.029473 S    
C94   C155  1.415444 A    
C236  H139  1.109186 S    
C276  H270  1.110115 S    
C173  C195  1.412529 A    
C254  H194  1.107372 S    
N16   H61   1.029112 S    
N48   C280  1.446523 S    
C174  C196  1.429766 A    
C122  O76   1.386858 S    
N55   C287  1.448154 S    
Zn12  O1    1.951498 S    
N17   H65   1.029774 S    
C201  H2    1.110663 S    
C220  H79   1.110287 S    
O22   C66   1.284674 A    
C246  H170  1.108444 S    
C209  H35   1.109231 S    
C274  H262  1.110409 S    
C86   C163  1.419383 A    
N62   C294  1.445030 S    
C46   C146  1.417577 A    
N42   H261  1.028642 S    
C135  O61   1.382279 S    
C292  H336  1.109862 S    
N20   C220  1.450055 S    
N23   H89   1.031132 S    
C261  H213  1.109805 S    
C262  H218  1.107523 S    
N64   C296  1.446642 S    
C260  H210  1.115616 S    
C92   C157  1.412173 A    
C98   N18   1.424351 S    
C86   C118  1.411751 A    
O69   C249  1.415806 S    
C110  N30   1.426162 S    
C126  O72   1.386823 S    
C42   C146  1.415743 A    
O9    C57   1.280597 A    
C74   C200  1.470065 S    
C111  C170  1.423068 A    
C34   C60   1.453862 S    
C90   C122  1.408567 A    
N57   H321  1.030018 S    
C208  H31   1.110213 S    
C104  N24   1.426009 S    
N14   C214  1.448133 S    
N28   C228  1.448971 S    
C13   N61   1.425386 S    
N34   H229  1.031678 S    
C243  H161  1.108741 S    
C118  C123  1.409679 A    
C115  C126  1.406157 A    
C110  C142  1.410391 A    
N9    C209  1.449488 S    
N55   H313  1.030540 S    
O75   C255  1.414859 S    
C278  H279  1.108048 S    
C113  C128  1.406894 A    
C22   C34   1.404339 A    
C89   C160  1.421288 A    
C267  H234  1.109580 S    
C10   N58   1.426231 S    
C234  H132  1.116589 S    
Zn13  O8    1.933893 S    
Zn5   O1    1.950990 S    
Zn9   O4    1.950917 S    
C225  H99   1.111573 S    
Zn10  O3    1.950920 S    
C3    N51   1.424677 S    
C206  H24   1.111485 S    
Zn11  O26   1.944516 S    
N59   H329  1.030026 S    
C40   C62   1.456278 S    
O36   C80   1.275428 A    
O39   C73   1.290961 A    
C231  H124  1.111650 S    
C276  H272  1.104996 S    
C251  H184  1.110098 S    
C112  N32   1.428465 S    
C202  H6    1.106051 S    
C203  H12   1.111126 S    
C296  H351  1.110553 S    
O77   C257  1.409518 S    
O30   C74   1.279361 A    
C96   N16   1.427040 S    
C20   C36   1.424325 A    
C168  C200  1.437025 A    
C30   C50   1.420171 A    
Zn4   O13   1.934018 S    
N13   C213  1.449140 S    
C167  C199  1.424083 A    
C264  H224  1.107679 S    
C153  C185  1.410877 A    
C288  H319  1.110795 S    
Zn1   O40   1.945678 S    
O34   C78   1.279311 A    
Zn6   O15   1.933893 S    
C93   C125  1.414006 A    
C14   C54   1.422527 A    
C250  H182  1.107328 S    
C130  O68   1.382415 S    
C235  H135  1.114244 S    
C5    C45   1.411170 A    
C12   C52   1.418618 A    
C19   N35   1.432402 S    
C93   N13   1.434255 S    
C94   N14   1.427626 S    
C219  H76   1.111120 S    
C138  O60   1.383861 S    
C256  H199  1.110002 S    
C102  N22   1.425131 S    
C96   C128  1.409363 A    
C209  H34   1.110366 S    
C202  H8    1.111541 S    
C140  O58   1.386715 S    
C240  H151  1.112925 S    
N60   H333  1.030109 S    
C230  H120  1.110636 S    
N30   C230  1.450136 S    
C77   C195  1.465998 S    
N5    H17   1.030775 S    
N3    C203  1.447918 S    
C211  H43   1.110059 S    
N28   H109  1.027141 S    
C247  H173  1.108087 S    
Zn3   O3    1.951498 S    
N54   H309  1.030048 S    
C175  C178  1.393665 A    
C5    N53   1.426604 S    
C263  H220  1.114994 S    
O57   C237  1.413197 S    
O25   C69   1.284660 A    
C131  O65   1.381669 S    
Zn9   O24   1.945678 S    
C247  H171  1.111058 S    
C224  H96   1.111050 S    
Zn10  O23   1.945680 S    
Zn4   O41   1.944517 S    
C282  H295  1.110127 S    
O28   C72   1.295235 A    
C180  C190  1.443656 A    
Zn12  O25   1.944517 S    
O29   C73   1.270449 A    
N50   C282  1.445571 S    
C8    C48   1.417097 A    
C226  H104  1.110832 S    
O58   C238  1.417605 S    
N8    C208  1.449188 S    
C217  H66   1.111069 S    
C176  C194  1.423006 A    
C258  H206  1.108195 S    
O63   C243  1.408815 S    
C18   C34   1.424783 A    
C142  O56   1.383446 S    
N37   C269  1.447948 S    
C260  H212  1.107675 S    
C27   C55   1.411960 A    
C221  H83   1.110642 S    
C215  H58   1.108085 S    
C55   C151  1.409661 A    
O74   C254  1.410806 S    
C164  C196  1.435887 A    
C249  H179  1.108092 S    
Zn7   O49   1.945368 S    
Zn9   O31   1.944845 S    
C53   C149  1.413771 A    
Zn10  O32   1.944844 S    
C10   C50   1.421582 A    
Zn7   O18   1.933920 S    
C259  H207  1.108379 S    
Zn11  O29   1.945388 S    
C228  H110  1.111369 S    
O14   C62   1.282127 A    
C290  H328  1.111021 S    
N56   H317  1.029942 S    
N52   C284  1.443162 S    
C83   C115  1.418933 A    
C161  C193  1.418862 A    
N51   C283  1.448178 S    
C117  O79   1.382168 S    
C134  C139  1.408560 A    
C207  H28   1.111184 S    
C136  O62   1.383399 S    
C213  H51   1.111660 S    
O81   C261  1.409896 S    
C205  H18   1.110788 S    
C266  H230  1.111355 S    
C283  H300  1.110681 S    
C249  H178  1.109004 S    
C296  H352  1.110741 S    
N38   C270  1.447631 S    
C233  H131  1.107927 S    
C210  H39   1.108798 S    
C11   N59   1.426020 S    
C292  H335  1.110140 S    
C7    C47   1.415556 A    
C44   C148  1.411593 A    
C101  C180  1.431213 A    
C35   C57   1.453288 S    
C211  H44   1.111207 S    
N19   C219  1.446799 S    
C245  H165  1.108613 S    
C11   C16   1.414935 A    
C165  C197  1.419839 A    
C231  H122  1.109001 S    
C137  O59   1.385490 S    
C136  C137  1.409858 A    
O19   C63   1.280870 A    
O73   C253  1.415431 S    
C286  H312  1.110348 S    
C203  H10   1.111092 S    
C281  H291  1.111156 S    
C99   C131  1.416441 A    
C257  H202  1.107852 S    
C114  C127  1.410358 A    
C175  C193  1.414000 A    
C133  O63   1.382384 S    
C26   N42   1.428675 S    
N29   H113  1.029849 S    
C289  H322  1.110249 S    
C268  H239  1.107378 S    
C107  C174  1.421637 A    
C162  C194  1.442651 A    
O13   C61   1.280158 A    
N25   H97   1.029729 S    
C97   C184  1.428783 A    
N27   C227  1.449054 S    
C250  H180  1.113334 S    
N16   C216  1.449816 S    
C235  H137  1.109076 S    
C213  H50   1.109469 S    
C76   C194  1.476500 S    
C158  C190  1.423942 A    
Zn7   O38   1.944456 S    
N63   H345  1.030230 S    
N39   H249  1.031345 S    
C219  H74   1.110799 S    
N44   C276  1.445810 S    
C145  C146  1.404926 A    
C216  H63   1.107001 S    
C214  H54   1.111263 S    
C99   C182  1.425976 A    
O41   C79   1.283260 A    
Zn8   O50   1.945369 S    
O42   C80   1.293585 A    
N42   C274  1.446427 S    
C166  C198  1.443862 A    
C218  H71   1.110988 S    
C244  H162  1.112379 S    
C82   C167  1.419535 A    
Zn15  O33   1.945368 S    
C204  H16   1.111167 S    
O48   C66   1.280904 A    
C239  H147  1.115047 S    
N3    H9    1.029609 S    
O51   C69   1.273964 A    
N60   C292  1.446331 S    
O70   C250  1.410905 S    
Zn8   O4    1.951694 S    
C91   C158  1.422319 A    
C80   C198  1.476646 S    
Zn12  O5    1.934018 S    
C104  C136  1.415438 A    
O84   C264  1.410140 S    
C119  C122  1.405783 A    
C163  C195  1.422660 A    
N15   C215  1.451512 S    
Zn14  O7    1.933893 S    
C4    C44   1.416747 A    
C96   C153  1.411892 A    
O12   C60   1.278293 A    
C262  H216  1.115169 S    
N34   C266  1.446618 S    
C243  H160  1.108380 S    
C50   C150  1.417178 A    
C253  H190  1.108591 S    
C293  H338  1.110219 S    
C273  H259  1.108638 S    
C169  C184  1.397396 A    
C78   C196  1.470199 S    
C103  N23   1.429488 S    
C286  H310  1.110836 S    
C272  H255  1.107117 S    
Zn15  O2    1.951691 S    
C279  H284  1.105895 S    
N6    C206  1.447849 S    
N29   C229  1.449943 S    
C289  H324  1.110710 S    
N48   H285  1.031506 S    
N41   C273  1.448292 S    
C229  H114  1.109094 S    
N1    H1    1.030751 S    
C171  C182  1.391662 A    
C81   C113  1.418012 A    
C232  H127  1.109179 S    
C288  H320  1.111202 S    
C259  H209  1.108871 S    
C70   C188  1.469714 S    
O56   C236  1.410156 S    
C212  H47   1.107101 S    
N7    C207  1.447681 S    
C106  N26   1.423335 S    
C252  H187  1.110018 S    
C212  H46   1.111666 S    
C135  C138  1.410122 A    
C154  C167  1.394994 A    
N39   C271  1.449693 S    
Zn6   O52   1.944773 S    
C281  H290  1.110200 S    
C253  H191  1.107859 S    
C91   C123  1.412600 A    
C242  H156  1.114543 S    
C223  H92   1.111409 S    
C21   N37   1.432375 S    
C82   N2    1.426160 S    
C92   C124  1.409216 A    
C205  H19   1.110532 S    
C266  H232  1.107296 S    
C151  C152  1.398532 A    
C233  H129  1.109582 S    
C24   C44   1.416162 A    
C267  H236  1.108059 S    
C106  C138  1.407269 A    
C84   C165  1.420518 A    
O53   C233  1.411055 S    
C170  C200  1.430808 A    
C21   C41   1.412282 A    
C207  H26   1.111066 S    
C9    C49   1.411779 A    
C255  H195  1.111004 S    
O20   C64   1.282053 A    
Zn11  O6    1.934018 S    
O55   C235  1.416616 S    
C236  H138  1.113237 S    
C33   C59   1.449356 S    
C155  C166  1.399275 A    
C97   C129  1.419053 A    
C227  H107  1.111687 S    
C24   C36   1.424013 A    
N44   H269  1.031538 S    
N18   C218  1.451060 S    
C95   C127  1.411975 A    
C52   C152  1.411633 A    
C271  H252  1.108230 S    
C24   N40   1.449182 S    
C160  C192  1.430526 A    
C265  H227  1.109694 S    
C25   N41   1.432557 S    
C27   N43   1.430709 S    
C141  O55   1.385701 S    
C206  H23   1.110401 S    
C27   C39   1.410967 A    
C88   N8    1.427455 S    
C247  H172  1.106709 S    
N45   C277  1.448092 S    
C254  H193  1.109214 S    
C102  C179  1.416211 A    
C218  H72   1.111308 S    
Zn16  O34   1.945369 S    
N61   C293  1.448137 S    
N64   H349  1.030246 S    
O72   C252  1.417541 S    
C184  C186  1.441464 A    
C220  H78   1.106476 S    
C95   C154  1.421487 A    
N32   H125  1.026706 S    
C9    C14   1.410315 A    
O49   C71   1.277635 A    
C31   N47   1.430887 S    
C241  H153  1.112685 S    
N40   C272  1.449276 S    
N32   C232  1.448970 S    
C100  C132  1.414301 A    
C295  H347  1.110329 S    
C238  H146  1.109192 S    
C100  N20   1.426680 S    
C292  H334  1.110910 S    
C12   C15   1.416403 A    
C282  H294  1.109808 S    
C2    C42   1.422329 A    
C242  H158  1.107959 S    
N18   H69   1.030617 S    
C244  H164  1.109127 S    
N22   H85   1.030844 S    
C15   N63   1.425651 S    
O37   C75   1.281729 A    
C31   C39   1.409708 A    
C125  O71   1.384800 S    
C87   C162  1.430378 A    
O38   C76   1.294823 A    
C98   C183  1.414060 A    
C239  H149  1.108881 S    
C131  C142  1.406715 A    
C274  H264  1.110134 S    
C229  H115  1.112118 S    
C3    C8    1.407349 A    
C81   N1    1.427200 S    
N46   H277  1.031524 S    
C294  H343  1.110072 S    
C211  H42   1.108562 S    
C129  C144  1.407184 A    
C248  H175  1.116347 S    
C116  O82   1.384649 S    
Zn5   O16   1.933893 S    
C105  C176  1.418341 A    
C208  H30   1.107257 S    
C290  H326  1.109408 S    
C71   C189  1.461021 S    
C17   C45   1.410047 A    
C270  H247  1.112246 S    
C285  H308  1.110785 S    
C226  H102  1.104013 S    
C103  C135  1.412278 A    
C278  H278  1.111479 S    
C177  C191  1.421590 A    
C214  H56   1.110476 S    
N26   C226  1.450258 S    
C178  C192  1.430818 A    
Zn2   O19   1.933929 S    
C101  C133  1.417683 A    
C6    N54   1.426734 S    
C294  H344  1.110578 S    
C32   N48   1.431672 S    
Zn6   O2    1.950991 S    
C65   C191  1.461324 S    
C234  H134  1.109218 S    
N47   H281  1.031660 S    
N21   C221  1.447532 S    
Zn14  O36   1.944773 S    
O16   C64   1.277348 A    
C8    N56   1.426150 S    
C105  C137  1.411766 A    
C275  H266  1.110151 S    
C222  H86   1.108799 S    
Zn8   O17   1.933920 S    
C283  H298  1.110196 S    
C246  H168  1.113829 S    
C231  H123  1.110145 S    
C241  H155  1.107804 S    
C269  H244  1.107374 S    
N8    H29   1.030810 S    
C134  O64   1.382675 S    
C170  C183  1.392290 A    
C203  H11   1.110483 S    
C173  C180  1.399826 A    
N11   H41   1.029263 S    
C16   C56   1.418280 A    
C223  H90   1.110897 S    
C99   N19   1.427843 S    
C45   C145  1.411913 A    
C147  C148  1.407690 A    
C108  N28   1.427812 S    
C259  H208  1.115067 S    
C84   N4    1.426095 S    
Zn1   O1    1.950917 S    
C221  H82   1.111047 S    
C127  O69   1.384031 S    
N49   H289  1.030413 S    
O43   C77   1.289534 A    
C92   N12   1.426873 S    
C264  H223  1.107266 S    
C288  H318  1.108869 S    
N53   H305  1.029775 S    
N7    H25   1.029817 S    
C255  H197  1.108999 S    
C68   C186  1.475899 S    
N2    C202  1.447931 S    
C219  H75   1.110589 S    
C235  H136  1.108994 S    
C236  H140  1.107532 S    
C41   C145  1.413268 A    
Zn1   O20   1.933929 S    
N17   C217  1.447629 S    
Zn5   O51   1.944771 S    
C291  H332  1.110716 S    
O23   C67   1.281932 A    
C183  C185  1.414586 A    
C109  C141  1.414874 A    
C158  C163  1.394925 A    
C111  C143  1.415497 A    
C105  N25   1.435042 S    
C171  C197  1.412748 A    
O67   C247  1.409242 S    
C112  C144  1.409054 A    
C240  H150  1.109140 S    
C111  N31   1.431146 S    
C293  H340  1.110740 S    
C23   C43   1.412435 A    
C230  H119  1.105749 S    
Zn16  O21   1.944454 S    
C263  H219  1.108337 S    
O18   C62   1.281481 A    
C284  H303  1.108822 S    
C95   N15   1.435000 S    
C88   C161  1.419952 A    
C224  H94   1.106735 S    
C273  H258  1.109706 S    
C276  H271  1.109635 S    
N24   H93   1.030735 S    
C75   C193  1.460894 S    
C128  O70   1.383802 S    
C224  H95   1.110347 S    
C144  O54   1.387714 S    
O65   C245  1.413497 S    
C17   N33   1.432241 S    
C21   C33   1.408301 A    
C123  O73   1.383178 S    
C296  H350  1.109809 S    
C159  C191  1.413168 A    
C220  H80   1.110782 S    
C25   C37   1.409376 A    
C228  H112  1.109786 S    
N2    H5    1.030477 S    
N24   C224  1.447848 S    
C209  H36   1.111642 S    
O52   C70   1.281175 A    
C214  H55   1.108959 S    
C51   C151  1.409298 A    
N54   C286  1.443274 S    
C88   C120  1.413250 A    
C119  O77   1.382579 S    
N45   H273  1.031497 S    
C271  H250  1.109524 S    
C204  H15   1.110542 S    
N23   C223  1.447029 S    
C205  H20   1.111084 S    
O5    C57   1.280776 A    
C260  H211  1.107035 S    
O47   C65   1.272272 A    
C227  H108  1.109659 S    
N61   H337  1.030420 S    
C91   N11   1.434859 S    
N33   C265  1.447726 S    
O7    C59   1.280607 A    
O78   C258  1.408868 S    
C28   C56   1.411323 A    
C103  C178  1.427042 A    
C87   N7    1.427369 S    
C210  H38   1.111315 S    
C295  H348  1.110714 S    
O68   C248  1.414018 S    
C266  H231  1.109201 S    
C238  H145  1.109967 S    
O27   C71   1.281629 A    
C280  H287  1.109478 S    
C229  H116  1.110625 S    
O71   C251  1.415151 S    
N57   C289  1.448174 S    
N6    H21   1.030469 S    
C208  H32   1.110275 S    
O32   C76   1.273921 A    
C287  H315  1.111487 S    
C248  H174  1.106635 S    
C4    C7    1.407145 A    
O17   C61   1.282178 A    
C79   C197  1.461165 S    
C237  H141  1.109055 S    
C210  H40   1.110706 S    
C120  C121  1.410207 A    
C207  H27   1.110533 S    
C20   C48   1.416637 A    
C278  H280  1.107846 S    
N10   C210  1.447635 S    
N36   C268  1.449287 S    
C30   N46   1.447878 S    
Zn16  O1    1.951694 S    
C283  H299  1.111489 S    
C258  H204  1.114475 S    
N53   C285  1.447894 S    
C274  H263  1.111240 S    
C97   N17   1.427754 S    
C225  H98   1.108752 S    
C6    C46   1.423958 A    
O59   C239  1.416921 S    
C287  H316  1.110683 S    
C94   C126  1.408922 A    
C284  H302  1.111191 S    
N11   C211  1.451442 S    
C154  C186  1.423799 A    
C115  O81   1.382785 S    
O82   C262  1.409397 S    
C67   C185  1.460963 S    
N40   H253  1.031390 S    
C132  O66   1.383420 S    
C130  C143  1.406635 A    
C258  H205  1.106215 S    
N19   H73   1.030732 S    
C245  H166  1.115110 S    
C106  C175  1.413812 A    
C109  C172  1.420016 A    
C32   C52   1.412434 A    
C66   C192  1.469212 S    
C251  H183  1.112335 S    
O24   C68   1.293971 A    
C86   N6    1.426643 S    
N31   H121  1.030375 S    
C286  H311  1.109683 S    
N4    H13   1.030949 S    
C250  H181  1.109257 S    
C280  H288  1.107283 S    
C13   C53   1.412887 A    
C84   C116  1.412878 A    
C22   C42   1.411836 A    
O33   C77   1.272387 A    
N58   H325  1.030093 S    
C238  H144  1.117002 S    
C17   C33   1.406159 A    
C289  H323  1.110995 S    
C204  H14   1.106768 S    
C268  H238  1.111749 S    
Zn13  O35   1.944771 S    
C16   N64   1.424813 S    
C201  H3    1.110624 S    
N50   H293  1.030337 S    
C26   C38   1.409696 A    
Zn9   O12   1.933929 S    
C280  H286  1.109941 S    
C54   C150  1.415591 A    
C277  H275  1.109128 S    
Zn10  O11   1.933929 S    
Zn7   O3    1.951691 S    
Zn11  O2    1.951498 S    
C245  H167  1.107995 S    
N47   C279  1.445008 S    
C291  H330  1.110091 S    
C11   C51   1.414100 A    
O83   C263  1.414034 S    
C228  H111  1.108184 S    
C216  H62   1.111597 S    
C174  C179  1.391627 A    
O54   C234  1.418001 S    
C18   C46   1.422247 A    
C240  H152  1.111503 S    
C279  H282  1.110196 S    
C101  N21   1.427346 S    
C124  O74   1.383797 S    
N30   H117  1.028810 S    
N5    C205  1.447120 S    
C270  H246  1.109693 S    
N22   C222  1.453741 S    
O26   C70   1.284458 A    
N21   H81   1.030967 S    
C85   C117  1.417990 A    
C112  C169  1.414508 A    
Zn1   O47   1.944845 S    
C285  H306  1.110215 S    
C90   C159  1.415583 A    
O60   C240  1.410705 S    
N63   C295  1.447363 S    
C4    N52   1.426087 S    
C239  H148  1.109046 S    
C1    N49   1.425838 S    
C215  H59   1.109818 S    
C277  H274  1.110099 S    
N9    H33   1.030085 S    
C89   C121  1.415966 A    
N46   C278  1.448320 S    
Zn2   O48   1.944844 S    
C160  C161  1.394620 A    
O79   C259  1.414145 S    
C155  C187  1.411771 A    
C215  H60   1.111214 S    
C36   C58   1.439116 S    
C10   C13   1.409609 A    
C226  H103  1.110689 S    
C256  H198  1.116883 S    
C213  H52   1.109719 S    
N62   H341  1.030215 S    
N13   H49   1.030320 S    
O66   C246  1.409863 S    
O45   C67   1.277294 A    
C272  H254  1.111653 S    
O61   C241  1.409772 S    
O46   C68   1.273928 A    
N36   H237  1.031220 S    
C225  H100  1.109578 S    
C108  C173  1.415777 A    
C279  H283  1.109543 S    
