data_mof_unit_12723.cif
_audit_creation_date              2012-12-11T16:17:39-0500
_audit_creation_method            fapswitch 2.2
_symmetry_space_group_name_H-M    P1
_symmetry_Int_Tables_number       1
_space_group_crystal_system       triclinic
_cell_length_a                    6.946463
_cell_length_b                    28.717702
_cell_length_c                    32.089392
_cell_angle_alpha                 101.117037
_cell_angle_beta                  89.640163
_cell_angle_gamma                 90.439458
_cell_volume                      6281.01921308

loop_
_atom_site_label
_atom_site_type_symbol
_atom_type_description
_atom_site_fract_x
_atom_site_fract_y
_atom_site_fract_z
_atom_type_partial_charge
O1    O     O_R   0.494350 0.453160 0.452490 -0.544077
O2    O     O_R   0.820990 0.455850 0.538220 -0.525466
O3    O     O_R   0.994300 0.546840 0.547510 -0.507982
C1    C     C_R   0.651641 0.445916 0.551715 0.762801
O4    O     O_R   0.823860 0.447580 0.452250 -0.543836
O5    O     O_R   0.997190 0.538510 0.460920 -0.524054
C2    C     C_R   0.655062 0.434906 0.436238 0.695207
O6    O     O_R   0.491450 0.461490 0.539080 -0.549186
O7    O     O_3   0.661790 0.529840 0.502950 -0.364536
V1    V     V_3+5 0.935470 0.494460 0.499450 1.452414
O8    O     O_R   0.327090 0.544150 0.461780 -0.546893
C3    C     C_R   0.158907 0.553969 0.448314 0.765493
O9    O     O_R   0.324210 0.552420 0.547750 -0.543704
C4    C     C_R   0.154794 0.566324 0.562815 0.714615
V2    V     V_3+5 0.435840 0.505540 0.500550 1.402697
O10   O     O_3   0.159650 0.470160 0.497050 -0.381126
C5    C     C_R   0.968635 0.631637 0.611121 0.429549
C6    C     C_R   0.959669 0.667310 0.647732 -0.209084
C7    C     C_R   0.124433 0.681811 0.672112 -0.033520
C8    C     C_R   0.299655 0.659086 0.659478 -0.139417
H1    H     H_    0.429606 0.669281 0.677510 0.158019
C9    C     C_R   0.308537 0.622004 0.623996 -0.243445
H2    H     H_    0.444807 0.604419 0.616057 0.193036
C10   C     C_R   0.143479 0.607100 0.599625 -0.155359
N1    N     N_R   0.271732 0.741027 0.730177 -0.279475
N2    N     N_R   0.257877 0.775423 0.764579 -0.279814
C11   C     C_R   0.083026 0.790598 0.780971 0.538280
N3    N     N_R   0.923160 0.769466 0.761444 -0.236869
N4    N     N_R   0.936773 0.735306 0.726997 -0.290677
C12   C     C_R   0.111210 0.720238 0.710562 0.520576
C13   C     C_R   0.887276 0.845851 0.837067 0.378698
C14   C     C_R   0.875866 0.873503 0.878356 0.355855
C15   C     C_R   0.043891 0.895182 0.898316 -0.219326
C16   C     C_R   0.222036 0.880807 0.879608 -0.251224
H3    H     H_    0.353094 0.896457 0.893833 0.212496
C17   C     C_R   0.233391 0.846084 0.842535 -0.226488
H4    H     H_    0.373219 0.834083 0.830573 0.224851
C18   C     C_R   0.067187 0.828110 0.820369 -0.149486
C19   C     C_R   0.132148 0.656562 0.282418 0.609268
N5    N     N_R   0.096199 0.674724 0.324648 -0.519044
C20   C     C_R   0.045524 0.721557 0.337198 0.643535
C21   C     C_R   0.044894 0.752368 0.307961 -0.113369
C22   C     C_R   0.074416 0.733777 0.264688 -0.015921
C23   C     C_R   0.112179 0.685088 0.251528 -0.029828
C24   C     C_R   0.015711 0.801269 0.321138 -0.263237
C25   C     C_R   0.023395 0.832032 0.291976 0.441039
C26   C     C_R   0.043753 0.813245 0.247952 -0.119023
C27   C     C_R   0.065359 0.763819 0.234491 -0.073915
C28   C     C_R   0.078240 0.744229 0.190854 -0.025776
C29   C     C_R   0.109013 0.695188 0.177910 -0.144435
C30   C     C_R   0.130334 0.666183 0.207908 -0.148644
C31   C     C_R   0.047391 0.842291 0.216920 0.592925
N6    N     N_R   0.052361 0.822595 0.174243 -0.536133
C32   C     C_R   0.059988 0.774139 0.161133 0.628619
O11   O     O_2   0.188764 0.611151 0.270176 -0.533242
O12   O     O_2   0.994788 0.738479 0.377828 -0.529034
O13   O     O_2   0.048928 0.889894 0.229352 -0.513658
O14   O     O_2   0.048109 0.754680 0.119470 -0.519168
H5    H     H_    0.157888 0.628770 0.196760 0.162459
C33   C     C_R   0.190776 0.850281 0.110926 0.482401
C34   C     C_R   0.180983 0.880352 0.080997 -0.368881
C35   C     C_R   0.039093 0.915388 0.084001 -0.200620
C36   C     C_R   0.906134 0.920796 0.118096 0.402220
C37   C     C_R   0.907508 0.888695 0.145924 -0.290286
H6    H     H_    0.798763 0.891998 0.170626 0.173302
C38   C     C_R   0.048928 0.853445 0.143116 0.210946
C39   C     C_R   0.236276 0.657154 0.391551 0.404059
C40   C     C_R   0.248895 0.627267 0.421541 -0.390190
C41   C     C_R   0.149557 0.583976 0.415742 -0.250261
C42   C     C_R   0.034116 0.570168 0.379463 0.296764
C43   C     C_R   0.007556 0.601279 0.351079 0.326609
C44   C     C_R   0.113280 0.644322 0.355944 0.124343
C45   C     C_R   0.553272 0.223596 0.837221 0.576255
N7    N     N_R   0.547828 0.175165 0.824008 -0.542768
C46   C     C_R   0.540634 0.155358 0.781544 0.583200
C47   C     C_R   0.545595 0.184235 0.750695 -0.063473
C48   C     C_R   0.549717 0.233898 0.763740 -0.069530
C49   C     C_R   0.545053 0.254109 0.807478 -0.127568
C50   C     C_R   0.541258 0.164452 0.707161 -0.226913
C51   C     C_R   0.541259 0.193245 0.676562 0.422366
C52   C     C_R   0.562420 0.243168 0.689212 -0.127262
C53   C     C_R   0.558160 0.263356 0.732959 -0.069190
C54   C     C_R   0.561849 0.313012 0.746016 -0.063691
C55   C     C_R   0.548644 0.332877 0.789447 -0.228247
C56   C     C_R   0.532161 0.304168 0.819954 0.419862
C57   C     C_R   0.587517 0.273577 0.659653 0.573037
N8    N     N_R   0.590095 0.322017 0.672895 -0.542319
C58   C     C_R   0.573706 0.341871 0.715237 0.584358
O15   O     O_2   0.571755 0.242132 0.878946 -0.509320
O16   O     O_2   0.526995 0.107813 0.769087 -0.541836
H7    H     H_    0.532653 0.126338 0.696462 0.177962
O17   O     O_2   0.614365 0.254889 0.618157 -0.513474
O18   O     O_2   0.567186 0.389487 0.727629 -0.537033
H8    H     H_    0.546161 0.371038 0.800096 0.180450
C59   C     C_R   0.756154 0.386966 0.645620 -0.187089
H9    H     H_    0.855504 0.390746 0.671950 0.143653
C60   C     C_R   0.774534 0.417176 0.615948 0.378335
C61   C     C_R   0.640594 0.413617 0.582580 -0.135360
C62   C     C_R   0.495187 0.378811 0.578700 -0.315194
C63   C     C_R   0.479583 0.348648 0.608006 -0.115302
H10   H     H_    0.363889 0.322736 0.604723 0.140410
C64   C     C_R   0.609394 0.352480 0.641880 0.309476
C65   C     C_R   0.687973 0.109312 0.853647 -0.193699
C66   C     C_R   0.690698 0.079746 0.884138 0.377477
C67   C     C_R   0.547768 0.085248 0.916233 -0.135183
C68   C     C_R   0.409176 0.120957 0.917748 -0.307860
C69   C     C_R   0.408967 0.150176 0.887605 -0.111060
H11   H     H_    0.298415 0.176850 0.889204 0.141182
C70   C     C_R   0.548454 0.144774 0.855269 0.314088
C71   C     C_R   0.465482 0.383877 0.377758 -0.165926
C72   C     C_R   0.453900 0.348712 0.340963 -0.141481
C73   C     C_R   0.620493 0.325928 0.322249 0.031031
C74   C     C_R   0.799228 0.339151 0.341593 -0.138626
H12   H     H_    0.930613 0.322312 0.328242 0.134330
C75   C     C_R   0.810666 0.374007 0.378735 -0.170921
C76   C     C_R   0.643958 0.397001 0.397280 -0.042910
N9    N     N_R   0.767372 0.268304 0.263086 -0.288147
N10   N     N_R   0.754034 0.233935 0.228682 -0.296758
C77   C     C_R   0.579621 0.217676 0.212907 0.523539
N11   N     N_R   0.419293 0.238129 0.232748 -0.226237
N12   N     N_R   0.432395 0.272532 0.267069 -0.294157
C78   C     C_R   0.606701 0.288233 0.283215 0.501626
C79   C     C_R   0.390380 0.153106 0.163784 0.434787
C80   C     C_R   0.381037 0.117376 0.127023 -0.233566
C81   C     C_R   0.545440 0.104093 0.101871 -0.116853
C82   C     C_R   0.720191 0.127658 0.114099 -0.176689
H13   H     H_    0.850093 0.118229 0.095657 0.140080
C83   C     C_R   0.729501 0.164289 0.149862 -0.200144
H14   H     H_    0.866160 0.182116 0.157599 0.199435
C84   C     C_R   0.565289 0.178088 0.175042 -0.087548
O19   O     O_R   0.699050 0.038480 0.960880 -0.515999
O20   O     O_R   0.366680 0.052470 0.047720 -0.541833
O21   O     O_R   0.193410 0.961530 0.039110 -0.539176
C85   C     C_R   0.535451 0.065380 0.063536 0.714560
O22   O     O_R   0.369510 0.044100 0.961740 -0.555649
O23   O     O_R   0.196260 0.953110 0.952520 -0.545888
C86   C     C_R   0.538660 0.053660 0.947855 0.755323
O24   O     O_R   0.696210 0.046900 0.047470 -0.543022
O25   O     O_3   0.528780 0.970170 0.997070 -0.367768
V3    V     V_3+5 0.255080 0.005530 0.000540 1.388829
O26   O     O_R   0.866350 0.947520 0.952280 -0.515079
C87   C     C_R   0.035078 0.933983 0.936857 0.739036
O27   O     O_R   0.863520 0.955880 0.038260 -0.529209
C88   C     C_R   0.031597 0.945866 0.051643 0.730482
V4    V     V_3+5 0.754720 0.994440 0.999470 1.455951
O28   O     O_3   0.030880 0.029830 0.002930 -0.376847
O29   O     O_3   0.801801 0.619782 0.588073 -0.575805
C89   C     C_3   0.796626 0.644037 0.553603 0.103638
H15   H     H_    0.715051 0.621397 0.527591 0.162785
H16   H     H_    0.941944 0.649703 0.540239 0.078781
C90   C     C_3   0.691217 0.691389 0.566219 -0.339057
H17   H     H_    0.551256 0.685557 0.581437 0.212627
H18   H     H_    0.779262 0.716363 0.589354 0.192866
C91   C     C_3   0.653988 0.713750 0.527598 -0.840379
H19   H     H_    0.791742 0.719578 0.511525 0.236646
H20   H     H_    0.581923 0.748484 0.537827 0.237493
H21   H     H_    0.558731 0.690387 0.504811 0.222016
O30   O     O_3   0.996278 0.880137 0.306526 -0.546901
C92   C     C_3   0.158399 0.900416 0.330113 0.125122
H22   H     H_    0.226676 0.926184 0.312706 0.162947
H23   H     H_    0.272349 0.874484 0.334497 0.093650
C93   C     C_3   0.091749 0.926948 0.373690 -0.320273
H24   H     H_    0.986660 0.954687 0.369561 0.209834
H25   H     H_    0.019006 0.901717 0.390999 0.192782
C94   C     C_3   0.260909 0.950310 0.400075 -0.825644
H26   H     H_    0.365635 0.923035 0.405435 0.232904
H27   H     H_    0.207649 0.969427 0.431374 0.236777
H28   H     H_    0.334530 0.976186 0.383632 0.233825
H29   H     H_    0.120955 0.679207 0.144557 0.163031
O31   O     O_3   0.326202 0.814487 0.106672 -0.535555
C95   C     C_3   0.516499 0.832510 0.107519 0.095583
H30   H     H_    0.590983 0.822506 0.135008 0.137419
H31   H     H_    0.526994 0.871938 0.111935 0.102041
C96   C     C_3   0.623615 0.810325 0.066763 -0.326488
H32   H     H_    0.554419 0.821209 0.039092 0.172342
H33   H     H_    0.774296 0.823716 0.068505 0.169149
C97   C     C_3   0.626239 0.756209 0.060128 -0.585312
H34   H     H_    0.684280 0.744628 0.088612 0.239553
H35   H     H_    0.719091 0.741741 0.032457 0.195634
H36   H     H_    0.478567 0.741546 0.053834 0.248089
H37   H     H_    0.282840 0.875803 0.054865 0.153239
O32   O     O_3   0.766891 0.955723 0.124059 -0.571337
C98   C     C_3   0.850565 0.000841 0.139906 0.126502
H38   H     H_    0.738607 0.027571 0.137535 0.108226
H39   H     H_    0.972398 0.009606 0.120088 0.089768
C99   C     C_3   0.907770 0.007456 0.187017 -0.350616
H40   H     H_    0.883034 0.045091 0.202294 0.156643
H41   H     H_    0.815225 0.985074 0.203698 0.226437
C100  C     C_3   0.120243 0.996456 0.192832 -0.708990
H42   H     H_    0.150293 0.958206 0.182344 0.258417
H43   H     H_    0.158411 0.006540 0.226936 0.222196
H44   H     H_    0.214141 0.016637 0.174413 0.192947
O33   O     O_3   0.312109 0.702716 0.400746 -0.527674
C101  C     C_3   0.514386 0.702759 0.404276 0.123514
H45   H     H_    0.580852 0.692958 0.372248 0.108974
H46   H     H_    0.566862 0.677961 0.424271 0.061399
C102  C     C_3   0.580319 0.752752 0.425042 -0.258784
H47   H     H_    0.498610 0.764571 0.455071 0.191001
H48   H     H_    0.734818 0.752177 0.433437 0.197160
C103  C     C_3   0.550102 0.788269 0.395824 -0.661650
H49   H     H_    0.629687 0.777039 0.365466 0.223184
H50   H     H_    0.604258 0.823758 0.411533 0.194819
H51   H     H_    0.394621 0.791191 0.388912 0.249634
H52   H     H_    0.328884 0.638765 0.450596 0.155605
O34   O     O_3   0.937078 0.527099 0.372462 -0.564771
C104  C     C_3   0.066145 0.489899 0.356376 0.093028
H53   H     H_    0.019948 0.458305 0.369085 0.133718
H54   H     H_    0.218428 0.497263 0.366731 0.078929
C105  C     C_3   0.056901 0.477839 0.307851 -0.295718
H55   H     H_    0.905347 0.470121 0.297773 0.210329
H56   H     H_    0.109155 0.508614 0.294545 0.232093
C106  C     C_3   0.180393 0.434786 0.290121 -0.830405
H57   H     H_    0.332633 0.441490 0.300074 0.233984
H58   H     H_    0.174548 0.427574 0.254895 0.246121
H59   H     H_    0.125399 0.403060 0.301578 0.235266
H60   H     H_    0.822605 0.684209 0.656577 0.144702
O35   O     O_3   0.884679 0.588157 0.316995 -0.532955
C107  C     C_3   0.691038 0.597103 0.330105 0.175122
H61   H     H_    0.638340 0.627389 0.316509 0.111535
H62   H     H_    0.669988 0.606485 0.365275 0.043137
C108  C     C_3   0.565092 0.553549 0.313586 -0.296383
H63   H     H_    0.610559 0.523394 0.328227 0.202529
H64   H     H_    0.413458 0.561915 0.323244 0.155480
C109  C     C_3   0.575032 0.538752 0.265298 -0.623803
H65   H     H_    0.535631 0.568860 0.249993 0.243147
H66   H     H_    0.472914 0.508962 0.254650 0.202214
H67   H     H_    0.722411 0.526743 0.255014 0.237565
O36   O     O_3   0.521481 0.171452 0.634380 -0.554280
C110  C     C_3   0.329265 0.176262 0.621225 0.156003
H68   H     H_    0.331313 0.172780 0.586139 0.161179
H69   H     H_    0.267390 0.211892 0.634240 0.105167
C111  C     C_3   0.198584 0.137145 0.632508 -0.415668
H70   H     H_    0.259537 0.101818 0.618735 0.214487
H71   H     H_    0.189871 0.140614 0.667536 0.201818
C112  C     C_3   0.995251 0.140429 0.615619 -0.721216
H72   H     H_    0.932051 0.175543 0.629183 0.257896
H73   H     H_    0.902995 0.112316 0.624885 0.241731
H74   H     H_    0.997554 0.135512 0.580429 0.229336
O37   O     O_3   0.505381 0.326177 0.861908 -0.551869
C113  C     C_3   0.308536 0.323138 0.873172 0.159198
H75   H     H_    0.301015 0.326581 0.908226 0.164720
H76   H     H_    0.241573 0.288115 0.859485 0.103679
C114  C     C_3   0.191616 0.363433 0.860754 -0.411905
H77   H     H_    0.257491 0.398162 0.875134 0.218135
H78   H     H_    0.192258 0.360014 0.825689 0.201603
C115  C     C_3   0.983065 0.362058 0.875720 -0.719537
H79   H     H_    0.915366 0.327475 0.861666 0.252413
H80   H     H_    0.900672 0.390856 0.865506 0.240238
H81   H     H_    0.976344 0.367153 0.910898 0.234458
O38   O     O_3   0.907839 0.453986 0.622300 -0.558038
C116  C     C_3   0.098320 0.436338 0.620033 0.099944
H82   H     H_    0.167284 0.443830 0.590676 0.150292
H83   H     H_    0.108720 0.397232 0.618212 0.062918
C117  C     C_3   0.212485 0.461104 0.658757 -0.300814
H84   H     H_    0.132895 0.457920 0.688240 0.207726
H85   H     H_    0.353610 0.443322 0.659339 0.185537
C118  C     C_3   0.248508 0.513392 0.657897 -0.658432
H86   H     H_    0.335217 0.516840 0.629440 0.203170
H87   H     H_    0.329624 0.530173 0.686660 0.217840
H88   H     H_    0.110042 0.532363 0.657408 0.249623
H89   H     H_    0.392320 0.375155 0.553024 0.145210
H90   H     H_    0.794075 0.104557 0.828393 0.137955
O39   O     O_3   0.818228 0.042139 0.880205 -0.561950
C119  C     C_3   0.011980 0.057985 0.879951 0.106516
H91   H     H_    0.087932 0.046671 0.906612 0.157195
H92   H     H_    0.029573 0.097344 0.885242 0.064203
C120  C     C_3   0.110668 0.035907 0.838036 -0.313238
H93   H     H_    0.020558 0.041172 0.810873 0.203127
H94   H     H_    0.251282 0.053972 0.835664 0.182489
C121  C     C_3   0.146483 0.983019 0.834912 -0.712738
H95   H     H_    0.251535 0.977486 0.859428 0.215158
H96   H     H_    0.205807 0.967772 0.803061 0.214828
H97   H     H_    0.010336 0.964171 0.839345 0.244218
H98   H     H_    0.299274 0.126109 0.942273 0.149987
H99   H     H_    0.333809 0.400817 0.390845 0.113696
H100  H     H_    0.313731 0.339463 0.327136 0.130024
H101  H     H_    0.950507 0.382897 0.392888 0.110560
O40   O     O_3   0.225541 0.163894 0.187926 -0.563322
C122  C     C_3   0.220220 0.135472 0.219276 0.063321
H102  H     H_    0.353482 0.140418 0.238911 0.119040
H103  H     H_    0.205041 0.097448 0.204168 0.114033
C123  C     C_3   0.047190 0.149606 0.248436 -0.236063
H104  H     H_    0.056040 0.188164 0.262159 0.247416
H105  H     H_    0.912522 0.142527 0.229703 0.190139
C124  C     C_3   0.040659 0.122084 0.284624 -0.860318
H106  H     H_    0.030777 0.083370 0.271911 0.234222
H107  H     H_    0.912373 0.132977 0.304875 0.239452
H108  H     H_    0.171668 0.129675 0.304520 0.239210
H109  H     H_    0.244900 0.099369 0.118812 0.127436
O41   O     O_3   0.719871 0.836317 0.813794 -0.558587
C125  C     C_3   0.710548 0.866699 0.783778 0.104626
H110  H     H_    0.617402 0.849135 0.757248 0.169456
H111  H     H_    0.853374 0.872079 0.769202 0.103702
C126  C     C_3   0.620624 0.914795 0.803250 -0.351745
H112  H     H_    0.467826 0.909510 0.811347 0.208358
H113  H     H_    0.696167 0.931194 0.832815 0.224030
C127  C     C_3   0.630779 0.949247 0.772564 -0.793917
H114  H     H_    0.783036 0.955844 0.764478 0.237686
H115  H     H_    0.565639 0.983618 0.787683 0.258210
H116  H     H_    0.550544 0.934654 0.743043 0.228836
O42   O     O_3   0.696779 0.881184 0.897288 -0.573127
C128  C     C_3   0.675836 0.853130 0.928959 0.094946
H117  H     H_    0.558475 0.868887 0.950745 0.140694
H118  H     H_    0.806796 0.853748 0.949009 0.090428
C129  C     C_3   0.620259 0.801707 0.909585 -0.312537
H119  H     H_    0.490260 0.801237 0.889661 0.223124
H120  H     H_    0.739557 0.784427 0.889242 0.203131
C130  C     C_3   0.578523 0.773092 0.944045 -0.834555
H121  H     H_    0.707079 0.772904 0.964403 0.232647
H122  H     H_    0.542187 0.735921 0.929127 0.247775
H123  H     H_    0.454617 0.788487 0.963936 0.230277
H124  H     H_    0.991892 0.816238 0.354394 0.169103

loop_
_geom_bond_atom_site_label_1
_geom_bond_atom_site_label_2
_ccdc_geom_bond_type
C101  H46   S    
C3    C41   S    
C82   H13   S    
C7    C8    A    
C47   C50   A    
O23   V3    S    
V4    O28   S    
C13   O41   S    
O42   C128  S    
C95   H31   S    
C123  H104  S    
C93   H24   S    
C101  C102  S    
C68   C69   A    
O24   V4    S    
O27   C88   A    
C77   C84   S    
C16   H3    S    
C20   C21   A    
C102  H48   S    
O32   C98   S    
C117  H85   S    
C46   O16   S    
O8    V2    S    
C125  H110  S    
C89   C90   S    
O1    V2    S    
C52   C57   A    
C59   C64   A    
O26   V4    S    
C54   C58   A    
O36   C110  S    
C93   H25   S    
O39   C119  S    
C104  H53   S    
C24   C25   A    
C21   C24   A    
C37   C38   A    
C46   C47   A    
C20   O12   S    
C110  H68   S    
C93   C94   S    
C111  H71   S    
C89   H15   S    
C96   C97   S    
C91   H19   S    
C97   H34   S    
C22   C23   A    
O30   C92   S    
C121  H96   S    
C71   C76   A    
O22   C86   A    
C6    H60   S    
C35   C88   S    
O25   V3    S    
C59   C60   A    
C26   C31   A    
O35   C107  S    
C124  H107  S    
V1    O10   S    
C37   H6    S    
C48   C53   A    
C29   H29   S    
C90   H18   S    
O7    V2    S    
C41   C42   A    
C106  H57   S    
C62   H89   S    
C103  H50   S    
O33   C101  S    
C9    H2    S    
C118  H87   S    
C99   H40   S    
C7    C12   S    
C74   C75   A    
C40   H52   S    
O29   C89   S    
C83   H14   S    
C60   C61   A    
C79   C80   A    
N6    C32   A    
N4    C12   A    
C17   H4    S    
C125  H111  S    
C89   H16   S    
C6    C7    A    
C110  C111  S    
C120  C121  S    
O31   C95   S    
C75   C76   A    
C25   O30   S    
C118  H86   S    
C4    C10   S    
C100  H43   S    
C96   H32   S    
C71   C72   A    
C62   C63   A    
C119  H91   S    
C129  H120  S    
C69   H11   S    
O7    V1    S    
C50   H7    S    
C97   H36   S    
C122  H103  S    
C94   H27   S    
O9    C4    A    
C127  H115  S    
C63   C64   A    
C130  H122  S    
C5    C6    A    
C128  H118  S    
C98   C99   S    
C19   N5    A    
C116  C117  S    
C117  C118  S    
N1    N2    A    
C2    C76   S    
O2    C1    A    
N9    C78   A    
C108  H63   S    
C107  H62   S    
C54   C55   A    
C106  H59   S    
C122  H102  S    
C114  C115  S    
C35   C36   A    
C92   H23   S    
C105  H55   S    
C72   H100  S    
C8    H1    S    
C49   C56   A    
O20   C85   A    
C53   C54   A    
C79   C84   A    
C112  H74   S    
C31   N6    A    
C107  C108  S    
C115  H79   S    
O21   C88   A    
C82   C83   A    
N5    C44   S    
C24   H124  S    
C120  H93   S    
C130  H123  S    
C19   C23   A    
C123  H105  S    
C118  H88   S    
C43   C44   A    
N9    N10   A    
C119  C120  S    
C113  H75   S    
O19   V4    S    
C16   C17   A    
C102  H47   S    
C67   C86   S    
C36   C37   A    
C123  C124  S    
C28   C29   A    
O40   C122  S    
C115  H81   S    
C81   C85   S    
N8    C58   A    
C45   N7    A    
O37   C113  S    
C109  H65   S    
C112  H72   S    
C116  H82   S    
C48   C49   A    
N11   N12   A    
C42   O34   S    
N2    C11   A    
N3    N4    A    
C108  C109  S    
O5    C3    A    
C126  H112  S    
C104  H54   S    
C11   C18   S    
C114  H77   S    
C61   C62   A    
C105  C106  S    
O41   C125  S    
C66   C67   A    
O23   C87   A    
C58   O18   S    
C19   O11   S    
C72   C73   A    
C40   C41   A    
C90   H17   S    
C42   C43   A    
C91   H20   S    
C101  H45   S    
C33   C38   A    
C69   C70   A    
C121  H97   S    
O22   V3    S    
C95   C96   S    
C39   C40   A    
C55   C56   A    
C91   H21   S    
C80   H109  S    
V3    O28   S    
O4    C2    A    
C57   N8    A    
O38   C116  S    
C113  C114  S    
C33   C34   A    
C102  C103  S    
C124  H106  S    
O19   C86   A    
C14   O42   S    
C92   H22   S    
C29   C30   A    
C92   C93   S    
C55   H8    S    
C51   O36   S    
N12   C78   A    
O3    C4    A    
C126  C127  S    
C27   C28   A    
C8    C9    A    
O6    V2    S    
C81   C82   A    
C9    C10   A    
C21   C22   A    
C99   H41   S    
C109  H67   S    
C74   H12   S    
N1    C12   A    
C25   C26   A    
O1    C2    A    
C83   C84   A    
O5    V1    S    
C77   N11   A    
C60   O38   S    
O20   V3    S    
C67   C68   A    
C34   H37   S    
C43   O35   S    
C13   C18   A    
C65   C70   A    
C33   O31   S    
C14   C15   A    
C99   C100  S    
C17   C18   A    
C45   O15   S    
C110  H69   S    
C120  H94   S    
C111  H70   S    
C65   H90   S    
C100  H42   S    
C96   H33   S    
C31   O13   S    
O21   V3    S    
C119  H92   S    
C129  H119  S    
C65   C66   A    
C121  H95   S    
V2    O10   S    
C95   H30   S    
C94   H26   S    
C1    C61   S    
C127  H114  S    
C59   H9    S    
C68   H98   S    
C1    O6    A    
N7    C70   S    
C52   C53   A    
C79   O40   S    
O34   C104  S    
C128  C129  S    
C117  H84   S    
C5    O29   S    
C39   C44   A    
C124  H108  S    
C98   H39   S    
C116  H83   S    
C28   C32   A    
C122  C123  S    
N10   C77   A    
C63   H10   S    
C103  H49   S    
C114  H78   S    
C45   C49   A    
C66   O39   S    
C22   C27   A    
C75   H101  S    
C36   O32   S    
C112  H73   S    
C34   C35   A    
C73   C74   A    
C115  H80   S    
C5    C10   A    
N7    C46   A    
C125  C126  S    
C47   C48   A    
C97   H35   S    
C111  C112  S    
C71   H99   S    
C56   O37   S    
C100  H44   S    
C98   H38   S    
C73   C78   S    
N8    C64   S    
C26   C27   A    
C129  C130  S    
C113  H76   S    
C15   C16   A    
N6    C38   S    
C90   C91   S    
C23   C30   A    
N5    C20   A    
C94   H28   S    
O9    V2    S    
C127  H116  S    
C30   H5    S    
O2    V1    S    
C130  H121  S    
C32   O14   S    
O27   V4    S    
C128  H117  S    
O25   V4    S    
C13   C14   A    
C106  H58   S    
C51   C52   A    
C109  H66   S    
C85   O24   A    
O8    C3    A    
C15   C87   S    
O4    V1    S    
C108  H64   S    
O3    V1    S    
C57   O17   S    
O26   C87   A    
C126  H113  S    
C104  C105  S    
C107  H61   S    
C103  H51   S    
C105  H56   S    
C50   C51   A    
C11   N3    A    
C39   O33   S    
C80   C81   A    
