data_mof_unit_16809.cif
_audit_creation_date              2012-12-10T18:31:56-0500
_audit_creation_method            fapswitch 2.2
_symmetry_space_group_name_H-M    P1
_symmetry_Int_Tables_number       1
_space_group_crystal_system       triclinic
_cell_length_a                    10.727399
_cell_length_b                    15.024403
_cell_length_c                    15.543562
_cell_angle_alpha                 81.11501
_cell_angle_beta                  92.325455
_cell_angle_gamma                 105.130375
_cell_volume                      2389.33516042

loop_
_atom_site_label
_atom_site_type_symbol
_atom_type_description
_atom_site_fract_x
_atom_site_fract_y
_atom_site_fract_z
_atom_type_partial_charge
C1    C     C_R   0.476074 0.440882 0.662370 0.918882
C2    C     C_3   0.121042 0.494867 0.504294 -0.054567
C3    C     C_3   0.083455 0.534103 0.411641 -0.420493
C4    C     C_3   0.101590 0.559115 0.568940 -0.389037
C5    C     C_R   0.459116 0.404544 0.756463 -0.183905
C6    C     C_R   0.545871 0.600018 0.245606 -0.187375
C7    C     C_R   0.419056 0.282538 0.883184 0.244083
C8    C     C_R   0.417208 0.309071 0.791980 0.268833
C9    C     C_R   0.487195 0.470994 0.812514 -0.255549
C10   C     C_R   0.496782 0.447169 0.902117 0.086256
C11   C     C_R   0.460173 0.351510 0.938378 0.016963
C12   C     C_R   0.742544 0.500465 0.502606 0.905099
C13   C     C_R   0.539211 0.517138 0.956489 0.058037
C14   C     C_R   0.524629 0.491881 0.046849 0.107389
C15   C     C_R   0.494047 0.396506 0.082338 -0.139139
C16   C     C_R   0.463394 0.327581 0.029109 -0.123529
C17   C     C_R   0.598206 0.611120 0.923709 -0.212312
C18   C     C_R   0.642744 0.678408 0.977769 0.277716
C19   C     C_R   0.620956 0.654562 0.068929 -0.036072
C20   C     C_R   0.547948 0.562435 0.100388 -0.002969
C21   C     C_R   0.664163 0.717677 0.130025 -0.097853
C22   C     C_R   0.628662 0.689832 0.218465 0.239791
C23   C     C_R   0.520411 0.559650 0.337832 0.957866
C24   C     C_R   0.493826 0.543530 0.183476 0.168811
C25   C     C_R   0.703529 0.841191 0.638092 -0.200822
C26   C     C_R   0.659116 0.751385 0.618980 0.069304
C27   C     C_R   0.529020 0.801068 0.503952 0.382645
C28   C     C_R   0.577499 0.896356 0.518733 -0.058833
C29   C     C_R   0.661001 0.914067 0.590367 -0.016637
C30   C     C_R   0.540978 0.973510 0.468939 0.006628
C31   C     C_R   0.554910 0.058214 0.504118 -0.044362
C32   C     C_R   0.626791 0.068749 0.583150 0.189828
C33   C     C_R   0.693019 0.002207 0.617864 0.272299
C34   C     C_R   0.257878 0.497323 0.502612 0.875421
C35   C     C_R   0.492796 0.969167 0.384011 -0.145922
C36   C     C_R   0.417357 0.026960 0.346972 0.285029
C37   C     C_R   0.408069 0.101318 0.388341 0.058706
C38   C     C_R   0.491208 0.125083 0.459319 -0.009669
C39   C     C_R   0.322212 0.155115 0.358129 -0.253295
C40   C     C_R   0.327985 0.236188 0.392485 0.103067
C41   C     C_R   0.508807 0.216247 0.478327 0.036903
C42   C     C_3   0.891725 0.397587 0.527683 -0.474460
C43   C     C_3   0.034123 0.394407 0.531567 -0.195151
C44   C     C_3   0.940696 0.538425 0.409096 0.188315
C45   C     C_3   0.959161 0.557752 0.575292 0.463846
C46   C     C_3   0.880635 0.501258 0.503406 -0.080684
H1    H     H_    0.842281 0.353781 0.478548 0.194521
H2    H     H_    0.159156 0.631493 0.546335 0.248959
H3    H     H_    0.148109 0.604785 0.391552 0.250078
H4    H     H_    0.440094 0.255807 0.060350 0.205601
H5    H     H_    0.497296 0.542588 0.784998 0.178761
H6    H     H_    0.839658 0.362899 0.589273 0.245087
H7    H     H_    0.496368 0.374507 0.151965 0.182108
H8    H     H_    0.616723 0.634627 0.855707 0.169574
H9    H     H_    0.592363 0.249638 0.512400 0.172496
H10   H     H_    0.767452 0.851886 0.693322 0.222197
H11   H     H_    0.510844 0.919140 0.346416 0.224817
H12   H     H_    0.250165 0.134184 0.309224 0.202866
H13   H     H_    0.047587 0.348536 0.485148 0.179717
H14   H     H_    0.102304 0.490467 0.364318 0.199235
H15   H     H_    0.141767 0.538773 0.633971 0.191836
N1    N     N_R   0.573860 0.731700 0.552730 -0.137571
N2    N     N_R   0.426060 0.268290 0.447230 -0.126951
O1    O     O_R   0.462770 0.383110 0.605620 -0.568418
O2    O     O_R   0.510160 0.531900 0.639510 -0.644390
O3    O     O_R   0.661510 0.425600 0.483070 -0.649975
O4    O     O_R   0.708900 0.574390 0.516960 -0.553972
O5    O     O_R   0.489840 0.468100 0.360490 -0.600436
O6    O     O_R   0.537230 0.616890 0.394380 -0.542637
O7    O     O_R   0.291100 0.425610 0.483040 -0.627957
O8    O     O_R   0.338490 0.574400 0.516930 -0.595665
Zn1   Zn    Zn3+2 0.468350 0.400660 0.477370 1.005648
Zn2   Zn    Zn3+2 0.531650 0.599340 0.522630 1.049291
Br1   Br    Br    0.932237 0.664797 0.362097 -0.367917
Br2   Br    Br    0.319852 0.465321 0.200601 -0.481099
Br3   Br    Br    0.688628 0.780314 0.297847 -0.385064
Br4   Br    Br    0.717037 0.801427 0.915559 -0.413385
Br5   Br    Br    0.363615 0.151812 0.931297 -0.291891
Br6   Br    Br    0.342101 0.215064 0.719688 -0.309504
C47   C     C_1   0.753670 0.808112 0.106935 0.400229
N3    N     N_1   0.825735 0.880586 0.090018 -0.056241
Br7   Br    Br    0.820335 0.030544 0.708966 -0.308164
C48   C     C_1   0.230740 0.285087 0.367643 0.293906
N4    N     N_1   0.150046 0.322269 0.347262 -0.175682
Br8   Br    Br    0.335476 0.003573 0.237399 -0.371135
C49   C     C_1   0.700272 0.680109 0.675630 0.323619
N5    N     N_1   0.735038 0.624485 0.723154 -0.126401
Br9   Br    Br    0.381705 0.761505 0.430696 -0.430023
C50   C     C_1   0.066997 0.351951 0.618925 0.282369
N6    N     N_1   0.092349 0.318870 0.687443 -0.093432
Br10  Br    Br    0.620918 0.158309 0.659185 -0.379813
C51   C     C_1   0.869712 0.481738 0.343882 0.210200
N7    N     N_1   0.814110 0.437567 0.292957 -0.167977
Br11  Br    Br    0.954469 0.688564 0.568548 -0.366074
Br12  Br    Br    0.899184 0.497995 0.693079 -0.460424

loop_
_geom_bond_atom_site_label_1
_geom_bond_atom_site_label_2
_ccdc_geom_bond_type
C23   O6    A    
C19   C20   A    
C9    H5    S    
C25   H10   S    
C22   Br3   S    
C3    H3    S    
C7    C8    A    
C45   C46   S    
C7    C11   A    
C43   C50   S    
C40   N2    A    
C30   C35   A    
C1    C5    S    
C15   H7    S    
C36   C37   A    
C19   C21   A    
C16   H4    S    
C4    H2    S    
C30   C31   A    
C32   Br10  S    
C15   C16   A    
C6    C22   A    
C29   C33   A    
O2    Zn2   S    
C18   C19   A    
C42   C46   S    
C20   C24   A    
C41   H9    S    
O3    Zn1   S    
C31   C32   A    
C8    Br6   S    
C1    O2    A    
N1    Zn2   S    
O6    Zn2   S    
O4    Zn2   S    
C33   Br7   S    
C34   O7    A    
C44   C51   S    
C43   H13   S    
C3    H14   S    
C2    C34   S    
C21   C22   A    
C40   C48   S    
C45   Br11  S    
C44   C46   S    
C4    C45   S    
C25   C29   A    
C12   O4    A    
C3    C44   S    
C14   C20   A    
C38   C41   A    
C12   C46   S    
C39   C40   A    
O8    Zn2   S    
C49   N5    T    
C26   C49   S    
C25   C26   A    
C39   H12   S    
C12   O3    A    
C4    H15   S    
C35   C36   A    
C23   O5    A    
C2    C4    S    
C5    C9    A    
C37   C38   A    
C27   N1    A    
C11   C16   A    
C48   N4    T    
C2    C43   S    
O5    Zn1   S    
C6    C24   A    
C17   C18   A    
C44   Br1   S    
C7    Br5   S    
C42   C43   S    
C41   N2    A    
C45   Br12  S    
C1    O1    A    
C9    C10   A    
C28   C29   A    
C47   N3    T    
C10   C13   A    
C5    C8    A    
C24   Br2   S    
C36   Br8   S    
C31   C38   A    
C13   C17   A    
C35   H11   S    
C32   C33   A    
C28   C30   A    
C2    C3    S    
C26   N1    A    
C37   C39   A    
C18   Br4   S    
C6    C23   S    
C34   O8    A    
C21   C47   S    
C51   N7    T    
C42   H1    S    
O1    Zn1   S    
C27   Br9   S    
C10   C11   A    
N2    Zn1   S    
C27   C28   A    
C14   C15   A    
O7    Zn1   S    
C50   N6    T    
C13   C14   A    
C17   H8    S    
C42   H6    S    
