data_mof_unit_44834.cif
_audit_creation_date              2012-12-11T15:36:46-0500
_audit_creation_method            fapswitch 2.2
_symmetry_space_group_name_H-M    P1
_symmetry_Int_Tables_number       1
_space_group_crystal_system       triclinic
_cell_length_a                    8.527745
_cell_length_b                    17.518504
_cell_length_c                    19.085282
_cell_angle_alpha                 98.818031
_cell_angle_beta                  94.914356
_cell_angle_gamma                 98.718169
_cell_volume                      2767.59552067

loop_
_atom_site_label
_atom_site_type_symbol
_atom_type_description
_atom_site_fract_x
_atom_site_fract_y
_atom_site_fract_z
_atom_type_partial_charge
Ba1   Ba    Ba6+2 0.162080 0.538580 0.468810 1.785063
Ba2   Ba    Ba6+2 0.648090 0.461410 0.531130 1.831993
C1    C     C_3   0.398558 0.778080 0.236578 0.019787
C2    C     C_3   0.376626 0.738633 0.303016 0.427937
C3    C     C_3   0.564457 0.698354 0.660680 0.313595
C4    C     C_3   0.564233 0.785771 0.685205 0.339480
C5    C     C_3   0.830487 0.243380 0.663290 0.319056
C6    C     C_3   0.844617 0.162380 0.681686 -0.047289
C7    C     C_3   0.335473 0.188259 0.688222 0.660184
C8    C     C_3   0.408609 0.136520 0.736608 0.303952
C9    C     C_2   0.725969 0.726038 0.509018 -0.156059
C10   C     C_3   0.608974 0.783834 0.509468 -0.046193
C11   C     C_2   0.687349 0.864843 0.500785 -0.014445
C12   C     C_3   0.957989 0.743807 0.292513 0.524643
C13   C     C_2   0.847551 0.884466 0.505925 0.073549
C14   C     C_2   0.948028 0.822443 0.518443 -0.061308
C15   C     C_1   0.881934 0.750139 0.525971 -0.036153
C16   C     C_R   0.111300 0.133943 0.508079 0.089193
C17   C     C_R   0.167381 0.214910 0.530351 -0.019490
C18   C     C_R   0.919346 0.245850 0.474815 0.020870
C19   C     C_R   0.856286 0.164223 0.461599 -0.124385
C20   C     C_R   0.948717 0.107379 0.481121 0.004629
C21   C     C_2   0.924286 0.968841 0.510655 0.025866
C22   C     C_2   0.874943 0.021048 0.470453 0.072592
C23   C     C_3   0.019570 0.816559 0.258493 0.701253
C24   C     C_R   0.070812 0.269746 0.513693 -0.283208
C25   C     C_R   0.617327 0.522888 0.300310 -0.201871
C26   C     C_R   0.461097 0.486316 0.275691 0.038116
C27   C     C_R   0.409175 0.472997 0.202397 -0.103902
C28   C     C_R   0.515139 0.494562 0.153315 0.003867
C29   C     C_R   0.674653 0.527374 0.178887 -0.108792
C30   C     C_R   0.724960 0.541848 0.252109 0.101854
C31   C     C_R   0.512327 0.541245 0.035838 -0.026840
C32   C     C_R   0.462672 0.531572 0.963012 -0.059577
C33   C     C_R   0.360902 0.463187 0.927767 0.047280
C34   C     C_3   0.738341 0.358393 0.310842 0.304276
C35   C     C_R   0.310104 0.404476 0.967433 -0.031275
C36   C     C_R   0.359863 0.414274 0.040704 -0.081771
C37   C     C_R   0.461391 0.482920 0.075674 0.052147
C38   C     C_R   0.138416 0.426851 0.825853 -0.023524
C39   C     C_R   0.075266 0.440447 0.759428 0.058898
C40   C     C_R   0.341249 0.500083 0.736897 -0.047481
C41   C     C_R   0.404288 0.487890 0.803701 -0.057404
C42   C     C_R   0.301183 0.457193 0.851217 0.066094
C43   C     C_R   0.173994 0.488807 0.724434 0.147138
C44   C     C_3   0.705136 0.331686 0.230526 -0.355298
C45   C     C_3   0.986665 0.774354 0.686820 0.207094
C46   C     C_3   0.136997 0.834612 0.694650 -0.265825
C47   C     C_3   0.234164 0.302853 0.366790 0.264820
C48   C     C_3   0.191154 0.215147 0.339616 -0.303815
H1    H     H_    0.250113 0.723585 0.308708 -0.048800
H2    H     H_    0.618298 0.276073 0.218444 0.147888
H3    H     H_    0.654194 0.376048 0.204807 0.041000
H4    H     H_    0.817688 0.322235 0.207822 0.129409
H5    H     H_    0.950642 0.773117 0.740998 0.176231
H6    H     H_    0.888422 0.793300 0.656251 -0.062127
H7    H     H_    0.189335 0.834015 0.643444 0.100674
H8    H     H_    0.225004 0.823544 0.736433 0.165667
H9    H     H_    0.104666 0.892824 0.711752 0.215289
H10   H     H_    0.124382 0.326097 0.379601 0.018289
H11   H     H_    0.321394 0.312967 0.415352 0.055310
H12   H     H_    0.106597 0.203960 0.290141 0.147903
H13   H     H_    0.133922 0.184820 0.379738 0.080306
H14   H     H_    0.300565 0.190527 0.327985 0.150941
H15   H     H_    0.422734 0.682476 0.296335 0.117475
H16   H     H_    0.521977 0.793195 0.226721 0.228240
H17   H     H_    0.688212 0.687330 0.657352 0.001748
H18   H     H_    0.496005 0.681555 0.606863 -0.084807
H19   H     H_    0.637508 0.821049 0.652679 -0.054298
H20   H     H_    0.441059 0.797338 0.675762 0.000607
H21   H     H_    0.366885 0.837389 0.243865 0.100796
H22   H     H_    0.723703 0.240313 0.625434 0.105105
H23   H     H_    0.933392 0.262178 0.635064 0.028310
H24   H     H_    0.966825 0.150072 0.675991 0.135286
H25   H     H_    0.820253 0.159288 0.737514 0.174943
H26   H     H_    0.233301 0.153127 0.651528 -0.027891
H27   H     H_    0.420090 0.161977 0.794194 0.073555
H28   H     H_    0.531346 0.131320 0.726023 0.060774
H29   H     H_    0.024731 0.749013 0.346057 0.017986
H30   H     H_    0.770279 0.001165 0.431690 0.123966
H31   H     H_    0.076428 0.839479 0.526836 0.133786
H32   H     H_    0.021338 0.989080 0.552888 0.136970
H33   H     H_    0.612025 0.908956 0.496180 0.108391
H34   H     H_    0.736586 0.144796 0.434755 0.122548
H35   H     H_    0.677070 0.663997 0.500297 0.058592
H36   H     H_    0.119195 0.331624 0.526213 0.072147
H37   H     H_    0.530480 0.506941 0.820431 0.105048
H38   H     H_    0.500507 0.578981 0.934676 0.109900
H39   H     H_    0.587954 0.595422 0.061403 0.121778
H40   H     H_    0.287722 0.444652 0.183800 0.088284
H41   H     H_    0.232605 0.350919 0.941829 0.125418
H42   H     H_    0.320296 0.367845 0.069842 0.078658
H43   H     H_    0.060447 0.396459 0.858193 0.080485
H44   H     H_    0.759596 0.542678 0.142179 0.090888
H45   H     H_    0.658070 0.532615 0.356747 0.061880
H46   H     H_    0.130310 0.804680 0.242077 -0.089662
H47   H     H_    0.625678 0.369634 0.332130 0.012316
H48   H     H_    0.829407 0.412566 0.322159 0.014437
O1    O     O_2   0.166667 0.691630 0.546720 -0.460903
O2    O     O_3   0.300914 0.337638 0.312657 -0.635287
O3    O     O_3   0.982264 0.675150 0.248543 -0.631264
O4    O     O_2   0.643630 0.308330 0.453260 -0.457212
O5    O     O_3   0.916470 0.406310 0.458240 -0.497878
O6    O     O_3   0.419940 0.355340 0.582140 -0.493549
O7    O     O_3   0.795453 0.298365 0.340104 -0.626074
O8    O     O_3   0.383960 0.539280 0.585630 -0.453326
O9    O     O_3   0.845010 0.394580 0.619730 -0.475117
O10   O     O_2   0.739035 0.432885 0.745816 -0.436725
O11   O     O_3   0.822757 0.295796 0.726367 -0.565643
O12   O     O_3   0.893830 0.593690 0.541700 -0.422160
O13   O     O_3   0.426330 0.460710 0.414310 -0.504607
O14   O     O_2   0.638540 0.536570 0.671920 -0.411435
O15   O     O_3   0.493622 0.656093 0.709542 -0.565198
O16   O     O_2   0.486995 0.223151 0.517382 -0.448149
O17   O     O_3   0.454128 0.222874 0.650144 -0.615052
O18   O     O_3   0.390350 0.644650 0.417800 -0.490595
O19   O     O_2   0.280718 0.775158 0.465501 -0.473667
O20   O     O_3   0.013588 0.698707 0.659881 -0.537897
O21   O     O_3   0.453716 0.790005 0.364133 -0.546306
O22   O     O_2   0.171750 0.463380 0.328050 -0.457631
O23   O     O_3   0.965290 0.605410 0.380210 -0.474209
O24   O     O_2   0.043565 0.537349 0.253308 -0.482515
P1    P     P_3+3 0.992230 0.679190 0.566750 1.114736
P2    P     P_3+3 0.339610 0.439630 0.337240 0.979429
P3    P     P_3+3 0.929657 0.589823 0.285752 1.039710
P4    P     P_3+3 0.818060 0.320800 0.433200 0.988438
P5    P     P_3+3 0.871934 0.392992 0.712727 1.133131
P6    P     P_3+3 0.432869 0.746922 0.440665 1.080748
P7    P     P_3+3 0.464271 0.555755 0.676907 1.107469
P8    P     P_3+3 0.376290 0.252530 0.571421 1.018674
I1    I     I_    0.284247 0.701878 0.141292 -0.267406
S1    S     S_3+6 0.635919 0.818815 0.777764 -0.009083
O25   O     O_2   0.757834 0.891916 0.784674 -0.246169
O26   O     O_2   0.498756 0.837012 0.818187 -0.222078
O27   O     O_3   0.719328 0.750021 0.812834 -0.504263
H49   H     H_    0.758648 0.774424 0.862788 0.378735
S2    S     S_3+6 0.920754 0.829779 0.175068 0.029164
O28   O     O_2   0.900539 0.755738 0.121302 -0.299760
O29   O     O_2   0.761659 0.854336 0.184099 -0.242943
O30   O     O_3   0.037255 0.900753 0.144279 -0.430709
H50   H     H_    0.980780 0.904359 0.097643 0.377410
I2    I     I_    0.685574 0.069708 0.613660 -0.406119
S3    S     S_3+6 0.269148 0.263717 0.744681 -0.137617
O31   O     O_2   0.147293 0.231118 0.789427 -0.295066
O32   O     O_2   0.409806 0.312118 0.792587 -0.325577
O33   O     O_3   0.189016 0.317559 0.691476 -0.647942
H51   H     H_    0.280374 0.355264 0.683272 0.314857
S4    S     S_3+6 0.293952 0.041023 0.726444 -0.076520
O34   O     O_2   0.125168 0.046600 0.740892 -0.288043
O35   O     O_2   0.293957 0.998619 0.651868 -0.282455
O36   O     O_3   0.375882 0.991014 0.784319 -0.443025
H52   H     H_    0.361489 0.018480 0.832106 0.357984
I3    I     I_    0.283011 0.056684 0.493259 -0.279590
S5    S     S_3+6 0.756648 0.739688 0.304478 -0.116931
O37   O     O_2   0.721232 0.696444 0.364443 -0.393708
O38   O     O_2   0.724976 0.821883 0.322949 -0.272625
O39   O     O_3   0.646799 0.689085 0.229614 -0.596052
H53   H     H_    0.713120 0.692541 0.190137 0.371290
S6    S     S_3+6 0.101162 0.569622 0.707372 -0.072944
O40   O     O_2   0.124292 0.569621 0.631062 -0.318396
O41   O     O_2   0.929424 0.567459 0.718581 -0.257685
O42   O     O_3   0.208716 0.647962 0.762610 -0.499312
H54   H     H_    0.240649 0.687660 0.732811 0.364963
S7    S     S_3+6 0.069214 0.907337 0.319903 -0.007011
O43   O     O_2   0.934173 0.953236 0.318357 -0.202480
O44   O     O_2   0.105718 0.891380 0.394112 -0.348772
O45   O     O_3   0.230694 0.961525 0.296667 -0.459958
H55   H     H_    0.322643 0.951819 0.327464 0.354940

loop_
_geom_bond_atom_site_label_1
_geom_bond_atom_site_label_2
_ccdc_geom_bond_type
O8    P7    S    
O39   H53   S    
C21   H32   S    
C36   H42   S    
S3    O33   S    
C48   H14   S    
C39   P5    S    
C25   H45   S    
C43   S6    S    
S4    O36   S    
C38   H43   S    
C3    H17   S    
Ba1   O1    S    
C7    S3    S    
C46   H7    S    
C5    H23   S    
C29   C30   A    
C18   P4    S    
C10   C11   S    
S2    O29   D    
Ba2   O14   S    
C31   C37   A    
C47   H10   S    
O15   P7    S    
O7    P4    S    
C1    I1    S    
O1    P1    D    
S7    O43   D    
C33   C35   A    
C35   C36   A    
S4    O35   D    
C16   C17   A    
C3    C4    S    
O12   P1    S    
Ba2   O4    S    
C23   S7    S    
S3    O31   D    
C44   H2    S    
Ba2   O9    S    
C4    H20   S    
C32   C33   A    
O5    P4    S    
C17   C24   A    
C2    H15   S    
C22   H30   S    
C45   O20   S    
Ba2   O12   S    
C45   C46   S    
C14   C15   D    
O3    P3    S    
C21   C22   D    
S6    O41   D    
C2    O21   S    
C34   C44   S    
C34   H47   S    
C7    H26   S    
O14   P7    D    
C7    C8    S    
Ba1   O5    S    
C4    H19   S    
S5    O38   D    
C24   H36   S    
Ba1   O8    S    
O21   P6    S    
C17   P8    S    
C13   C21   S    
C34   O7    S    
C12   C23   S    
O6    P8    S    
C19   C20   A    
C12   S5    S    
C48   H13   S    
O16   P8    D    
C3    H18   S    
C27   H40   S    
C8    H27   S    
C15   P1    S    
C8    H28   S    
S2    O30   S    
Ba2   O13   S    
C47   H11   S    
C35   H41   S    
C2    H1    S    
C7    O17   S    
O27   H49   S    
O30   H50   S    
S5    O39   S    
C4    S1    S    
C5    H22   S    
S1    O25   D    
C12   O3    S    
Ba2   O8    S    
C6    H25   S    
C23   S2    S    
C5    O11   S    
O2    P2    S    
Ba1   O22   S    
C30   P3    S    
C1    H21   S    
C41   C42   A    
Ba1   P1    S    
O23   P3    S    
C27   C28   A    
C31   H39   S    
Ba1   O12   S    
S6    O40   D    
C19   H34   S    
Ba2   O6    S    
C28   C29   A    
O36   H52   S    
C44   H4    S    
C6    H24   S    
C31   C32   A    
S6    O42   S    
C32   H38   S    
C12   H29   S    
S4    O34   D    
C33   C42   S    
S5    O37   D    
C16   I3    S    
Ba2   P4    S    
C38   C39   A    
Ba1   O18   S    
C11   C13   D    
C48   H12   S    
C20   C22   S    
C1    H16   S    
C40   C41   A    
C1    C2    S    
C26   C27   A    
O45   H55   S    
C46   H9    S    
C45   H5    S    
O42   H54   S    
S3    O32   D    
C9    C15   D    
C3    O15   S    
O13   P2    S    
C16   C20   A    
S7    O45   S    
O4    P4    D    
C34   H48   S    
C9    C10   S    
C26   P2    S    
C46   H8    S    
C10   P6    S    
C29   H44   S    
S2    O28   D    
C11   H33   S    
C41   H37   S    
O24   P3    D    
S7    O44   D    
Ba1   P2    S    
O9    P5    S    
Ba1   O13   S    
C47   O2    S    
C36   C37   A    
C18   C24   A    
Ba2   O5    S    
C9    H35   S    
S1    O27   S    
Ba1   Ba2   S    
C44   H3    S    
C14   H31   S    
O11   P5    S    
C28   C37   S    
C40   P7    S    
O33   H51   S    
O20   P1    S    
O10   P5    D    
O19   P6    D    
Ba1   O23   S    
C5    C6    S    
C25   C30   A    
O22   P2    D    
C38   C42   A    
C18   C19   A    
C23   H46   S    
S1    O26   D    
C47   C48   S    
O18   P6    S    
C25   C26   A    
C39   C43   A    
C6    I2    S    
C40   C43   A    
C13   C14   S    
C8    S4    S    
C45   H6    S    
O17   P8    S    
