data_mof_unit_39497.cif
_audit_creation_date              2012-12-10T20:42:42-0500
_audit_creation_method            fapswitch 2.2
_symmetry_space_group_name_H-M    P1
_symmetry_Int_Tables_number       1
_space_group_crystal_system       triclinic
_cell_length_a                    8.891433
_cell_length_b                    10.703227
_cell_length_c                    9.897087
_cell_angle_alpha                 90.380128
_cell_angle_beta                  90.065818
_cell_angle_gamma                 90.335003
_cell_volume                      941.838841106

loop_
_atom_site_label
_atom_site_type_symbol
_atom_type_description
_atom_site_fract_x
_atom_site_fract_y
_atom_site_fract_z
_atom_type_partial_charge
C1    C     C_R   0.500094 0.260052 0.499794 0.942224
C2    C     C_R   0.374866 0.533677 0.928523 0.116695
C3    C     C_3   0.222628 0.476943 0.915052 -0.492194
C4    C     C_R   0.218835 0.499924 0.499950 0.943742
C5    C     C_3   0.222767 0.461406 0.067857 0.289376
C6    C     C_R   0.495507 0.739723 0.500407 0.861443
C7    C     C_R   0.781169 0.500132 0.500055 0.968597
C8    C     C_1   0.065464 0.499799 0.499943 -0.156272
C9    C     C_1   0.934557 0.499879 0.500064 -0.146335
C10   C     C_R   0.495391 0.063822 0.621975 0.006186
C11   C     C_R   0.486521 0.128036 0.500224 -0.042260
C12   C     C_R   0.445627 0.934355 0.381315 -0.205967
C13   C     C_R   0.450940 0.063363 0.380700 -0.130515
C14   C     C_R   0.475500 0.871020 0.501839 -0.035463
C15   C     C_R   0.485209 0.936738 0.623343 0.051665
C16   C     C_3   0.593119 0.924732 0.738308 -0.501757
C17   C     C_3   0.607799 0.066424 0.735690 0.319358
C18   C     C_R   0.372919 0.527672 0.070342 0.077877
C19   C     C_R   0.628606 0.478107 0.071798 -0.042431
C20   C     C_R   0.628340 0.477101 0.928188 -0.058958
H1    H     H_    0.435244 0.111241 0.286052 0.220588
H2    H     H_    0.138740 0.546080 0.879674 0.167623
H3    H     H_    0.367183 0.146870 0.039686 0.361781
H4    H     H_    0.930019 0.109935 0.508074 0.390939
H5    H     H_    0.223940 0.388592 0.855213 0.263939
H6    H     H_    0.132185 0.514755 0.119204 0.073984
H7    H     H_    0.427342 0.885006 0.286728 0.169452
H8    H     H_    0.536745 0.889843 0.831010 0.174520
H9    H     H_    0.696404 0.872794 0.709520 0.242226
H10   H     H_    0.564289 0.112794 0.828437 0.111699
H11   H     H_    0.731882 0.458784 0.125261 0.155269
H12   H     H_    0.731318 0.456715 0.874724 0.179791
N1    N     N_R   0.499010 0.499140 0.142800 -0.082999
N2    N     N_R   0.499010 0.499180 0.857150 -0.093477
O1    O     O_R   0.500020 0.316790 0.614690 -0.603492
O2    O     O_2   0.098565 0.233151 0.041182 -0.268074
O3    O     O_3   0.390578 0.235768 0.059192 -0.575645
O4    O     O_2   0.805285 0.255736 0.700329 -0.309523
O5    O     O_2   0.906103 0.058121 0.782497 -0.259453
O6    O     O_3   0.831228 0.071479 0.529002 -0.561388
O7    O     O_R   0.500000 0.316760 0.385350 -0.569400
O8    O     O_R   0.285350 0.500020 0.614650 -0.629533
O9    O     O_R   0.285340 0.499980 0.385310 -0.595789
O10   O     O_R   0.500000 0.683240 0.614650 -0.623364
O11   O     O_R   0.499980 0.683210 0.385310 -0.637950
O12   O     O_R   0.714660 0.500020 0.614690 -0.601507
O13   O     O_R   0.714650 0.499980 0.385350 -0.635025
O14   O     O_2   0.210221 0.282034 0.260742 -0.295773
S1    S     S_3+6 0.227281 0.298597 0.111112 0.035019
S2    S     S_3+6 0.793722 0.116129 0.688673 0.025106
Zn1   Zn    Zn3+2 0.500010 0.500020 0.653130 0.990129
Zn2   Zn    Zn3+2 0.499990 0.499980 0.346870 1.015319

loop_
_geom_bond_atom_site_label_1
_geom_bond_atom_site_label_2
_ccdc_geom_bond_type
C17   S2    S    
C16   H8    S    
O13   Zn2   S    
O4    S2    D    
C6    O11   A    
C2    C18   A    
O3    S1    S    
O7    Zn2   S    
C19   C20   A    
C1    C11   S    
O8    Zn1   S    
C4    C8    S    
C19   H11   S    
C2    N2    A    
C2    C3    S    
C13   H1    S    
C6    O10   A    
N1    Zn2   S    
C17   H10   S    
C11   C13   A    
C5    S1    S    
N2    Zn1   S    
C4    O8    A    
O6    S2    S    
O10   Zn1   S    
C1    O7    A    
O14   S1    D    
H4    O6    S    
C4    O9    A    
C12   C14   A    
C10   C15   A    
O1    Zn1   S    
C18   N1    A    
O9    Zn2   S    
C6    C14   S    
C10   C11   A    
C10   C17   S    
C5    H6    S    
C7    O12   A    
C3    H5    S    
O5    S2    D    
C12   C13   A    
C1    O1    A    
C20   H12   S    
C20   N2    A    
C7    C9    S    
C14   C15   A    
C16   C17   S    
C3    H2    S    
C5    C18   S    
C12   H7    S    
O11   Zn2   S    
C16   H9    S    
H3    O3    S    
O12   Zn1   S    
O2    S1    D    
C15   C16   S    
C19   N1    A    
C8    C9    T    
C3    C5    S    
C7    O13   A    
