data_mof_unit_50312.cif
_audit_creation_date              2012-12-10T18:57:43-0500
_audit_creation_method            fapswitch 2.2
_symmetry_space_group_name_H-M    P1
_symmetry_Int_Tables_number       1
_space_group_crystal_system       triclinic
_cell_length_a                    10.929058
_cell_length_b                    10.860247
_cell_length_c                    9.544685
_cell_angle_alpha                 90.015095
_cell_angle_beta                  89.700781
_cell_angle_gamma                 90.169852
_cell_volume                      1132.85986175

loop_
_atom_site_label
_atom_site_type_symbol
_atom_type_description
_atom_site_fract_x
_atom_site_fract_y
_atom_site_fract_z
_atom_type_partial_charge
C1    C     C_R   0.500409 0.262696 0.499840 0.799702
C2    C     C_R   0.436510 0.413890 0.074795 -0.075017
C3    C     C_R   0.436396 0.413969 0.925906 -0.051439
C4    C     C_R   0.265408 0.506844 0.500369 0.784032
C5    C     C_R   0.553798 0.594190 0.925872 0.261419
C6    C     C_3   0.684951 0.631875 0.919089 -0.495229
C7    C     C_3   0.684695 0.632222 0.078025 -0.501772
C8    C     C_R   0.500771 0.737295 0.499858 0.812225
C9    C     C_R   0.734547 0.495726 0.499870 0.853044
C10   C     C_2   0.934131 0.500093 0.386555 -0.105448
C11   C     C_2   0.866127 0.483391 0.501691 -0.274409
C12   C     C_R   0.503293 0.130089 0.498246 -0.101620
C13   C     C_2   0.067429 0.491506 0.392320 -0.230403
C14   C     C_2   0.134758 0.532940 0.500718 -0.151966
C15   C     C_R   0.492472 0.061983 0.620566 0.135770
C16   C     C_2   0.086108 0.618227 0.610343 0.837177
C17   C     C_R   0.517263 0.064602 0.371337 -0.216300
C18   C     C_R   0.517528 0.935385 0.371389 -0.207575
C19   C     C_R   0.503777 0.869897 0.498352 -0.099566
C20   C     C_R   0.492854 0.938019 0.620664 0.131865
C21   C     C_3   0.470086 0.929179 0.774389 -0.456849
C22   C     C_3   0.469608 0.070979 0.774213 -0.483874
C23   C     C_R   0.553600 0.594352 0.073249 0.257934
Cu1   Cu    Cu3+1 0.499990 0.499980 0.640670 0.966602
Cu2   Cu    Cu3+1 0.500010 0.500020 0.359330 0.948103
H1    H     H_    0.892318 0.514075 0.285199 0.157780
H2    H     H_    0.111071 0.443802 0.305387 0.166098
H3    H     H_    0.527221 0.112432 0.272349 0.165369
H4    H     H_    0.527673 0.887549 0.272426 0.164184
H5    H     H_    0.379359 0.887814 0.799133 0.213783
H6    H     H_    0.548815 0.889043 0.831335 0.191461
H7    H     H_    0.378488 0.110994 0.798721 0.194454
H8    H     H_    0.973444 0.759250 0.658274 0.326379
H9    H     H_    0.548063 0.112720 0.830886 0.201873
H10   H     H_    0.386980 0.342807 0.130829 0.137891
H11   H     H_    0.386617 0.343115 0.870425 0.136924
H12   H     H_    0.744961 0.559464 0.873787 0.225260
H13   H     H_    0.697416 0.724956 0.872897 0.190863
H14   H     H_    0.744139 0.559693 0.122498 0.213855
H15   H     H_    0.696792 0.725528 0.123906 0.196666
H16   H     H_    0.908158 0.460788 0.601261 0.145968
N1    N     N_R   0.500780 0.500930 0.147930 -0.187382
N2    N     N_R   0.500780 0.500890 0.852020 -0.185798
O1    O     O_R   0.500000 0.319640 0.618810 -0.588454
O2    O     O_R   0.999018 0.707015 0.575136 -0.751653
O3    O     O_R   0.500010 0.319680 0.381230 -0.593562
O4    O     O_R   0.321940 0.499980 0.618760 -0.544867
O5    O     O_R   0.321950 0.500020 0.381180 -0.582622
O6    O     O_R   0.499990 0.680320 0.618770 -0.577008
O7    O     O_R   0.500000 0.680360 0.381190 -0.586135
O8    O     O_R   0.678050 0.499980 0.618820 -0.587932
O9    O     O_R   0.678060 0.500020 0.381240 -0.584987
O10   O     O_2   0.124661 0.613055 0.730250 -0.594810

loop_
_geom_bond_atom_site_label_1
_geom_bond_atom_site_label_2
_ccdc_geom_bond_type
C12   C17   A    
Cu2   N1    S    
C7    H15   S    
C6    H13   S    
C6    C7    S    
C13   C14   D    
C9    C11   S    
C21   H5    S    
C1    O1    A    
C23   N1    A    
C19   C20   A    
C5    C23   A    
C12   C15   A    
C17   H3    S    
Cu1   O8    S    
C2    C3    A    
C5    N2    A    
C6    H12   S    
C18   H4    S    
C21   C22   S    
C20   C21   S    
C21   H6    S    
Cu2   O5    S    
C3    N2    A    
C5    C6    S    
C9    O9    A    
C22   H7    S    
C3    H11   S    
C2    N1    A    
Cu1   O1    S    
C8    O6    A    
C11   H16   S    
C4    C14   S    
C15   C20   A    
C22   H9    S    
C14   C16   S    
C1    O3    A    
Cu2   O9    S    
C8    C19   S    
C10   C11   D    
C16   O2    S    
C8    O7    A    
H8    O2    S    
Cu1   Cu2   S    
C17   C18   A    
C18   C19   A    
C4    O5    A    
Cu1   O6    S    
Cu1   N2    S    
C2    H10   S    
C7    H14   S    
Cu2   O7    S    
C13   H2    S    
C16   O10   D    
Cu1   O4    S    
Cu2   O3    S    
C4    O4    A    
C15   C22   S    
C1    C12   S    
C10   H1    S    
C7    C23   S    
C10   C13   S    
C9    O8    A    
