data_mof_unit_62476.cif
_audit_creation_date              2012-12-10T19:41:30-0500
_audit_creation_method            fapswitch 2.2
_symmetry_space_group_name_H-M    P1
_symmetry_Int_Tables_number       1
_space_group_crystal_system       triclinic
_cell_length_a                    18.265602
_cell_length_b                    30.623659
_cell_length_c                    30.609729
_cell_angle_alpha                 90.015027
_cell_angle_beta                  90.109122
_cell_angle_gamma                 90.0218
_cell_volume                      17121.8118776

loop_
_atom_site_label
_atom_site_type_symbol
_atom_type_description
_atom_site_fract_x
_atom_site_fract_y
_atom_site_fract_z
_atom_type_partial_charge
C1    C     C_R   0.500645 0.689932 0.309970 0.875049
C2    C     C_R   0.558411 0.621742 0.597098 0.152690
C3    C     C_R   0.141023 0.749965 0.250017 0.928767
C4    C     C_R   0.358971 0.249963 0.749971 0.929050
C5    C     C_R   0.358977 0.250003 0.249998 0.931502
C6    C     C_R   0.641029 0.250005 0.750014 0.931747
C7    C     C_R   0.641023 0.249965 0.250017 0.928881
C8    C     C_3   0.551613 0.914269 0.199811 -0.456785
C9    C     C_3   0.448240 0.914199 0.800217 -0.456664
C10   C     C_3   0.052027 0.414217 0.199758 -0.457075
C11   C     C_3   0.951277 0.412063 0.802324 -0.455042
C12   C     C_3   0.948407 0.914229 0.699692 -0.456872
C13   C     C_R   0.941655 0.121748 0.402935 0.152553
C14   C     C_3   0.051600 0.914229 0.300321 -0.456698
C15   C     C_3   0.448401 0.414228 0.699691 -0.457618
C16   C     C_3   0.551603 0.414229 0.300321 -0.456833
C17   C     C_R   0.499970 0.940211 0.939807 0.890206
C18   C     C_R   0.500013 0.940209 0.060192 0.890106
C19   C     C_R   0.999860 0.440056 0.939720 0.886386
C20   C     C_R   0.000012 0.440219 0.060202 0.891188
C21   C     C_R   0.999923 0.940213 0.439804 0.890260
C22   C     C_R   0.000059 0.940211 0.560196 0.890105
C23   C     C_R   0.499923 0.440213 0.439804 0.890261
C24   C     C_R   0.058420 0.121735 0.597106 0.152439
C25   C     C_R   0.500059 0.440211 0.560196 0.890126
C26   C     C_R   0.499912 0.560328 0.439915 0.870614
C27   C     C_R   0.500105 0.560324 0.560088 0.870763
C28   C     C_R   0.999913 0.060328 0.439915 0.870623
C29   C     C_R   0.000105 0.060324 0.560089 0.870770
C30   C     C_R   0.999873 0.560120 0.939622 0.870665
C31   C     C_R   0.999987 0.560313 0.060121 0.872674
C32   C     C_R   0.500023 0.060336 0.939925 0.870485
C33   C     C_R   0.499994 0.060336 0.060075 0.870662
C34   C     C_R   0.499691 0.809985 0.189885 0.886608
C35   C     C_R   0.937248 0.617152 0.897952 0.153535
C36   C     C_R   0.500312 0.809981 0.810112 0.886625
C37   C     C_R   0.999704 0.309987 0.189887 0.886530
C38   C     C_R   0.000491 0.310028 0.810155 0.882289
C39   C     C_R   0.000323 0.809985 0.689887 0.886481
C40   C     C_R   0.999670 0.809982 0.310110 0.886499
C41   C     C_R   0.500324 0.309985 0.689887 0.886652
C42   C     C_R   0.499670 0.309982 0.310110 0.886552
C43   C     C_1   0.282415 0.749884 0.249984 -0.193719
C44   C     C_1   0.282421 0.750062 0.750016 -0.193572
C45   C     C_1   0.717586 0.750066 0.250009 -0.194017
C46   C     C_R   0.940996 0.621058 0.097725 0.155640
C47   C     C_1   0.717581 0.749885 0.749993 -0.194604
C48   C     C_1   0.782415 0.249884 0.249984 -0.193837
C49   C     C_1   0.782420 0.250064 0.750026 -0.193570
C50   C     C_1   0.217586 0.250066 0.250010 -0.193904
C51   C     C_1   0.217579 0.249889 0.749983 -0.194628
C52   C     C_1   0.782415 0.749882 0.749977 -0.195475
C53   C     C_1   0.782421 0.750054 0.249999 -0.193891
C54   C     C_1   0.217586 0.750062 0.750023 -0.192831
C55   C     C_1   0.217580 0.749896 0.250007 -0.193695
C56   C     C_1   0.282414 0.249893 0.749959 -0.194514
C57   C     C_R   0.558224 0.121776 0.903072 0.152785
C58   C     C_1   0.282421 0.250054 0.250000 -0.193798
C59   C     C_1   0.717585 0.250058 0.750035 -0.193555
C60   C     C_1   0.717580 0.249896 0.250007 -0.193840
C61   C     C_R   0.442626 0.654101 0.371842 0.104282
C62   C     C_R   0.557411 0.654118 0.628179 0.104893
C63   C     C_R   0.942641 0.154112 0.371854 0.104288
C64   C     C_R   0.057421 0.154111 0.628186 0.104346
C65   C     C_R   0.938174 0.649701 0.867093 0.101764
C66   C     C_R   0.941804 0.653358 0.128886 0.103082
C67   C     C_R   0.557286 0.154118 0.871972 0.104287
C68   C     C_R   0.441799 0.121742 0.096934 0.152893
C69   C     C_R   0.442727 0.154087 0.128042 0.104235
C70   C     C_R   0.500091 0.656485 0.342220 -0.077592
C71   C     C_R   0.499925 0.656485 0.657785 -0.077313
C72   C     C_R   0.000089 0.156485 0.342220 -0.077623
C73   C     C_R   0.999926 0.156485 0.657786 -0.077514
C74   C     C_R   0.000406 0.656408 0.841977 -0.071435
C75   C     C_R   0.000205 0.656442 0.157884 -0.076397
C76   C     C_R   0.499819 0.156493 0.842226 -0.077725
C77   C     C_R   0.500205 0.156498 0.157777 -0.077507
C78   C     C_R   0.552511 0.623127 0.340617 -0.210666
C79   C     C_3   0.413142 0.651908 0.437267 -0.493529
C80   C     C_R   0.447512 0.623103 0.659389 -0.211154
C81   C     C_R   0.052492 0.123118 0.340609 -0.210625
C82   C     C_R   0.947504 0.123108 0.659385 -0.210755
C83   C     C_R   0.058150 0.626354 0.843531 -0.213205
C84   C     C_R   0.053674 0.623658 0.159056 -0.210574
C85   C     C_R   0.447314 0.123153 0.840545 -0.210731
C86   C     C_R   0.552727 0.123194 0.159450 -0.210648
C87   C     C_R   0.552828 0.591135 0.372870 -0.224056
C88   C     C_R   0.447213 0.591098 0.627140 -0.224216
C89   C     C_R   0.052811 0.091127 0.372863 -0.224084
C90   C     C_3   0.586919 0.651909 0.562758 -0.493659
C91   C     C_R   0.947204 0.091103 0.627136 -0.224065
C92   C     C_R   0.057940 0.593889 0.875355 -0.217692
C93   C     C_R   0.053955 0.591626 0.126819 -0.222491
C94   C     C_R   0.446953 0.091178 0.872820 -0.224135
C95   C     C_R   0.553093 0.091214 0.127169 -0.224162
C96   C     C_R   0.498958 0.591826 0.405455 -0.103265
C97   C     C_R   0.501089 0.591810 0.594561 -0.103146
C98   C     C_R   0.998958 0.091828 0.405457 -0.103245
C99   C     C_R   0.001090 0.091809 0.594562 -0.103221
C100  C     C_R   0.998870 0.591053 0.904495 -0.107630
C101  C     C_3   0.913195 0.151925 0.437284 -0.493523
C102  C     C_R   0.999162 0.591781 0.094651 -0.104197
C103  C     C_R   0.500857 0.091876 0.905506 -0.103234
C104  C     C_R   0.499182 0.091882 0.094489 -0.103244
C105  C     C_3   0.628509 0.966494 0.151645 -0.860000
C106  C     C_3   0.503844 0.986577 0.828787 -0.857689
C107  C     C_3   0.496001 0.986610 0.171250 -0.857441
C108  C     C_3   0.371343 0.966399 0.848401 -0.859448
C109  C     C_3   0.128918 0.466371 0.151509 -0.859340
C110  C     C_3   0.020388 0.476691 0.836322 -0.860322
C111  C     C_3   0.996566 0.486637 0.171289 -0.857443
C112  C     C_R   0.499358 0.689935 0.690033 0.875078
C113  C     C_3   0.086952 0.151899 0.562769 -0.493520
C114  C     C_3   0.880331 0.473706 0.840505 -0.848698
C115  C     C_3   0.004026 0.986622 0.671332 -0.857644
C116  C     C_3   0.128411 0.966447 0.348737 -0.859816
C117  C     C_3   0.871578 0.966409 0.651309 -0.859889
C118  C     C_3   0.995991 0.986616 0.328676 -0.857719
C119  C     C_3   0.504016 0.486621 0.671332 -0.857448
C120  C     C_3   0.628415 0.466446 0.348738 -0.859855
C121  C     C_3   0.371570 0.466406 0.651309 -0.860967
C122  C     C_3   0.495997 0.486617 0.328675 -0.857779
C123  C     C_3   0.896268 0.644800 0.929821 -0.484366
C124  C     C_3   0.910785 0.651065 0.063716 -0.499560
C125  C     C_3   0.586791 0.151962 0.937459 -0.493536
C126  C     C_3   0.413212 0.151903 0.062557 -0.493640
C127  C     C_3   0.414471 0.687668 0.402930 -0.478018
C128  C     C_3   0.585573 0.687684 0.597096 -0.478055
C129  C     C_3   0.914525 0.187684 0.402947 -0.477980
C130  C     C_3   0.085606 0.187674 0.597107 -0.477960
C131  C     C_3   0.897382 0.680738 0.895667 -0.489259
C132  C     C_R   0.000645 0.189932 0.309970 0.875037
C133  C     C_3   0.911512 0.686664 0.098213 -0.476097
C134  C     C_3   0.585513 0.187701 0.903099 -0.477956
C135  C     C_3   0.414480 0.187648 0.096929 -0.478261
C136  C     C_R   0.523115 0.884518 0.165058 0.038709
C137  C     C_R   0.476765 0.884479 0.834960 0.038802
C138  C     C_R   0.023300 0.384501 0.165041 0.038784
C139  C     C_R   0.955431 0.379634 0.838794 0.020653
C140  C     C_R   0.977025 0.884517 0.665019 0.038655
C141  C     C_R   0.022935 0.884522 0.334981 0.038614
C142  C     C_R   0.477021 0.384516 0.665019 0.038976
C143  C     C_R   0.999359 0.189935 0.690033 0.875006
C144  C     C_R   0.522936 0.384523 0.334981 0.038671
C145  C     C_R   0.499102 0.842491 0.156575 -0.091633
C146  C     C_R   0.500876 0.842486 0.843425 -0.091114
C147  C     C_R   0.999114 0.342501 0.156584 -0.091572
C148  C     C_R   0.998435 0.342403 0.843774 -0.079885
C149  C     C_R   0.001008 0.842497 0.656587 -0.091451
C150  C     C_R   0.998956 0.842497 0.343408 -0.091399
C151  C     C_R   0.501009 0.342497 0.656587 -0.091575
C152  C     C_R   0.498955 0.342497 0.343408 -0.091422
C153  C     C_R   0.474604 0.832507 0.113941 -0.201934
C154  C     C_R   0.000656 0.689939 0.809919 0.874841
C155  C     C_R   0.525439 0.832531 0.886043 -0.202228
C156  C     C_R   0.974419 0.332551 0.113985 -0.202257
C157  C     C_R   0.034867 0.334833 0.883525 -0.204416
C158  C     C_R   0.025593 0.832536 0.614023 -0.202072
C159  C     C_R   0.974343 0.832535 0.385962 -0.202162
C160  C     C_R   0.525597 0.332537 0.614024 -0.202163
C161  C     C_R   0.474341 0.332535 0.385961 -0.202180
C162  C     C_R   0.474390 0.864964 0.081719 -0.221140
C163  C     C_R   0.525634 0.864991 0.918271 -0.221173
C164  C     C_R   0.974191 0.365012 0.081769 -0.220527
C165  C     C_R   0.000713 0.689932 0.190057 0.875046
C166  C     C_R   0.035678 0.367192 0.915426 -0.223719
C167  C     C_R   0.025860 0.865002 0.581810 -0.221336
C168  C     C_R   0.974068 0.865007 0.418179 -0.221414
C169  C     C_R   0.525863 0.365003 0.581811 -0.221310
C170  C     C_R   0.474067 0.365008 0.418178 -0.221416
C171  C     C_R   0.499938 0.906957 0.092016 -0.094584
C172  C     C_R   0.500006 0.906952 0.907991 -0.094298
C173  C     C_R   0.999932 0.406972 0.092031 -0.095423
C174  C     C_R   0.998668 0.406437 0.907757 -0.097001
C175  C     C_R   0.000282 0.906980 0.592043 -0.094587
C176  C     C_R   0.499322 0.189933 0.809969 0.875137
C177  C     C_R   0.999659 0.906988 0.407952 -0.094496
C178  C     C_R   0.500282 0.406980 0.592043 -0.094670
C179  C     C_R   0.499659 0.406988 0.407952 -0.094504
C180  C     C_R   0.524274 0.915321 0.133881 0.106961
C181  C     C_R   0.475595 0.915285 0.866144 0.106911
C182  C     C_R   0.024450 0.415308 0.133864 0.106692
C183  C     C_R   0.955365 0.411318 0.870603 0.118079
C184  C     C_R   0.975919 0.915328 0.633848 0.107062
C185  C     C_R   0.024028 0.915341 0.366154 0.106945
C186  C     C_R   0.475913 0.415327 0.633848 0.107170
C187  C     C_R   0.500688 0.189937 0.190035 0.875112
C188  C     C_R   0.524029 0.415341 0.366154 0.106956
C189  C     C_3   0.551988 0.950014 0.163951 0.326704
C190  C     C_3   0.447864 0.949955 0.836084 0.326491
C191  C     C_3   0.052390 0.449969 0.163903 0.326931
C192  C     C_3   0.951807 0.447565 0.837545 0.327394
C193  C     C_3   0.948089 0.949986 0.663844 0.326811
C194  C     C_3   0.051904 0.949998 0.336174 0.326759
C195  C     C_3   0.448081 0.449985 0.663844 0.327176
C196  C     C_3   0.551907 0.449999 0.336175 0.326818
C197  C     C_R   0.358971 0.749945 0.249992 0.931669
C198  C     C_R   0.441640 0.621737 0.402923 0.152579
C199  C     C_R   0.358977 0.750018 0.750015 0.929075
C200  C     C_R   0.641029 0.750023 0.249994 0.929059
C201  C     C_R   0.641023 0.749949 0.750001 0.931557
C202  C     C_R   0.858971 0.249945 0.249991 0.931613
C203  C     C_R   0.858977 0.250022 0.750019 0.930345
C204  C     C_R   0.141029 0.250022 0.249994 0.929019
C205  C     C_R   0.141022 0.249949 0.749998 0.929886
C206  C     C_R   0.858972 0.749947 0.749989 0.931656
C207  C     C_R   0.858977 0.750002 0.249997 0.931368
C208  C     C_R   0.141029 0.750015 0.750003 0.927788
H1    H     H_    0.594961 0.623158 0.315933 0.153270
H2    H     H_    0.404477 0.566587 0.627101 0.167152
H3    H     H_    0.989192 0.505624 0.140747 0.231112
H4    H     H_    0.942437 0.473172 0.180929 0.229291
H5    H     H_    0.874541 0.495083 0.811402 0.241094
H6    H     H_    0.832076 0.451634 0.842104 0.224884
H7    H     H_    0.880844 0.494453 0.870287 0.248270
H8    H     H_    0.058064 0.973134 0.681208 0.229467
H9    H     H_    0.011614 0.005501 0.640757 0.231328
H10   H     H_    0.984455 0.008947 0.697404 0.247165
H11   H     H_    0.166294 0.938717 0.354902 0.230355
H12   H     H_    0.151090 0.986715 0.321901 0.236448
H13   H     H_    0.095534 0.066629 0.372886 0.167340
H14   H     H_    0.125353 0.986607 0.378820 0.247445
H15   H     H_    0.848937 0.986685 0.678153 0.236456
H16   H     H_    0.874619 0.986555 0.621224 0.247413
H17   H     H_    0.833674 0.938666 0.645155 0.230347
H18   H     H_    0.015600 0.008941 0.302618 0.247161
H19   H     H_    0.941957 0.973109 0.318775 0.229444
H20   H     H_    0.988377 0.005499 0.359253 0.231342
H21   H     H_    0.558055 0.473134 0.681210 0.229585
H22   H     H_    0.511607 0.505499 0.640757 0.231379
H23   H     H_    0.484443 0.508947 0.697403 0.246936
H24   H     H_    0.904462 0.066596 0.627093 0.167350
H25   H     H_    0.651096 0.486713 0.321902 0.236407
H26   H     H_    0.625357 0.486608 0.378821 0.247455
H27   H     H_    0.666296 0.438715 0.354905 0.230358
H28   H     H_    0.348928 0.486681 0.678153 0.235897
H29   H     H_    0.374610 0.486553 0.621224 0.247554
H30   H     H_    0.333668 0.438663 0.645155 0.230370
H31   H     H_    0.441961 0.473111 0.318777 0.229438
H32   H     H_    0.488386 0.505502 0.359252 0.231357
H33   H     H_    0.515605 0.508939 0.302616 0.247127
H34   H     H_    0.104413 0.572079 0.878005 0.167905
H35   H     H_    0.097366 0.567559 0.126450 0.167338
H36   H     H_    0.404192 0.066683 0.872774 0.167239
H37   H     H_    0.595860 0.066742 0.127203 0.167242
H38   H     H_    0.356890 0.642968 0.447793 0.209831
H39   H     H_    0.547168 0.657220 0.535698 0.193256
H40   H     H_    0.452901 0.657252 0.464322 0.193291
H41   H     H_    0.405054 0.623127 0.684068 0.152556
H42   H     H_    0.643174 0.642991 0.552239 0.210004
H43   H     H_    0.856946 0.142996 0.447823 0.209859
H44   H     H_    0.047213 0.157214 0.535704 0.193284
H45   H     H_    0.952974 0.157261 0.464331 0.193292
H46   H     H_    0.143208 0.142973 0.552258 0.209865
H47   H     H_    0.840473 0.631891 0.936362 0.206948
H48   H     H_    0.854713 0.641505 0.053262 0.208351
H49   H     H_    0.929139 0.652687 0.959351 0.193543
H50   H     H_    0.950104 0.657086 0.036715 0.192588
H51   H     H_    0.547051 0.157329 0.964426 0.193228
H52   H     H_    0.094930 0.123142 0.315918 0.153325
H53   H     H_    0.356974 0.142921 0.051907 0.209879
H54   H     H_    0.643030 0.143017 0.948111 0.209999
H55   H     H_    0.452944 0.157289 0.035590 0.193248
H56   H     H_    0.358992 0.699411 0.393684 0.203677
H57   H     H_    0.544909 0.713781 0.590040 0.217799
H58   H     H_    0.455135 0.713787 0.409982 0.217869
H59   H     H_    0.641047 0.699460 0.606349 0.203907
H60   H     H_    0.859048 0.199439 0.393712 0.203684
H61   H     H_    0.044954 0.213775 0.590046 0.217863
H62   H     H_    0.955208 0.213795 0.409990 0.217866
H63   H     H_    0.905038 0.123136 0.684059 0.153281
H64   H     H_    0.141081 0.199442 0.606367 0.203719
H65   H     H_    0.842232 0.688519 0.882381 0.203720
H66   H     H_    0.855807 0.697539 0.107905 0.203204
H67   H     H_    0.930796 0.709506 0.905442 0.218544
H68   H     H_    0.950896 0.713410 0.091033 0.218419
H69   H     H_    0.544899 0.213832 0.910048 0.217753
H70   H     H_    0.358979 0.199343 0.106072 0.203635
H71   H     H_    0.641011 0.199428 0.893964 0.203864
H72   H     H_    0.455081 0.213803 0.089986 0.217875
H73   H     H_    0.454969 0.800152 0.105702 0.167872
H74   H     H_    0.104553 0.629366 0.821729 0.149026
H75   H     H_    0.545148 0.800200 0.894261 0.167156
H76   H     H_    0.954638 0.300221 0.105772 0.167903
H77   H     H_    0.065469 0.305018 0.888968 0.162068
H78   H     H_    0.045225 0.800189 0.605833 0.167649
H79   H     H_    0.954706 0.800181 0.394142 0.167696
H80   H     H_    0.545231 0.300190 0.605834 0.167666
H81   H     H_    0.454704 0.300182 0.394142 0.167691
H82   H     H_    0.454971 0.857352 0.049120 0.147263
H83   H     H_    0.545114 0.857410 0.950858 0.146914
H84   H     H_    0.954613 0.357426 0.049198 0.148725
H85   H     H_    0.096855 0.624183 0.183376 0.152658
H86   H     H_    0.066162 0.362082 0.945397 0.153937
H87   H     H_    0.045294 0.857401 0.549258 0.147101
H88   H     H_    0.954629 0.857409 0.450729 0.147110
H89   H     H_    0.545301 0.357402 0.549259 0.147117
H90   H     H_    0.454627 0.357410 0.450728 0.147105
H91   H     H_    0.606777 0.904122 0.211406 0.189583
H92   H     H_    0.488992 0.919447 0.773789 0.196382
H93   H     H_    0.510848 0.919498 0.226234 0.196451
H94   H     H_    0.393076 0.904014 0.788628 0.189788
H95   H     H_    0.107201 0.404005 0.211278 0.189555
H96   H     H_    0.404849 0.123182 0.815774 0.153285
H97   H     H_    0.000872 0.411461 0.781281 0.201254
H98   H     H_    0.011378 0.419494 0.226235 0.196508
H99   H     H_    0.898837 0.409286 0.784012 0.189885
H100  H     H_    0.989097 0.919481 0.726248 0.196528
H101  H     H_    0.106790 0.904044 0.288924 0.189567
H102  H     H_    0.893223 0.904032 0.711105 0.189486
H103  H     H_    0.010937 0.919460 0.273752 0.196481
H104  H     H_    0.489090 0.419480 0.726248 0.196414
H105  H     H_    0.606793 0.404043 0.288925 0.189541
H106  H     H_    0.393217 0.404029 0.711104 0.189215
H107  H     H_    0.595196 0.123256 0.184218 0.153306
H108  H     H_    0.510941 0.419460 0.273752 0.196436
H109  H     H_    0.666465 0.938780 0.145639 0.230359
H110  H     H_    0.625517 0.986607 0.121530 0.247229
H111  H     H_    0.651056 0.986817 0.178542 0.236568
H112  H     H_    0.557907 0.973074 0.819095 0.229407
H113  H     H_    0.484367 0.008891 0.802648 0.247149
H114  H     H_    0.511342 0.005474 0.859385 0.231384
H115  H     H_    0.515458 0.008934 0.197405 0.247098
H116  H     H_    0.488526 0.005503 0.140659 0.231386
H117  H     H_    0.441931 0.973082 0.180921 0.229454
H118  H     H_    0.595562 0.566643 0.372900 0.167335
H119  H     H_    0.348781 0.986695 0.821507 0.236485
H120  H     H_    0.333398 0.938668 0.854413 0.230637
H121  H     H_    0.374342 0.986531 0.878515 0.247197
H122  H     H_    0.166718 0.438619 0.145332 0.230113
H123  H     H_    0.125852 0.486609 0.121478 0.247289
H124  H     H_    0.151694 0.486561 0.178436 0.236614
H125  H     H_    0.071106 0.456659 0.835518 0.230538
H126  H     H_    0.019089 0.497766 0.806812 0.244956
H127  H     H_    0.022276 0.497904 0.865680 0.230055
H128  H     H_    0.016129 0.508865 0.197497 0.247173
O1    O     O_R   0.500000 0.730040 0.321660 -0.624871
O2    O     O_R   0.500000 0.678320 0.730060 -0.623013
O3    O     O_R   0.000000 0.178320 0.269940 -0.622990
O4    O     O_R   0.000000 0.178320 0.730060 -0.622979
O5    O     O_R   0.000000 0.678320 0.769940 -0.622271
O6    O     O_R   1.000000 0.678320 0.230060 -0.622971
O7    O     O_R   0.500000 0.178320 0.769940 -0.622926
O8    O     O_R   0.500000 0.178320 0.230060 -0.622972
O9    O     O_R   0.392670 0.775850 0.275850 -0.620985
O10   O     O_R   0.392670 0.775850 0.724150 -0.619754
O11   O     O_R   0.607330 0.775850 0.275850 -0.619764
O12   O     O_R   0.500000 0.730040 0.678340 -0.624906
O13   O     O_R   0.607330 0.775850 0.724150 -0.620743
O14   O     O_R   0.892670 0.275850 0.275850 -0.620960
O15   O     O_R   0.892670 0.275850 0.724150 -0.619075
O16   O     O_R   0.107330 0.275850 0.275850 -0.619823
O17   O     O_R   0.107330 0.275850 0.724150 -0.621152
O18   O     O_R   0.892670 0.775850 0.775850 -0.621601
O19   O     O_R   0.892670 0.775850 0.224150 -0.620969
O20   O     O_R   0.107330 0.775850 0.775850 -0.618839
O21   O     O_R   0.107330 0.775850 0.224150 -0.619545
O22   O     O_R   0.392670 0.275850 0.775850 -0.620409
O23   O     O_R   0.000000 0.230040 0.321660 -0.624881
O24   O     O_R   0.392670 0.275850 0.224150 -0.621012
O25   O     O_R   0.607330 0.275850 0.775850 -0.620725
O26   O     O_R   0.607330 0.275850 0.224150 -0.619735
O27   O     O_R   0.392690 0.724130 0.224130 -0.619440
O28   O     O_R   0.392690 0.724130 0.775870 -0.620638
O29   O     O_R   0.607310 0.724130 0.224130 -0.620996
O30   O     O_R   0.607310 0.724130 0.775870 -0.620320
O31   O     O_R   0.892690 0.224130 0.224130 -0.619547
O32   O     O_R   0.892690 0.224130 0.775870 -0.620528
O33   O     O_R   0.107310 0.224130 0.224130 -0.620808
O34   O     O_R   0.000000 0.230040 0.678340 -0.624790
O35   O     O_R   0.107310 0.224130 0.775870 -0.620035
O36   O     O_R   0.892690 0.724130 0.724130 -0.617696
O37   O     O_R   0.892690 0.724130 0.275870 -0.619553
O38   O     O_R   0.107310 0.724130 0.724130 -0.622859
O39   O     O_R   0.107310 0.724130 0.275870 -0.620912
O40   O     O_R   0.392690 0.224130 0.724130 -0.620692
O41   O     O_R   0.392690 0.224130 0.275870 -0.619503
O42   O     O_R   0.607310 0.224130 0.724130 -0.619621
O43   O     O_R   0.607310 0.224130 0.275870 -0.620868
O44   O     O_R   0.500000 0.821650 0.230050 -0.623448
O45   O     O_R   1.000000 0.730040 0.821660 -0.624177
O46   O     O_R   0.500000 0.821650 0.769950 -0.623515
O47   O     O_R   0.000000 0.321650 0.230050 -0.623462
O48   O     O_R   1.000000 0.321650 0.769950 -0.626166
O49   O     O_R   0.000000 0.821650 0.730050 -0.623475
O50   O     O_R   0.000000 0.821650 0.269950 -0.623456
O51   O     O_R   0.500000 0.321650 0.730050 -0.623516
O52   O     O_R   0.500000 0.321650 0.269950 -0.623476
O53   O     O_R   0.500000 0.769930 0.178330 -0.630402
O54   O     O_R   0.500000 0.769930 0.821670 -0.630278
O55   O     O_R   0.000000 0.269930 0.178330 -0.630304
O56   O     O_R   1.000000 0.730040 0.178340 -0.624831
O57   O     O_R   1.000000 0.269930 0.821670 -0.626621
O58   O     O_R   0.000000 0.769930 0.678330 -0.630464
O59   O     O_R   0.000000 0.769930 0.321670 -0.630418
O60   O     O_R   0.500000 0.269930 0.678330 -0.630396
O61   O     O_R   0.500000 0.269930 0.321670 -0.630400
O62   O     O_R   0.439370 0.954170 0.954170 -0.626590
O63   O     O_R   0.439370 0.954170 0.045830 -0.618882
O64   O     O_R   0.560630 0.954170 0.954170 -0.619203
O65   O     O_R   0.560630 0.954170 0.045830 -0.626842
O66   O     O_R   0.939370 0.454170 0.954170 -0.623730
O67   O     O_R   0.500000 0.230040 0.821660 -0.625012
O68   O     O_R   0.939370 0.454170 0.045830 -0.619172
O69   O     O_R   0.060630 0.454170 0.954170 -0.621916
O70   O     O_R   0.060630 0.454170 0.045830 -0.626937
O71   O     O_R   0.939370 0.954170 0.454170 -0.619118
O72   O     O_R   0.939370 0.954170 0.545830 -0.626796
O73   O     O_R   0.060630 0.954170 0.454170 -0.626803
O74   O     O_R   0.060630 0.954170 0.545830 -0.619080
O75   O     O_R   0.439370 0.454170 0.454170 -0.619128
O76   O     O_R   0.439370 0.454170 0.545830 -0.626818
O77   O     O_R   0.560630 0.454170 0.454170 -0.626800
O78   O     O_R   0.500000 0.230040 0.178340 -0.624900
O79   O     O_R   0.560630 0.454170 0.545830 -0.619033
O80   O     O_R   0.439410 0.545780 0.454170 -0.618655
O81   O     O_R   0.439410 0.545780 0.545830 -0.628583
O82   O     O_R   0.560590 0.545780 0.454170 -0.628498
O83   O     O_R   0.560590 0.545780 0.545830 -0.618569
O84   O     O_R   0.939410 0.045780 0.454170 -0.618640
O85   O     O_R   0.939410 0.045780 0.545830 -0.628510
O86   O     O_R   0.060590 0.045780 0.454170 -0.628506
O87   O     O_R   0.060590 0.045780 0.545830 -0.618661
O88   O     O_R   0.939410 0.545780 0.954170 -0.625193
O89   O     O_R   0.500000 0.678320 0.269940 -0.623022
O90   O     O_R   0.939410 0.545780 0.045830 -0.620493
O91   O     O_R   0.060590 0.545780 0.954170 -0.622845
O92   O     O_R   0.060590 0.545780 0.045830 -0.625825
O93   O     O_R   0.439410 0.045780 0.954170 -0.628462
O94   O     O_R   0.439410 0.045780 0.045830 -0.618681
O95   O     O_R   0.560590 0.045780 0.954170 -0.618637
O96   O     O_R   0.560590 0.045780 0.045830 -0.628447
Zn1   Zn    Zn3+2 0.500000 0.784520 0.284530 0.950701
Zn2   Zn    Zn3+2 0.500000 0.715450 0.784540 0.954051
Zn3   Zn    Zn3+2 0.000000 0.215450 0.215460 0.955023
Zn4   Zn    Zn3+2 0.000000 0.215450 0.784540 0.956281
Zn5   Zn    Zn3+2 0.000000 0.715450 0.715460 0.955270
Zn6   Zn    Zn3+2 0.000000 0.715450 0.284540 0.954794
Zn7   Zn    Zn3+2 0.500000 0.215450 0.715460 0.954814
Zn8   Zn    Zn3+2 0.500000 0.215450 0.284540 0.954748
Zn9   Zn    Zn3+2 0.419100 0.999980 0.000000 0.949011
Zn10  Zn    Zn3+2 0.580900 0.999980 0.000000 0.948603
Zn11  Zn    Zn3+2 0.919100 0.499980 0.000000 0.948900
Zn12  Zn    Zn3+2 0.500000 0.784520 0.715470 0.950634
Zn13  Zn    Zn3+2 0.080900 0.499980 0.000000 0.946079
Zn14  Zn    Zn3+2 0.919100 0.999980 0.500000 0.948557
Zn15  Zn    Zn3+2 0.080900 0.999980 0.500000 0.948558
Zn16  Zn    Zn3+2 0.419100 0.499980 0.500000 0.948414
Zn17  Zn    Zn3+2 0.580900 0.499980 0.500000 0.948714
Zn18  Zn    Zn3+2 0.000000 0.284520 0.284530 0.950680
Zn19  Zn    Zn3+2 0.000000 0.284520 0.715470 0.949765
Zn20  Zn    Zn3+2 1.000000 0.784520 0.784530 0.951929
Zn21  Zn    Zn3+2 1.000000 0.784520 0.215470 0.950983
Zn22  Zn    Zn3+2 0.500000 0.284520 0.784530 0.949892
Zn23  Zn    Zn3+2 0.500000 0.284520 0.215470 0.950418
Zn24  Zn    Zn3+2 0.500000 0.715450 0.215460 0.954789

loop_
_geom_bond_atom_site_label_1
_geom_bond_atom_site_label_2
_ccdc_geom_bond_type
C61   C70   A    
C111  C191  S    
C7    C60   S    
O48   Zn19  S    
C74   C83   A    
O64   Zn10  S    
C45   C200  S    
C90   H42   S    
C120  C196  S    
C113  H44   S    
C124  C133  S    
C134  H71   S    
C16   C144  S    
C131  H65   S    
C110  H125  S    
O94   Zn9   S    
C73   C143  S    
C15   H106  S    
C184  C193  S    
C10   H98   S    
O91   Zn13  S    
C166  H86   S    
C11   C192  S    
C2    C90   S    
C71   C80   A    
C87   H118  S    
C65   C131  S    
C205  O35   A    
C6    O25   A    
C162  C171  A    
C125  H54   S    
C128  H57   S    
O9    Zn1   S    
O50   Zn21  S    
C105  H111  S    
C23   C179  S    
C88   C97   A    
C201  O13   A    
C123  C131  S    
C21   C177  S    
C197  O27   A    
C203  O15   A    
C106  H114  S    
C133  H68   S    
C88   H2    S    
C4    C56   S    
C46   C124  S    
C23   O77   A    
C20   O70   A    
C158  C167  A    
C72   C132  S    
C16   H105  S    
C21   O71   A    
C166  C174  A    
C150  C159  A    
C29   C99   S    
C135  H72   S    
C79   H38   S    
C105  C189  S    
C137  C146  A    
C14   H101  S    
C25   C178  S    
C42   O52   A    
C84   H85   S    
C118  H20   S    
C82   C91   A    
C142  C151  A    
C93   C102  A    
C101  H45   S    
C205  O17   A    
C15   C142  S    
C181  C190  S    
C13   C63   A    
C90   H39   S    
O19   Zn21  S    
O78   Zn23  S    
C40   C150  S    
C164  C173  A    
C43   C197  S    
C37   C147  S    
C163  C172  A    
C38   C148  S    
O59   Zn6   S    
C197  O9    A    
C173  C182  A    
O24   Zn23  S    
C165  O6    A    
O38   Zn5   S    
C29   O85   A    
C79   C127  S    
C27   C97   S    
O15   Zn19  S    
C113  H46   S    
C187  O8    A    
C134  H69   S    
C111  H128  S    
C10   C191  S    
O96   Zn10  S    
C47   C52   T    
C41   C151  S    
O92   Zn13  S    
C1    C70   S    
O65   Zn10  S    
C107  H115  S    
C112  O12   A    
C176  O7    A    
O55   Zn3   S    
C80   C88   A    
O10   Zn12  S    
O11   Zn1   S    
C12   H100  S    
C128  H59   S    
C126  H55   S    
C119  C195  S    
C84   C93   A    
C155  H75   S    
C138  C182  A    
C19   C174  S    
C117  C193  S    
C86   C95   A    
C119  H21   S    
C178  C186  A    
C176  O67   A    
O6    Zn6   S    
C6    O42   A    
C200  O29   A    
O29   Zn24  S    
C10   C138  S    
C34   O53   A    
C76   C85   A    
C206  O36   A    
C121  H30   S    
O26   Zn23  S    
C78   C87   A    
O74   Zn15  S    
C143  O4    A    
C135  H70   S    
C114  H6    S    
C69   C77   A    
C22   C175  S    
C86   H107  S    
C123  H49   S    
O68   Zn11  S    
C96   C198  A    
C110  H127  S    
C199  O10   A    
C5    C58   S    
C180  C189  S    
O22   Zn22  S    
C89   H13   S    
O27   Zn24  S    
C75   C84   A    
C137  C181  A    
O83   Zn17  S    
C30   C100  S    
C127  H56   S    
C74   C154  S    
C107  H117  S    
O58   Zn5   S    
C40   O50   A    
C111  H4    S    
C9    H92   S    
O72   Zn14  S    
C170  H90   S    
C3    C55   S    
C172  C181  A    
C122  H32   S    
C20   C173  S    
O90   Zn11  S    
C108  H120  S    
C64   C73   A    
C116  H12   S    
C149  C158  A    
C152  C161  A    
C116  C194  S    
C29   O87   A    
C30   O88   A    
C201  O30   A    
C79   C198  S    
O63   Zn9   S    
C108  C190  S    
C203  O32   A    
C1    O89   A    
C38   O57   A    
C141  C150  A    
C122  H33   S    
C26   C96   S    
C139  C148  A    
C11   H99   S    
C113  C130  S    
O66   Zn11  S    
C67   C134  S    
O47   Zn18  S    
C164  H84   S    
O45   Zn20  S    
C155  C163  A    
O52   Zn23  S    
C12   H102  S    
C65   C74   A    
C126  H53   S    
C82   H63   S    
C161  H81   S    
C120  H25   S    
C121  H28   S    
C71   C112  S    
O2    Zn2   S    
C129  H60   S    
O89   Zn24  S    
O76   Zn16  S    
C43   C55   T    
O33   Zn3   S    
C64   C130  S    
O53   Zn24  S    
C54   C208  S    
C208  O38   A    
C106  C190  S    
C35   C100  A    
C40   O59   A    
C5    O41   A    
C109  H123  S    
C167  C175  A    
C8    H93   S    
C14   C194  S    
C6    C59   S    
C112  O2    A    
C25   O79   A    
C51   C205  S    
C26   O80   A    
C61   C127  S    
C119  H23   S    
O87   Zn15  S    
C39   C149  S    
C49   C59   T    
C28   O86   A    
C89   C98   A    
O61   Zn8   S    
O17   Zn19  S    
C35   C123  S    
C204  O33   A    
C5    O24   A    
C15   C195  S    
C9    H94   S    
C110  H126  S    
C83   H74   S    
C95   H37   S    
O95   Zn10  S    
C62   C71   A    
C148  C157  A    
C116  H14   S    
O40   Zn7   S    
C22   O72   A    
C44   C54   T    
C69   C135  S    
C117  H16   S    
C91   C99   A    
C1    O1    A    
C140  C149  A    
C17   O62   A    
C101  C129  S    
C125  C134  S    
C49   C203  S    
C11   H97   S    
C105  H109  S    
C8    C136  S    
C12   C193  S    
C185  C194  S    
C183  C192  S    
C17   C172  S    
C18   C171  S    
C140  C184  A    
C132  O3    A    
C154  O5    A    
O77   Zn17  S    
C207  O37   A    
C46   C66   A    
C120  H27   S    
O7    Zn7   S    
O8    Zn8   S    
C35   C65   A    
C168  C177  A    
C33   C104  S    
C177  C185  A    
C22   O74   A    
O4    Zn4   S    
C11   C139  S    
C34   O44   A    
C129  H62   S    
C9    C137  S    
C36   O46   A    
C146  C155  A    
C2    C97   A    
C68   C69   A    
C160  C169  A    
C12   C140  S    
C115  H10   S    
C202  O14   A    
C123  H47   S    
C72   C81   A    
O32   Zn4   S    
C81   C89   A    
C15   H104  S    
C124  H50   S    
C24   C64   A    
O31   Zn3   S    
C101  H43   S    
O20   Zn20  S    
C57   C103  A    
C30   O91   A    
O60   Zn7   S    
C50   C58   T    
C132  O23   A    
C76   C176  S    
C93   H35   S    
C10   H95   S    
C156  H76   S    
C130  H61   S    
C4    O40   A    
C157  H77   S    
C118  H18   S    
C37   O47   A    
O39   Zn6   S    
C206  O18   A    
C31   C102  S    
C16   C196  S    
C23   O75   A    
C8    C189  S    
C117  H17   S    
O51   Zn22  S    
C20   O68   A    
O85   Zn14  S    
C32   C103  S    
O18   Zn20  S    
C208  O20   A    
C147  C156  A    
O44   Zn1   S    
C17   O64   A    
C18   O63   A    
C94   C103  A    
C106  H113  S    
C31   O92   A    
C9    C190  S    
C73   C82   A    
C16   H108  S    
C28   C98   S    
C202  O31   A    
O79   Zn17  S    
O62   Zn9   S    
C136  C180  A    
C81   H52   S    
C27   O83   A    
O14   Zn18  S    
C114  H7    S    
C68   C104  A    
C162  H82   S    
C154  O45   A    
C4    O22   A    
C61   C198  A    
C37   O55   A    
C179  C188  A    
C118  H19   S    
C170  C179  A    
O69   Zn13  S    
O3    Zn3   S    
C153  C162  A    
C3    O21   A    
O1    Zn1   S    
C151  C160  A    
C25   O76   A    
C57   C125  S    
C66   C75   A    
O82   Zn17  S    
C115  H8    S    
C63   C129  S    
C118  C194  S    
C187  O78   A    
C111  H3    S    
C39   O58   A    
C19   O66   A    
O73   Zn15  S    
C85   H96   S    
C63   C72   A    
C144  C152  A    
C41   O51   A    
O67   Zn22  S    
O93   Zn9   S    
C174  C183  A    
C121  C195  S    
C163  H83   S    
C175  C184  A    
C127  H58   S    
C48   C202  S    
C70   C78   A    
C24   C99   A    
C124  H48   S    
C42   O61   A    
C7    O26   A    
C33   O94   A    
C46   C102  A    
C28   O84   A    
C3    O39   A    
C52   C206  S    
C107  H116  S    
C51   C56   T    
C34   C145  S    
O21   Zn21  S    
C159  C168  A    
C47   C201  S    
O86   Zn15  S    
C13   C98   A    
C94   H36   S    
C119  H22   S    
C120  H26   S    
C92   H34   S    
O71   Zn14  S    
C7    O43   A    
C36   O54   A    
C38   O48   A    
C108  H121  S    
O23   Zn18  S    
C42   C152  S    
C32   O93   A    
O35   Zn4   S    
C145  C153  A    
O16   Zn18  S    
C115  C193  S    
C165  O56   A    
C24   C113  S    
O36   Zn5   S    
C114  H5    S    
C107  C189  S    
C57   C67   A    
O81   Zn16  S    
O84   Zn14  S    
C207  O19   A    
C109  H122  S    
C19   O69   A    
C48   C60   T    
C167  H87   S    
C142  C186  A    
C168  H88   S    
C114  C192  S    
O34   Zn19  S    
C153  H73   S    
C186  C195  S    
O80   Zn16  S    
C75   C165  S    
C204  O16   A    
C21   O73   A    
O37   Zn6   S    
C159  H79   S    
C160  H80   S    
C131  H67   S    
O43   Zn8   S    
C66   C133  S    
C130  H64   S    
C85   C94   A    
C122  H31   S    
C8    H91   S    
C138  C147  A    
C18   O65   A    
C87   C96   A    
C108  H119  S    
O28   Zn2   S    
O30   Zn2   S    
C199  O28   A    
O54   Zn2   S    
C116  H11   S    
C78   H1    S    
C156  C164  A    
O56   Zn21  S    
C161  C170  A    
C36   C146  S    
O25   Zn22  S    
C31   O90   A    
C77   C86   A    
C80   H41   S    
O41   Zn8   S    
C77   C187  S    
C171  C180  A    
C117  H15   S    
C141  C185  A    
C13   C101  S    
C68   C126  S    
C169  C178  A    
O49   Zn20  S    
C139  C183  A    
C95   C104  A    
C92   C100  A    
C144  C188  A    
C158  H78   S    
C33   O96   A    
O42   Zn7   S    
C41   O60   A    
O5    Zn5   S    
C133  H66   S    
C200  O11   A    
C136  C145  A    
C122  C196  S    
C157  C166  A    
C126  C135  S    
O12   Zn12  S    
C50   C204  S    
C125  H51   S    
C91   H24   S    
C79   H40   S    
O46   Zn12  S    
C14   H103  S    
C143  O34   A    
O70   Zn13  S    
C62   C128  S    
O57   Zn4   S    
C109  C191  S    
C121  H29   S    
C105  H110  S    
C110  C192  S    
C106  H112  S    
C53   C207  S    
C32   O95   A    
C14   C141  S    
O75   Zn16  S    
C45   C53   T    
O13   Zn12  S    
C188  C196  S    
C44   C199  S    
C83   C92   A    
C182  C191  S    
O88   Zn11  S    
C90   C128  S    
C115  H9    S    
C67   C76   A    
C39   O49   A    
C169  H89   S    
C26   O82   A    
C109  H124  S    
C27   O81   A    
C2    C62   A    
