data_mof_unit_51194.cif
_audit_creation_date              2012-12-10T19:44:32-0500
_audit_creation_method            fapswitch 2.2
_symmetry_space_group_name_H-M    P1
_symmetry_Int_Tables_number       1
_space_group_crystal_system       triclinic
_cell_length_a                    8.546817
_cell_length_b                    14.903311
_cell_length_c                    14.213959
_cell_angle_alpha                 90.602848
_cell_angle_beta                  96.02492
_cell_angle_gamma                 90.281087
_cell_volume                      1800.38219754

loop_
_atom_site_label
_atom_site_type_symbol
_atom_type_description
_atom_site_fract_x
_atom_site_fract_y
_atom_site_fract_z
_atom_type_partial_charge
C1    C     C_R   0.514079 0.327850 0.499838 0.935289
C2    C     C_R   0.490696 0.672634 0.500448 0.943322
C3    C     C_R   0.360699 0.494852 0.095884 -0.181789
C4    C     C_R   0.576287 0.563817 0.901894 -0.246104
C5    C     C_R   0.362504 0.491672 0.194887 0.062376
C6    C     C_R   0.581313 0.562951 0.803242 0.047579
C7    C     C_R   0.638706 0.511657 0.212292 -0.020967
C8    C     C_R   0.411265 0.436496 0.788088 -0.034401
C9    C     C_R   0.644912 0.496659 0.113433 0.310922
C10   C     C_R   0.419661 0.427621 0.888161 0.323225
C11   C     C_R   0.502233 0.494998 0.053127 0.009310
C12   C     C_R   0.498385 0.495014 0.946509 0.060137
C13   C     C_R   0.202873 0.494862 0.477289 0.946519
C14   C     C_R   0.797287 0.504708 0.522901 0.942577
C15   C     C_2   0.042601 0.474932 0.472350 -0.266933
C16   C     C_2   0.958118 0.523460 0.529013 -0.271794
C17   C     C_R   0.594376 0.097193 0.590546 0.321823
C18   C     C_R   0.453573 0.907407 0.413442 0.410313
C19   C     C_R   0.577340 0.189580 0.587031 -0.194467
C20   C     C_R   0.455847 0.814398 0.415494 -0.200365
C21   C     C_R   0.553369 0.232769 0.499746 -0.142643
C22   C     C_R   0.469575 0.769547 0.501856 -0.173906
C23   C     C_R   0.579794 0.184044 0.416416 -0.033060
C24   C     C_R   0.456409 0.819183 0.586319 -0.026328
C25   C     C_R   0.589546 0.091294 0.421849 -0.129397
C26   C     C_R   0.466414 0.911872 0.583014 -0.141804
C27   C     C_R   0.562174 0.047636 0.504951 0.017196
C28   C     C_R   0.494889 0.955129 0.499667 -0.017225
H1    H     H_    0.589021 0.227809 0.652670 0.229634
H2    H     H_    0.439333 0.777157 0.349250 0.221326
H3    H     H_    0.612345 0.053281 0.359966 0.214353
H4    H     H_    0.452215 0.949807 0.646312 0.221544
H5    H     H_    0.248672 0.493891 0.052562 0.227855
H6    H     H_    0.637486 0.616771 0.943833 0.199818
H7    H     H_    0.252209 0.486079 0.225215 0.223616
H8    H     H_    0.647200 0.614269 0.770952 0.179367
N1    N     N_R   0.500000 0.499980 0.252470 -0.153440
N2    N     N_R   0.500000 0.500020 0.747530 -0.151413
O1    O     O_R   0.500010 0.369070 0.579480 -0.618684
O2    O     O_R   0.499990 0.630930 0.420520 -0.591904
O3    O     O_R   0.500010 0.369060 0.420520 -0.592607
O4    O     O_R   0.499990 0.630940 0.579480 -0.611066
O5    O     O_R   0.271750 0.500000 0.560890 -0.610534
O6    O     O_R   0.728250 0.500000 0.439110 -0.624107
O7    O     O_R   0.271750 0.499990 0.401930 -0.590678
O8    O     O_R   0.728250 0.500010 0.598070 -0.571137
Zn1   Zn    Zn3+2 0.500000 0.500010 0.606140 1.044695
Zn2   Zn    Zn3+2 0.500000 0.499990 0.393860 1.050380
C29   C     C_2   0.994004 0.385817 0.429134 0.980433
O9    O     O_2   0.905393 0.336601 0.467360 -0.613010
O10   O     O_R   0.058457 0.356189 0.347914 -0.726540
H9    H     H_    0.020304 0.293984 0.326637 0.378261
C30   C     C_2   0.009038 0.610583 0.576128 0.970392
O11   O     O_2   0.096472 0.661598 0.539243 -0.605742
O12   O     O_R   0.949454 0.635877 0.660364 -0.758462
H10   H     H_    0.989170 0.696974 0.684473 0.379387
S1    S     S_3+6 0.698840 0.053802 0.694804 0.079827
O13   O     O_2   0.771480 0.964856 0.674930 -0.224174
O14   O     O_2   0.827942 0.118337 0.730399 -0.224257
O15   O     O_3   0.577302 0.041797 0.779592 -0.478843
H11   H     H_    0.530388 0.101835 0.786508 0.381907
S2    S     S_3+6 0.353007 0.955476 0.310375 0.056504
O16   O     O_2   0.463647 0.965148 0.235522 -0.249753
O17   O     O_2   0.220281 0.894056 0.272909 -0.241961
O18   O     O_3   0.277280 0.055894 0.335299 -0.536747
H12   H     H_    0.229582 0.078589 0.273652 0.416400
C31   C     C_2   0.595348 0.223993 0.322563 0.982326
O19   O     O_2   0.683705 0.287636 0.315098 -0.570338
O20   O     O_R   0.515713 0.184563 0.241487 -0.731134
H13   H     H_    0.539775 0.215314 0.181378 0.394402
C32   C     C_2   0.433803 0.779541 0.679247 0.963462
O21   O     O_2   0.328812 0.724745 0.685985 -0.579567
O22   O     O_R   0.527928 0.808914 0.760213 -0.729544
H14   H     H_    0.500386 0.778153 0.819645 0.351270
C33   C     C_2   0.770845 0.559653 0.266708 1.013379
O23   O     O_2   0.903866 0.529307 0.273376 -0.561397
O24   O     O_R   0.742812 0.642092 0.309302 -0.780109
H15   H     H_    0.841174 0.669030 0.345008 0.349174
C34   C     C_2   0.287966 0.386300 0.728645 1.055383
O25   O     O_2   0.156994 0.418981 0.713401 -0.599039
O26   O     O_R   0.316508 0.300155 0.695175 -0.762365
H16   H     H_    0.221238 0.272924 0.656495 0.353806
S3    S     S_3+6 0.828843 0.475966 0.067901 0.070293
O27   O     O_2   0.914276 0.563780 0.061523 -0.326700
O28   O     O_2   0.927326 0.414949 0.133211 -0.183494
O29   O     O_3   0.805457 0.425735 0.960670 -0.493524
H17   H     H_    0.890188 0.450442 0.925878 0.403718
S4    S     S_3+6 0.336593 0.330782 0.937743 0.074458
O30   O     O_2   0.412720 0.312825 0.035791 -0.268890
O31   O     O_2   0.163486 0.345601 0.941132 -0.260014
O32   O     O_3   0.362006 0.239324 0.871012 -0.506648
H18   H     H_    0.299814 0.191364 0.897674 0.411041

loop_
_geom_bond_atom_site_label_1
_geom_bond_atom_site_label_2
_ccdc_geom_bond_type
C25   H3    S    
O12   H10   S    
C1    C21   S    
C5    N1    A    
O22   H14   S    
O26   H16   S    
C14   O8    A    
C20   H2    S    
O24   H15   S    
C26   H4    S    
C10   S4    S    
O1    Zn1   S    
C19   C21   A    
C24   C26   A    
S1    O14   D    
C3    H5    S    
C15   C16   D    
O2    Zn2   S    
C23   C31   S    
C16   C30   S    
S2    O17   D    
C29   O10   S    
C2    C22   S    
C8    C34   S    
C6    N2    A    
C4    C12   A    
C18   C20   A    
C23   C25   A    
C8    N2    A    
C30   O12   S    
C4    H6    S    
O10   H9    S    
C17   C27   A    
C18   C28   A    
C4    C6    A    
O32   H18   S    
C34   O26   S    
O29   H17   S    
C18   S2    S    
S1    O15   S    
C7    C33   S    
C30   O11   D    
C31   O19   D    
O15   H11   S    
C31   O20   S    
C33   O23   D    
S2    O16   D    
C33   O24   S    
S3    O27   D    
S4    O32   S    
C7    N1    A    
N1    Zn2   S    
C9    C11   A    
N2    Zn1   S    
C10   C12   A    
C9    S3    S    
C1    O3    A    
S3    O28   D    
S4    O31   D    
O18   H12   S    
C13   C15   S    
C14   C16   S    
C19   H1    S    
C13   O5    A    
C14   O6    A    
O7    Zn2   S    
C7    C9    A    
O8    Zn1   S    
S2    O18   S    
C20   C22   A    
C3    C5    A    
C11   C12   S    
C25   C27   A    
C26   C28   A    
C21   C23   A    
C32   O21   D    
C13   O7    A    
S1    O13   D    
C2    O4    A    
C5    H7    S    
C17   C19   A    
O3    Zn2   S    
C6    H8    S    
C22   C24   A    
O4    Zn1   S    
C15   C29   S    
O20   H13   S    
C3    C11   A    
C1    O1    A    
C34   O25   D    
C2    O2    A    
S3    O29   S    
S4    O30   D    
C8    C10   A    
C29   O9    D    
C32   O22   S    
C27   C28   S    
O5    Zn1   S    
O6    Zn2   S    
C24   C32   S    
C17   S1    S    
