data_mof_unit_67304.cif
_audit_creation_date              2013-03-05T16:02:17-0500
_audit_creation_method            fapswitch 2.2
_symmetry_space_group_name_H-M    P1
_symmetry_Int_Tables_number       1
_space_group_crystal_system       triclinic
_cell_length_a                    8.475849
_cell_length_b                    14.901688
_cell_length_c                    15.18609
_cell_angle_alpha                 97.130147
_cell_angle_beta                  98.092696
_cell_angle_gamma                 93.056451
_cell_volume                      1879.38583868

loop_
_atom_site_label
_atom_site_type_symbol
_atom_site_description
_atom_site_fract_x
_atom_site_fract_y
_atom_site_fract_z
_atom_type_partial_charge
P1    P     P_3+3 0.018600 0.416790 0.295970 0.548978
O1    O     O_2   0.841230 0.444160 0.280430 -0.314677
O2    O     O_3   0.112860 0.447350 0.393710 -0.371614
O3    O     O_3   0.597940 0.615700 0.327690 -0.383219
O4    O     O_2   0.690755 0.543962 0.176570 -0.400326
O5    O     O_3   0.942631 0.304131 0.289194 -0.569701
O6    O     O_3   0.570279 0.699531 0.172996 -0.517324
H1    H     H_    0.666516 0.769595 0.298092 0.145147
C1    C     C_3   0.558875 0.860115 0.212473 -0.851659
H2    H     H_    0.675502 0.879188 0.192763 0.277549
P2    P     P_3+3 0.635660 0.716530 0.560900 0.482469
P3    P     P_3+3 0.043484 0.779815 0.361795 0.509834
O7    O     O_2   0.802240 0.729740 0.532850 -0.364708
O8    O     O_3   0.017180 0.664790 0.371080 -0.343406
O9    O     O_2   0.941238 0.823905 0.429759 -0.327147
O10   O     O_3   0.663303 0.743069 0.679070 -0.600105
O11   O     O_3   0.935735 0.797923 0.256758 -0.557002
C2    C     C_3   0.025583 0.793066 0.184095 0.142351
H3    H     H_    0.109853 0.853533 0.191173 0.106188
C3    C     C_3   0.911369 0.786278 0.093614 -0.687649
H4    H     H_    0.794852 0.751865 0.099099 0.251782
C4    C     C_3   0.329324 0.743985 0.713581 0.299395
H5    H     H_    0.398231 0.698196 0.674054 0.147854
C5    C     C_3   0.421188 0.772946 0.809426 -0.744525
H6    H     H_    0.479339 0.714320 0.833843 0.185364
Ba1   Ba    Ba6+2 0.833400 0.543310 0.453520 1.667162
C6    C     C_3   0.048179 0.235393 0.286412 0.233621
C7    C     C_3   0.181439 0.250557 0.230496 -0.800578
H7    H     H_    0.138331 0.264717 0.161956 0.277709
H8    H     H_    0.242962 0.187577 0.221147 0.263086
C8    C     C_3   0.822686 0.757517 0.721312 0.437629
H9    H     H_    0.905473 0.723133 0.680867 0.160387
C9    C     C_3   0.835748 0.717259 0.809785 -1.036417
H10   H     H_    0.775013 0.757533 0.859866 0.270621
H11   H     H_    0.963021 0.715257 0.838970 0.234784
H12   H     H_    0.777200 0.647846 0.798196 0.266809
P4    P     P_3+3 0.171090 0.583290 0.704030 0.512001
O12   O     O_2   0.348480 0.555870 0.719620 -0.377120
O13   O     O_3   0.076830 0.552730 0.606300 -0.356177
O14   O     O_3   0.591760 0.384380 0.672320 -0.407707
O15   O     O_3   0.178632 0.702541 0.717616 -0.602151
P5    P     P_3+3 0.153869 0.218571 0.633635 0.549349
O16   O     O_3   0.629090 0.386350 0.459240 -0.405657
O17   O     O_3   0.172520 0.335290 0.628920 -0.255448
O18   O     O_2   0.289181 0.179843 0.585284 -0.371103
O19   O     O_3   0.228021 0.211939 0.745764 -0.465603
Ba2   Ba    Ba6+2 0.356420 0.456770 0.546480 1.670673
P6    P     P_3+3 0.551242 0.593314 0.210768 0.498943
C10   C     C_3   0.561711 0.767840 0.245043 0.513101
H13   H     H_    0.452014 0.756670 0.275421 0.058008
O20   O     O_3   0.560610 0.613730 0.540770 -0.372009
C11   C     C_3   0.577565 0.214542 0.263214 0.178769
C12   C     C_3   0.552149 0.112988 0.226580 -0.718410
H14   H     H_    0.579201 0.071639 0.281767 0.267212
H15   H     H_    0.427751 0.094084 0.193951 0.280302
P7    P     P_3+3 0.558030 0.267176 0.435754 0.460698
O21   O     O_2   0.387460 0.270290 0.467210 -0.294080
O22   O     O_3   0.473436 0.233517 0.324597 -0.597673
C13   C     C_3   0.122128 0.158058 0.783169 0.153863
H16   H     H_    0.123691 0.085890 0.754209 0.171884
C14   C     C_3   0.177194 0.167584 0.884792 -0.648353
H17   H     H_    0.299985 0.145285 0.896784 0.206251
P8    P     P_3+3 0.627712 0.400167 0.789725 0.514151
C15   C     C_3   0.653595 0.229470 0.749533 0.378976
O23   O     O_2   0.480068 0.443202 0.821265 -0.356704
O24   O     O_3   0.618785 0.290859 0.821404 -0.469795
C16   C     C_3   0.687855 0.137599 0.779418 -0.849877
C17   C     C_R   0.823115 0.467959 0.835356 0.089371
C18   C     C_R   0.887674 0.480205 0.927252 0.004893
C19   C     C_R   0.034948 0.453514 0.103353 -0.037907
C20   C     C_R   0.874179 0.420151 0.066650 -0.044355
C21   C     C_R   0.798259 0.454004 0.991018 -0.184612
C22   C     C_R   0.111743 0.450019 0.195192 0.211719
H18   H     H_    0.670855 0.438883 0.972144 0.203781
C23   C     C_R   0.271971 0.484361 0.218891 -0.313672
C24   C     C_R   0.074104 0.534799 0.797547 0.146255
C25   C     C_R   0.143079 0.539102 0.890413 -0.029435
C26   C     C_R   0.051321 0.506713 0.954008 0.097666
C27   C     C_R   0.301763 0.570233 0.921654 -0.042403
C28   C     C_R   0.371452 0.566097 0.009821 -0.046572
C29   C     C_R   0.285552 0.530013 0.071887 0.005654
C30   C     C_R   0.123702 0.497406 0.043736 0.086116
C31   C     C_R   0.356495 0.528112 0.161683 0.330814
C32   C     C_R   0.919725 0.493630 0.773421 -0.426061
H19   H     H_    0.496107 0.589302 0.027617 0.156297
H20   H     H_    0.376250 0.595954 0.877955 0.153394
H21   H     H_    0.331706 0.479598 0.285668 0.166590
C33   C     C_R   0.712049 0.938842 0.539293 -0.102607
C34   C     C_R   0.515723 0.801239 0.495267 0.072703
C35   C     C_R   0.365657 0.768700 0.445888 -0.394520
C36   C     C_R   0.258335 0.824259 0.402598 0.070516
C37   C     C_R   0.309408 0.913947 0.398033 -0.254776
C38   C     C_R   0.458605 0.951787 0.446211 0.030640
C39   C     C_R   0.563368 0.896449 0.495025 0.068676
C40   C     C_R   0.644999 0.087673 0.493822 0.032315
C41   C     C_R   0.754605 0.032617 0.538212 0.143739
C42   C     C_R   0.685334 0.182698 0.494559 0.130831
C43   C     C_R   0.837702 0.217271 0.537571 -0.339819
C44   C     C_R   0.949230 0.164472 0.581113 0.168206
C45   C     C_R   0.906725 0.071739 0.580231 -0.353455
C46   C     C_R   0.501178 0.045486 0.447868 -0.181313
H22   H     H_    0.992738 0.029756 0.611215 0.175802
H23   H     H_    0.796956 0.899027 0.573562 0.159208
H24   H     H_    0.422645 0.086853 0.412075 0.223430
H25   H     H_    0.519872 0.824414 0.808991 0.244552
C47   C     C_2   0.317245 0.811494 0.875024 1.173340
O25   O     O_2   0.242962 0.877254 0.860094 -0.568678
O26   O     O_R   0.308845 0.773403 0.953881 -0.785636
H26   H     H_    0.235750 0.805642 0.992742 0.350508
C48   C     C_2   0.951193 0.148035 0.246825 0.996199
O27   O     O_2   0.868696 0.110362 0.293166 -0.719579
O28   O     O_R   0.960139 0.107503 0.160125 -0.725182
H27   H     H_    0.886135 0.050686 0.143027 0.316526
C49   C     C_2   0.106415 0.223025 0.380386 1.051101
O29   O     O_2   0.084971 0.279357 0.442144 -0.577276
O30   O     O_R   0.166303 0.141146 0.397423 -0.796954
H28   H     H_    0.131037 0.119263 0.452163 0.338981
H29   H     H_    0.263572 0.308725 0.263596 0.201652
C50   C     C_2   0.866437 0.857679 0.743075 1.018346
O31   O     O_2   0.985745 0.891212 0.719908 -0.638741
O32   O     O_R   0.771853 0.912083 0.792278 -0.776068
H30   H     H_    0.818036 0.976993 0.806807 0.330850
H31   H     H_    0.538193 0.911586 0.267928 0.213431
C51   C     C_2   0.533765 0.270941 0.188701 1.031820
O33   O     O_2   0.476571 0.234991 0.113554 -0.589043
O34   O     O_R   0.544195 0.365083 0.206345 -0.780925
H32   H     H_    0.566610 0.387528 0.272879 0.311503
H33   H     H_    0.700748 0.232918 0.294188 0.126190
H34   H     H_    0.629004 0.095493 0.174532 0.225713
H35   H     H_    0.462309 0.859848 0.154854 0.302023
H36   H     H_    0.958953 0.743936 0.038883 0.148874
H37   H     H_    0.999460 0.180024 0.769728 0.015534
C52   C     C_2   0.182494 0.265426 0.926033 1.224264
O35   O     O_2   0.309477 0.304530 0.962533 -0.527582
O36   O     O_R   0.045550 0.313194 0.921430 -0.825215
H38   H     H_    0.946042 0.276855 0.888711 0.300194
C53   C     C_2   0.072246 0.106920 0.927775 0.995035
O37   O     O_2   0.079287 0.024917 0.913430 -0.529881
O38   O     O_R   0.964850 0.143118 0.981873 -0.775292
H39   H     H_    0.885365 0.094916 0.994333 0.357229
H40   H     H_    0.762600 0.254471 0.724076 0.033453
H41   H     H_    0.552034 0.220178 0.693714 0.163987
H42   H     H_    0.735248 0.095617 0.724955 0.153500
C54   C     C_2   0.544870 0.086313 0.800623 1.299998
O39   O     O_2   0.428967 0.065246 0.742797 -0.587022
O40   O     O_R   0.549709 0.057619 0.885095 -0.819739
H43   H     H_    0.451411 0.017991 0.890085 0.347405
C55   C     C_2   0.118275 0.711260 0.177419 0.939983
O41   O     O_2   0.242974 0.714506 0.146679 -0.647472
O42   O     O_R   0.054660 0.629417 0.195719 -0.778634
H44   H     H_    0.940114 0.631609 0.206327 0.361053
H45   H     H_    0.779905 0.147464 0.839364 0.203684
C56   C     C_2   0.807032 0.327050 0.071499 1.115322
O43   O     O_2   0.869138 0.281442 0.124777 -0.654190
O44   O     O_R   0.682693 0.286046 0.005801 -0.714299
H46   H     H_    0.667452 0.218042 0.005387 0.373291
C57   C     C_2   0.857651 0.475853 0.680216 1.101958
O45   O     O_2   0.898640 0.410931 0.634585 -0.653625
O46   O     O_R   0.746033 0.530389 0.644661 -0.746437
H47   H     H_    0.692208 0.498372 0.585199 0.392245
C58   C     C_2   0.315459 0.674444 0.440454 1.111298
O47   O     O_2   0.318712 0.623702 0.371696 -0.665743
O48   O     O_R   0.244511 0.645648 0.509351 -0.756528
H48   H     H_    0.187716 0.584576 0.487704 0.385711
C59   C     C_2   0.210747 0.963535 0.335079 1.040664
O49   O     O_2   0.268972 0.995302 0.275598 -0.668770
O50   O     O_R   0.048290 0.968266 0.339213 -0.717291
H49   H     H_    0.986790 0.973265 0.278241 0.349228
H50   H     H_    0.872558 0.285905 0.531710 0.231266
C60   C     C_2   0.885956 0.875573 0.060373 1.088144
O51   O     O_2   0.000759 0.923728 0.049193 -0.582366
O52   O     O_R   0.730510 0.900065 0.035930 -0.790598
H51   H     H_    0.727635 0.959366 0.009805 0.338682
C61   C     C_2   0.306800 0.824377 0.662879 1.039797
O53   O     O_2   0.412980 0.884928 0.671183 -0.635539
O54   O     O_R   0.167617 0.827169 0.602286 -0.725489
H52   H     H_    0.165286 0.885333 0.574009 0.333169

loop_
_geom_bond_atom_site_label_1
_geom_bond_atom_site_label_2
_geom_bond_distance
_ccdc_geom_bond_type
O14   Ba2   2.909033 S    
C3    C60   1.496166 S    
P8    O23   1.544277 D    
C59   O49   1.220777 D    
O19   C13   1.397432 S    
C11   C51   1.508528 S    
P3    C36   1.894887 S    
C40   C41   1.425767 A    
C16   H42   1.108454 S    
C24   C32   1.395122 A    
C33   C41   1.427138 A    
C49   O29   1.219059 D    
C11   H33   1.088854 S    
C14   C52   1.509460 S    
O36   H38   1.008957 S    
C8    H9    1.101677 S    
C25   C26   1.434452 A    
P7    O21   1.586364 D    
O10   C8    1.404824 S    
C53   O38   1.395482 S    
C57   O45   1.214100 D    
O14   P8    1.749936 S    
C47   O26   1.396353 S    
C51   O34   1.390846 S    
C7    H7    1.103201 S    
P4    O12   1.572552 D    
C55   O42   1.382598 S    
C2    H3    1.104234 S    
C2    C55   1.485753 S    
O46   H47   1.002494 S    
O52   H51   1.012669 S    
Ba1   O13   2.863614 S    
C4    O15   1.401372 S    
C47   O25   1.220174 D    
C20   C56   1.485612 S    
C9    H12   1.105732 S    
O26   H26   1.013513 S    
P1    O1    1.572110 D    
P5    O19   1.746823 S    
C34   C39   1.454878 A    
C26   C30   1.439781 A    
C48   O27   1.222327 D    
C4    C61   1.508771 S    
C61   O53   1.221976 D    
C43   H50   1.067245 S    
C37   C59   1.474955 S    
C23   C31   1.399673 A    
C44   C45   1.407320 A    
C6    C48   1.511376 S    
P7    O22   1.739497 S    
C17   C18   1.411167 A    
P3    O11   1.781624 S    
C8    C9    1.530553 S    
C19   C20   1.435202 A    
C56   O44   1.401209 S    
C1    H2    1.105435 S    
O17   Ba2   2.843428 S    
C50   O32   1.394940 S    
P8    O24   1.755581 S    
C13   H16   1.111689 S    
C59   O50   1.392311 S    
C22   C23   1.406529 A    
C18   C26   1.409996 A    
P5    O17   1.749319 S    
P7    C42   1.923313 S    
C16   C54   1.492892 S    
O28   H27   1.010269 S    
C58   O48   1.378957 S    
Ba1   O16   2.852712 S    
C42   C43   1.402824 A    
C48   O28   1.392726 S    
C12   H15   1.105971 S    
O4    P6    1.542630 D    
C33   C39   1.417837 A    
C13   H37   1.105865 S    
C13   C14   1.534731 S    
C35   C58   1.434671 S    
P1    O5    1.751228 S    
C17   C32   1.405081 A    
C15   C16   1.524492 S    
C1    C10   1.518225 S    
C24   C25   1.440900 A    
O6    C10   1.411491 S    
C21   H18   1.081615 S    
C5    C47   1.502497 S    
C38   C46   1.419648 A    
O50   H49   1.009931 S    
C28   C29   1.408866 A    
Ba2   O20   2.852102 S    
P2    Ba1   3.509559 S    
C12   H14   1.106252 S    
C29   C30   1.418791 A    
P1    O2    1.583768 S    
P5    O18   1.545973 D    
C15   O24   1.409514 S    
C18   C21   1.390494 A    
C28   H19   1.079981 S    
Ba2   O21   2.928676 S    
P2    O10   1.768397 S    
P2    C34   1.945292 S    
O3    Ba1   2.909566 S    
O5    C6    1.396039 S    
P3    O9    1.546668 D    
O38   H39   1.011756 S    
O8    Ba1   2.842843 S    
C19   C22   1.462041 A    
C45   H22   1.081393 S    
O11   C2    1.423185 S    
O12   Ba2   2.862719 S    
C25   C27   1.395864 A    
O1    Ba1   2.862204 S    
C38   C39   1.436139 A    
C5    H6    1.103872 S    
C50   O31   1.219017 D    
C8    C50   1.502845 S    
O32   H30   1.009863 S    
C11   O22   1.385880 S    
Ba1   Ba2   4.637143 S    
C1    H31   1.106244 S    
C54   O40   1.397607 S    
O54   H52   1.013839 S    
P4    C24   1.932565 S    
P3    O8    1.742336 S    
C10   H13   1.108302 S    
C46   H24   1.069395 S    
C52   O35   1.220723 D    
C4    C5    1.549257 S    
O7    Ba1   2.928486 S    
P4    Ba2   3.464195 S    
C3    H36   1.114854 S    
C36   C37   1.395773 A    
C33   H23   1.075869 S    
C11   C12   1.539004 S    
O13   Ba2   3.021726 S    
O40   H43   1.012446 S    
O3    P6    1.749756 S    
C23   H21   1.080227 S    
P8    C17   1.889018 S    
C16   H45   1.101648 S    
C4    H5    1.098417 S    
O2    Ba1   3.020734 S    
C54   O39   1.220881 D    
C29   C31   1.415083 A    
C49   O30   1.385919 S    
C32   C57   1.425758 S    
C40   C42   1.437195 A    
C53   O37   1.220503 D    
P6    C31   1.878045 S    
P1    C22   1.922824 S    
O6    P6    1.756289 S    
C7    H8    1.101285 S    
C56   O43   1.203481 D    
C20   C21   1.399321 A    
P4    O13   1.583641 S    
C58   O47   1.215370 D    
P5    C44   1.896384 S    
P2    O7    1.540841 D    
C14   C53   1.502914 S    
C35   C36   1.411440 A    
P1    Ba1   3.463558 S    
C15   H41   1.109699 S    
O34   H32   1.011991 S    
C15   H40   1.114209 S    
C41   C45   1.416093 A    
O2    Ba2   2.864173 S    
C37   C38   1.418959 A    
C9    H11   1.110462 S    
C9    H10   1.110609 S    
O30   H28   1.006777 S    
C2    C3    1.554339 S    
C55   O41   1.215081 D    
P4    O15   1.760024 S    
C14   H17   1.106940 S    
C19   C30   1.449011 A    
C61   O54   1.396151 S    
O48   H48   1.001250 S    
P2    O20   1.603081 S    
C27   C28   1.395378 A    
C6    C49   1.480155 S    
C1    H35   1.110270 S    
O16   P7    1.819880 S    
C12   H34   1.108581 S    
C3    H4    1.106799 S    
C57   O46   1.376264 S    
C43   C44   1.407952 A    
C60   O51   1.221846 D    
O44   H46   1.013846 S    
C52   O36   1.391565 S    
O42   H44   1.007834 S    
C7    H29   1.103453 S    
C5    H25   1.105571 S    
C60   O52   1.397889 S    
C34   C35   1.410917 A    
Ba1   O20   2.996467 S    
O16   Ba2   2.995524 S    
H1    C10   1.108873 S    
C27   H20   1.068263 S    
C40   C46   1.392140 A    
C51   O33   1.220278 D    
C6    C7    1.529154 S    
