data_mof_unit_35000.cif
_audit_creation_date              2012-12-10T19:10:03-0500
_audit_creation_method            fapswitch 2.2
_symmetry_space_group_name_H-M    P1
_symmetry_Int_Tables_number       1
_space_group_crystal_system       triclinic
_cell_length_a                    10.836846
_cell_length_b                    10.854512
_cell_length_c                    9.520648
_cell_angle_alpha                 89.24524
_cell_angle_beta                  90.326727
_cell_angle_gamma                 90.204735
_cell_volume                      1119.77898268

loop_
_atom_site_label
_atom_site_type_symbol
_atom_type_description
_atom_site_fract_x
_atom_site_fract_y
_atom_site_fract_z
_atom_type_partial_charge
C1    C     C_R   0.501935 0.262525 0.500733 0.850341
C2    C     C_R   0.222428 0.717890 0.018686 -0.105483
C3    C     C_R   0.932724 0.546349 0.387397 -0.245304
C4    C     C_R   0.871566 0.492536 0.501711 -0.089461
C5    C     C_R   0.939380 0.438594 0.613958 -0.004673
C6    C     C_R   0.067425 0.446173 0.611568 -0.238149
C7    C     C_R   0.128337 0.501142 0.497552 -0.077374
C8    C     C_R   0.060349 0.550124 0.383029 -0.004605
C9    C     C_R   0.898235 0.414991 0.869496 -0.231322
C10   C     C_R   0.843039 0.356142 0.984395 -0.142477
C11   C     C_R   0.770690 0.251354 0.964565 -0.190667
C12   C     C_R   0.262235 0.501805 0.499248 0.782268
C13   C     C_R   0.755597 0.203476 0.830193 -0.107889
C14   C     C_R   0.811139 0.260411 0.713513 0.449925
C15   C     C_R   0.881071 0.370240 0.732809 0.025883
C16   C     C_R   0.509788 0.061440 0.625380 0.157149
C17   C     C_R   0.512999 0.130022 0.500842 -0.136281
C18   C     C_R   0.529905 0.068760 0.373768 -0.212706
C19   C     C_R   0.523021 0.940949 0.368933 0.369058
C20   C     C_R   0.506628 0.871860 0.495569 -0.204017
C21   C     C_R   0.507753 0.934667 0.622819 0.085854
C22   C     C_3   0.419468 0.926810 0.742735 -0.462279
C23   C     C_R   0.499551 0.738007 0.498616 0.816539
C24   C     C_3   0.422012 0.066591 0.745353 -0.489668
C25   C     C_R   0.542692 0.600040 0.072327 0.294224
C26   C     C_R   0.446457 0.406885 0.075475 -0.071202
C27   C     C_R   0.446764 0.406716 0.926499 -0.085397
C28   C     C_R   0.540738 0.600902 0.924770 0.250623
C29   C     C_3   0.665501 0.657900 0.915829 -0.499574
C30   C     C_3   0.670359 0.652229 0.075030 -0.493982
C31   C     C_R   0.737686 0.496184 0.500720 0.824613
C32   C     C_R   0.208652 0.786029 0.141180 -0.154860
C33   C     C_R   0.157517 0.731023 0.261216 -0.138345
C34   C     C_R   0.118187 0.607809 0.258210 0.143978
C35   C     C_R   0.130950 0.540180 0.134457 -0.138685
C36   C     C_R   0.183643 0.595072 0.015326 -0.146316
Cu1   Cu    Cu3+1 0.499990 0.499980 0.640670 0.946405
Cu2   Cu    Cu3+1 0.500010 0.500020 0.359330 0.954199
H1    H     H_    0.262796 0.760244 0.926286 0.124567
H2    H     H_    0.727477 0.206165 0.053704 0.152497
H3    H     H_    0.702184 0.120025 0.817018 0.145945
H4    H     H_    0.539329 0.119723 0.275714 0.173688
H5    H     H_    0.328258 0.888306 0.711508 0.189945
H6    H     H_    0.461761 0.883557 0.837832 0.204206
H7    H     H_    0.332326 0.109464 0.715785 0.190863
H8    H     H_    0.466063 0.103535 0.841808 0.195326
H9    H     H_    0.404447 0.330716 0.131962 0.136376
H10   H     H_    0.237654 0.881510 0.143096 0.129196
H11   H     H_    0.405112 0.330516 0.871551 0.134131
H12   H     H_    0.733922 0.598013 0.864815 0.234136
H13   H     H_    0.661782 0.753561 0.872937 0.199062
H14   H     H_    0.739094 0.585103 0.115760 0.200047
H15   H     H_    0.675560 0.744498 0.123202 0.249577
H16   H     H_    0.147616 0.784400 0.355787 0.114147
H17   H     H_    0.100714 0.445064 0.130684 0.119190
H18   H     H_    0.194127 0.542543 0.920310 0.136101
H19   H     H_    0.880961 0.588075 0.301699 0.151703
H20   H     H_    0.119989 0.404843 0.697199 0.149132
H21   H     H_    0.952392 0.497501 0.886635 0.152418
H22   H     H_    0.856087 0.392061 0.088965 0.143944
N1    N     N_R   0.500790 0.500930 0.147930 -0.185830
N2    N     N_R   0.500790 0.500890 0.852020 -0.182828
O1    O     O_R   0.500000 0.319640 0.618810 -0.579390
O2    O     O_R   0.500010 0.319680 0.381230 -0.603151
O3    O     O_R   0.319640 0.499990 0.618790 -0.596848
O4    O     O_R   0.319650 0.500030 0.381210 -0.572997
O5    O     O_R   0.499990 0.680320 0.618770 -0.581580
O6    O     O_R   0.500000 0.680360 0.381190 -0.566592
O7    O     O_R   0.680350 0.499970 0.618790 -0.574758
O8    O     O_R   0.680360 0.500010 0.381210 -0.587363
O9    O     O_3   0.796306 0.204509 0.585008 -0.766247
H23   H     H_    0.852115 0.243178 0.515370 0.314575
O10   O     O_3   0.526899 0.888513 0.238594 -0.754463
H24   H     H_    0.449077 0.841692 0.227334 0.330929

loop_
_geom_bond_atom_site_label_1
_geom_bond_atom_site_label_2
_ccdc_geom_bond_type
Cu2   O8    S    
C16   C21   A    
Cu1   O7    S    
C14   O9    S    
C6    H20   S    
C35   C36   A    
C13   H3    S    
Cu1   N2    S    
C7    C8    A    
C25   C28   A    
C26   C27   A    
Cu1   Cu2   S    
C24   H7    S    
C28   C29   S    
C26   N1    A    
C18   C19   A    
C18   H4    S    
C5    C6    A    
C25   C30   S    
C2    C32   A    
C34   C35   A    
O10   H24   S    
C23   O5    A    
C2    H1    S    
C31   O8    A    
C22   H6    S    
Cu2   O4    S    
C16   C17   A    
Cu1   O3    S    
C9    C10   A    
Cu2   N1    S    
C16   C24   S    
C21   C22   S    
C32   H10   S    
C1    O1    A    
Cu1   O1    S    
C33   C34   A    
Cu2   O2    S    
C29   H12   S    
C7    C12   S    
C30   H15   S    
C35   H17   S    
C19   O10   S    
C3    C8    A    
C8    C34   S    
C12   O4    A    
C9    H21   S    
C23   O6    A    
C10   H22   S    
C29   C30   S    
C36   H18   S    
C27   N2    A    
C22   H5    S    
C20   C23   S    
C17   C18   A    
C25   N1    A    
C26   H9    S    
C3    H19   S    
Cu2   O6    S    
C22   C24   S    
C3    C4    A    
C1    O2    A    
C29   H13   S    
C2    C36   A    
C33   H16   S    
C30   H14   S    
C4    C5    A    
C6    C7    A    
C12   O3    A    
C1    C17   S    
C24   H8    S    
C32   C33   A    
C19   C20   A    
C9    C15   A    
O9    H23   S    
C11   C13   A    
Cu1   O5    S    
C11   H2    S    
C5    C15   S    
C4    C31   S    
C10   C11   A    
C31   O7    A    
C20   C21   A    
C14   C15   A    
C13   C14   A    
C27   H11   S    
C28   N2    A    
