data_mof_unit_54608.cif
_audit_creation_date              2013-03-05T16:47:55-0500
_audit_creation_method            fapswitch 2.2
_symmetry_space_group_name_H-M    P1
_symmetry_Int_Tables_number       1
_space_group_crystal_system       triclinic
_cell_length_a                    8.106582
_cell_length_b                    8.93216
_cell_length_c                    16.747714
_cell_angle_alpha                 90.10203
_cell_angle_beta                  84.345208
_cell_angle_gamma                 89.957479
_cell_volume                      1206.78620827

loop_
_atom_site_label
_atom_site_type_symbol
_atom_site_description
_atom_site_fract_x
_atom_site_fract_y
_atom_site_fract_z
_atom_type_partial_charge
O1    O     O_R   0.363150 0.714660 0.500000 -0.613783
O2    O     O_R   0.636850 0.285340 0.500000 -0.615834
O3    O     O_R   0.636850 0.714660 0.500000 -0.611155
O4    O     O_R   0.363150 0.285340 0.500000 -0.611314
H1    H     H_    0.211696 0.454307 0.908648 0.133561
H2    H     H_    0.706520 0.786540 0.126675 0.139845
C1    C     C_R   0.500059 0.782011 0.499470 0.931895
C2    C     C_R   0.500051 0.217975 0.499933 0.939011
O5    O     O_R   0.346950 0.500000 0.615800 -0.600808
O6    O     O_R   0.653050 0.500000 0.384200 -0.599442
O7    O     O_R   0.620700 0.500000 0.615800 -0.623356
O8    O     O_R   0.379300 0.500000 0.384200 -0.619497
C3    C     C_R   0.475862 0.505402 0.653598 0.899935
C4    C     C_R   0.523916 0.500704 0.346338 0.893613
Zn1   Zn    Zn3+2 0.317220 0.500000 0.500010 0.991543
Zn2   Zn    Zn3+2 0.682780 0.500000 0.499990 0.987906
H3    H     H_    0.365631 0.429019 0.092032 0.137841
H4    H     H_    0.569079 0.808330 0.869372 0.136096
N1    N     N_1   0.926360 0.500000 0.499990 -0.032238
N2    N     N_1   0.073640 0.500000 0.500010 -0.033552
C5    C     C_R   0.454510 0.544621 0.738351 -0.049702
C6    C     C_R   0.539945 0.527876 0.260505 -0.047430
C7    C     C_R   0.538812 0.669922 0.766812 0.119232
C8    C     C_R   0.442838 0.446052 0.210345 0.132888
C9    C     C_R   0.503846 0.714074 0.846501 -0.153385
C10   C     C_R   0.438732 0.491998 0.131226 -0.150027
C11   C     C_R   0.389158 0.634584 0.897831 0.129947
C12   C     C_R   0.528311 0.618198 0.102226 0.127344
C13   C     C_R   0.300042 0.516292 0.868634 -0.224890
C14   C     C_R   0.633295 0.692028 0.150151 -0.233256
C15   C     C_R   0.332219 0.470312 0.789118 0.050399
C16   C     C_R   0.638869 0.648634 0.229690 0.048867
C17   C     C_2   0.380687 0.655261 0.984444 -0.224413
C18   C     C_2   0.521395 0.666704 0.019631 -0.213457
C19   C     C_1   0.500039 0.934796 0.499521 -0.199101
C20   C     C_1   0.500119 0.065173 0.499698 -0.193647
H5    H     H_    0.638299 0.693696 0.985295 0.152491
H6    H     H_    0.265475 0.626642 0.019953 0.152187
C21   C     C_3   0.662330 0.760295 0.713499 -0.860646
H7    H     H_    0.708235 0.858660 0.745412 0.225936
H8    H     H_    0.771442 0.690214 0.692926 0.259487
H9    H     H_    0.603159 0.802875 0.661080 0.235651
C22   C     C_3   0.344730 0.309970 0.239758 -0.905985
H10   H     H_    0.291713 0.250469 0.189895 0.234774
H11   H     H_    0.426408 0.230234 0.268107 0.229283
H12   H     H_    0.240265 0.343412 0.284002 0.265048
N3    N     N_3   0.738084 0.732336 0.280252 -0.433889
H13   H     H_    0.860960 0.729193 0.254566 0.191876
H14   H     H_    0.698467 0.843821 0.280956 0.178984
N4    N     N_3   0.243902 0.345427 0.760410 -0.451703
H15   H     H_    0.117242 0.370162 0.768345 0.196200
H16   H     H_    0.264803 0.252614 0.796034 0.180672

loop_
_geom_bond_atom_site_label_1
_geom_bond_atom_site_label_2
_geom_bond_distance
_ccdc_geom_bond_type
N4    H16   1.045663 S    
C22   H10   1.110874 S    
O1    Zn1   1.953463 S    
C11   C13   1.395104 A    
C18   H5    1.086443 S    
O2    Zn2   1.953464 S    
O7    Zn2   1.955192 S    
N1    N2    1.193970 T    
C10   C12   1.402692 A    
C19   C20   1.164553 T    
O8    Zn1   1.955192 S    
O4    C2    1.261932 A    
C4    C6    1.451440 S    
O4    Zn1   1.952921 S    
C12   C14   1.391760 A    
C17   C18   1.338381 D    
O5    Zn1   1.977563 S    
C3    C5    1.455047 S    
C13   C15   1.392696 A    
O6    Zn2   1.977563 S    
C11   C17   1.456836 S    
C14   C16   1.393000 A    
C22   H11   1.110653 S    
C5    C15   1.408240 A    
H4    C9    1.083793 S    
C6    C16   1.412302 A    
Zn2   N1    1.974601 S    
C7    C21   1.509648 S    
H3    C10   1.083670 S    
C22   H12   1.109337 S    
C8    C10   1.391373 A    
N4    H15   1.045668 S    
C21   H9    1.108758 S    
H1    C13   1.084378 S    
C7    C9    1.393005 A    
C5    C7    1.417849 A    
O6    C4    1.276246 A    
Zn1   N2    1.974601 S    
C16   N3    1.433800 S    
C6    C8    1.410159 A    
C9    C11   1.397564 A    
C15   N4    1.433590 S    
C12   C18   1.456605 S    
O7    C3    1.278668 A    
C21   H8    1.109637 S    
N3    H14   1.045773 S    
C2    C20   1.364847 S    
C21   H7    1.110908 S    
C8    C22   1.509638 S    
O5    C3    1.274946 A    
C17   H6    1.087543 S    
O3    C1    1.261993 A    
H2    C14   1.084225 S    
O1    C1    1.262084 A    
C1    C19   1.364698 S    
O2    C2    1.262189 A    
O3    Zn2   1.952920 S    
N3    H13   1.045719 S    
O8    C4    1.276733 A    
