data_mof_unit_38192.cif
_audit_creation_date              2012-12-11T21:25:19-0500
_audit_creation_method            fapswitch 2.2
_symmetry_space_group_name_H-M    P1
_symmetry_Int_Tables_number       1
_space_group_crystal_system       triclinic
_cell_length_a                    23.29491
_cell_length_b                    29.454671
_cell_length_c                    8.314669
_cell_angle_alpha                 90.000345
_cell_angle_beta                  92.820417
_cell_angle_gamma                 89.56682
_cell_volume                      5697.98553454

loop_
_atom_site_label
_atom_site_type_symbol
_atom_type_description
_atom_site_fract_x
_atom_site_fract_y
_atom_site_fract_z
_atom_type_partial_charge
Ba1   Ba    Ba6+2 0.999920 0.467660 0.844980 1.649273
Ba2   Ba    Ba6+2 0.999920 0.532340 0.344980 1.642952
Ba3   Ba    Ba6+2 0.499920 0.967660 0.844980 1.649301
Ba4   Ba    Ba6+2 0.499920 0.032340 0.344980 1.642949
C1    C     C_3   0.043524 0.254812 0.590749 -0.387509
C2    C     C_R   0.199018 0.246273 0.280083 0.396243
C3    C     C_R   0.363103 0.228845 0.927790 -0.097503
C4    C     C_R   0.888313 0.353432 0.414589 -0.007620
C5    C     C_R   0.898988 0.650743 0.906351 -0.020022
C6    C     C_R   0.388311 0.853433 0.414594 -0.007635
C7    C     C_R   0.399030 0.150757 0.906277 -0.020053
C8    C     C_R   0.898524 0.389760 0.312631 -0.311072
C9    C     C_R   0.905818 0.612243 0.809552 -0.310690
C10   C     C_R   0.398520 0.889762 0.312639 -0.311087
C11   C     C_R   0.405832 0.112243 0.809534 -0.310620
C12   C     C_R   0.865050 0.397327 0.170800 0.048978
C13   C     C_R   0.671043 0.261761 0.811135 0.396974
C14   C     C_R   0.870058 0.604497 0.671385 0.070230
C15   C     C_R   0.365047 0.897328 0.170807 0.048948
C16   C     C_R   0.370080 0.104505 0.671346 0.070273
C17   C     C_3   0.162801 0.469415 0.180238 0.381677
C18   C     C_3   0.164453 0.528355 0.696727 0.357394
C19   C     C_3   0.662860 0.969421 0.180182 0.381739
C20   C     C_3   0.664396 0.028374 0.696669 0.357381
C21   C     C_3   0.212273 0.436270 0.154938 0.272830
C22   C     C_3   0.219333 0.555286 0.730303 0.266504
C23   C     C_3   0.712314 0.936282 0.154516 0.274158
C24   C     C_R   0.698811 0.746179 0.280421 0.396290
C25   C     C_3   0.719236 0.055378 0.729902 0.266574
C26   C     C_3   0.841501 0.531322 0.987890 0.297579
C27   C     C_3   0.835141 0.471085 0.490484 0.324841
C28   C     C_3   0.341506 0.031321 0.987863 0.297578
C29   C     C_3   0.335127 0.971092 0.490491 0.324809
C30   C     C_3   0.788559 0.558710 0.930080 -0.452422
C31   C     C_3   0.780499 0.442982 0.476835 -0.382946
C32   C     C_3   0.288567 0.058708 0.930017 -0.452401
C33   C     C_3   0.280484 0.942989 0.476870 -0.382955
C34   C     C_3   0.018312 0.302445 0.592593 0.360927
C35   C     C_R   0.209153 0.757808 0.951068 -0.030374
C36   C     C_3   0.022797 0.699009 0.110144 0.384149
C37   C     C_3   0.518288 0.802425 0.592653 0.360984
C38   C     C_3   0.522803 0.199020 0.110120 0.384169
C39   C     C_R   0.746989 0.293289 0.007774 -0.044194
C40   C     C_R   0.756703 0.711347 0.509069 -0.008593
C41   C     C_R   0.246990 0.793289 0.007772 -0.044196
C42   C     C_R   0.256850 0.211410 0.508785 -0.008580
C43   C     C_3   0.290182 0.399810 0.279865 0.277837
C44   C     C_3   0.332004 0.399981 0.427218 -0.161573
C45   C     C_3   0.370757 0.357901 0.431504 -0.516236
C46   C     C_R   0.225215 0.248581 0.438233 -0.010052
C47   C     C_3   0.308788 0.533619 0.848343 0.303474
C48   C     C_3   0.323626 0.488003 0.770959 -0.186651
C49   C     C_3   0.388499 0.481202 0.765738 -0.527205
C50   C     C_3   0.789833 0.899508 0.280413 0.277864
C51   C     C_3   0.832342 0.900161 0.426188 -0.161818
C52   C     C_3   0.870181 0.857575 0.432876 -0.516602
C53   C     C_3   0.808828 0.033865 0.847400 0.303504
C54   C     C_3   0.823726 0.988308 0.769675 -0.186814
C55   C     C_3   0.888600 0.981666 0.763670 -0.526757
C56   C     C_3   0.730076 0.435932 0.967234 0.268651
C57   C     C_R   0.709149 0.257809 0.951074 -0.030371
C58   C     C_3   0.671740 0.417251 0.910250 -0.261700
C59   C     C_3   0.622416 0.449739 0.943466 -0.510139
C60   C     C_3   0.740187 0.576198 0.334243 0.293576
C61   C     C_3   0.676463 0.564791 0.344473 -0.206641
C62   C     C_3   0.649719 0.551469 0.180684 -0.521664
C63   C     C_3   0.230069 0.935932 0.967340 0.268662
C64   C     C_3   0.171727 0.917250 0.910408 -0.261701
C65   C     C_3   0.122408 0.949733 0.943721 -0.510110
C66   C     C_3   0.240215 0.076247 0.334119 0.293572
C67   C     C_3   0.176472 0.064899 0.344352 -0.206717
C68   C     C_R   0.725035 0.748503 0.438542 -0.009955
C69   C     C_3   0.149715 0.051569 0.180587 -0.521639
C70   C     C_3   0.106126 0.820718 0.810252 0.232183
C71   C     C_3   0.049841 0.799003 0.747200 -0.197940
C72   C     C_3   0.998007 0.827589 0.792616 -0.509042
C73   C     C_3   0.204975 0.214830 0.016028 0.264670
C74   C     C_3   0.149482 0.191870 0.952769 -0.202559
C75   C     C_3   0.150659 0.182189 0.772988 -0.507819
C76   C     C_3   0.606130 0.320723 0.810226 0.232161
C77   C     C_3   0.549844 0.299003 0.747218 -0.197881
C78   C     C_3   0.498011 0.327589 0.792640 -0.509141
C79   C     C_R   0.145035 0.723559 0.744026 -0.132337
C80   C     C_3   0.704793 0.714731 0.016394 0.264687
C81   C     C_3   0.649312 0.691788 0.952954 -0.202472
C82   C     C_3   0.650546 0.682124 0.773175 -0.507855
C83   C     C_R   0.159930 0.280669 0.228875 -0.164403
C84   C     C_R   0.645031 0.223560 0.744035 -0.132339
C85   C     C_3   0.051575 0.744139 0.148882 -0.358855
C86   C     C_R   0.659738 0.780579 0.229186 -0.164355
C87   C     C_R   0.141883 0.683335 0.830252 -0.096881
C88   C     C_R   0.149670 0.318853 0.324085 -0.078721
C89   C     C_R   0.641872 0.183339 0.830274 -0.096857
C90   C     C_R   0.649531 0.818792 0.324294 -0.079044
C91   C     C_R   0.173338 0.679248 0.979475 -0.007495
C92   C     C_R   0.181594 0.324075 0.472212 -0.008922
C93   C     C_R   0.673328 0.179252 0.979495 -0.007493
C94   C     C_R   0.681466 0.824021 0.472397 -0.009452
C95   C     C_R   0.208643 0.716013 0.037970 -0.021957
C96   C     C_3   0.543476 0.754784 0.590862 -0.387504
C97   C     C_R   0.220991 0.289478 0.527014 -0.040861
C98   C     C_R   0.708637 0.216015 0.037982 -0.021955
C99   C     C_R   0.720837 0.789413 0.527260 -0.041087
C100  C     C_R   0.104958 0.648338 0.775192 -0.008116
C101  C     C_R   0.108742 0.352354 0.273878 0.007129
C102  C     C_R   0.604942 0.148345 0.775224 -0.008167
C103  C     C_R   0.608671 0.852329 0.273960 0.007156
C104  C     C_R   0.096968 0.610659 0.874114 -0.297673
C105  C     C_R   0.098088 0.389101 0.375341 -0.297104
C106  C     C_R   0.596947 0.110668 0.874153 -0.297680
C107  C     C_3   0.551575 0.244151 0.148869 -0.358855
C108  C     C_R   0.598063 0.889106 0.375335 -0.297001
C109  C     C_R   0.129807 0.604179 0.018245 0.043772
C110  C     C_R   0.131214 0.396263 0.518012 0.056022
C111  C     C_R   0.629793 0.104184 0.018269 0.043817
C112  C     C_R   0.631202 0.896268 0.517986 0.055466
C113  C     C_3   0.978328 0.303123 0.081445 0.358556
C114  C     C_3   0.976156 0.699420 0.584496 0.355959
C115  C     C_3   0.478306 0.803116 0.081436 0.358589
C116  C     C_3   0.476181 0.199440 0.584403 0.356048
C117  C     C_R   0.169798 0.638335 0.069188 -0.014929
C118  C     C_R   0.754625 0.333319 0.919491 -0.118546
C119  C     C_R   0.174284 0.363926 0.565440 -0.004767
C120  C     C_R   0.669787 0.138339 0.069207 -0.014912
C121  C     C_R   0.674253 0.863921 0.565426 -0.005312
C122  C     C_R   0.778945 0.288706 0.157007 0.019874
C123  C     C_R   0.793679 0.717975 0.645973 -0.004346
C124  C     C_R   0.278946 0.788705 0.157004 0.019871
C125  C     C_R   0.293808 0.218024 0.645735 -0.004492
C126  C     C_R   0.816693 0.324388 0.213453 -0.047625
C127  C     C_R   0.829305 0.681319 0.704930 -0.058006
C128  C     C_R   0.316693 0.824389 0.213454 -0.047624
C129  C     C_R   0.746370 0.666404 0.460284 -0.088944
C130  C     C_R   0.329398 0.181355 0.704757 -0.058089
C131  C     C_R   0.821870 0.365024 0.121890 -0.094457
C132  C     C_R   0.827819 0.638323 0.625786 -0.058608
C133  C     C_R   0.321868 0.865025 0.121896 -0.094468
C134  C     C_R   0.327879 0.138352 0.625665 -0.058580
C135  C     C_R   0.784419 0.370500 0.983638 0.420185
C136  C     C_R   0.781660 0.629935 0.513489 0.395241
C137  C     C_R   0.284416 0.870502 0.983650 0.420204
C138  C     C_R   0.281732 0.129983 0.513309 0.395361
C139  C     C_R   0.206327 0.633037 0.206713 -0.016558
C140  C     C_R   0.254622 0.833321 0.919496 -0.118541
C141  C     C_R   0.210266 0.370156 0.703540 -0.037994
C142  C     C_R   0.706320 0.133039 0.206723 -0.016481
C143  C     C_R   0.710345 0.870207 0.703264 -0.037527
C144  C     C_R   0.241239 0.668339 0.263419 -0.093136
C145  C     C_R   0.249385 0.336906 0.755971 -0.103208
C146  C     C_R   0.741235 0.168340 0.263426 -0.093119
C147  C     C_R   0.749435 0.836946 0.755763 -0.102351
C148  C     C_R   0.241541 0.711059 0.185447 0.030619
C149  C     C_R   0.255113 0.295583 0.671854 0.028026
C150  C     C_R   0.741537 0.211060 0.185455 0.030606
C151  C     C_R   0.246493 0.166471 0.459981 -0.088853
C152  C     C_R   0.755006 0.795546 0.672005 0.027290
C153  C     C_R   0.774587 0.248284 0.248711 0.039301
C154  C     C_R   0.793381 0.760252 0.728011 0.021623
C155  C     C_R   0.274589 0.748283 0.248706 0.039298
C156  C     C_R   0.293523 0.260303 0.727764 0.021877
C157  C     C_R   0.803226 0.246623 0.402439 -0.095957
C158  C     C_R   0.829470 0.764763 0.868405 -0.115642
C159  C     C_R   0.303225 0.746623 0.402438 -0.095964
C160  C     C_R   0.329656 0.264827 0.868063 -0.115740
C161  C     C_3   0.950396 0.256760 0.065768 -0.377491
C162  C     C_R   0.171044 0.761761 0.811133 0.396979
C163  C     C_3   0.939786 0.738993 0.516629 -0.343152
C164  C     C_3   0.450371 0.756756 0.065680 -0.377488
C165  C     C_3   0.439832 0.239016 0.516470 -0.343107
C166  C     C_R   0.848355 0.319686 0.363376 -0.009412
C167  C     C_R   0.864022 0.686983 0.847902 -0.020678
C168  C     C_R   0.348353 0.819686 0.363379 -0.009410
C169  C     C_R   0.364112 0.187016 0.847741 -0.020689
C170  C     C_R   0.839098 0.281363 0.457922 -0.082678
C171  C     C_R   0.862950 0.728793 0.928068 -0.097482
C172  C     C_R   0.339096 0.781364 0.457924 -0.082694
H1    H     H_    0.047105 0.324156 0.669862 0.088449
H2    H     H_    0.244314 0.554614 0.619115 0.002821
H3    H     H_    0.467081 0.267860 0.482803 0.125858
H4    H     H_    0.150206 0.468056 0.306503 -0.018833
H5    H     H_    0.140894 0.525857 0.808686 -0.007590
H6    H     H_    0.650378 0.968039 0.306551 -0.019329
H7    H     H_    0.640911 0.025872 0.808752 -0.007626
H8    H     H_    0.126275 0.458199 0.099741 0.004371
H9    H     H_    0.137348 0.546149 0.602674 -0.001887
H10   H     H_    0.626272 0.958208 0.099897 0.004208
H11   H     H_    0.637206 0.046123 0.602690 -0.001665
H12   H     H_    0.315155 0.402657 0.169322 0.022537
H13   H     H_    0.734137 0.945941 0.043643 0.053563
H14   H     H_    0.266681 0.366970 0.277520 0.039713
H15   H     H_    0.359005 0.430909 0.424591 0.117174
H16   H     H_    0.307511 0.400888 0.538476 0.126013
H17   H     H_    0.344611 0.326537 0.435682 0.143672
H18   H     H_    0.400109 0.358912 0.540726 0.141306
H19   H     H_    0.396972 0.356876 0.323396 0.134533
H20   H     H_    0.330618 0.535153 0.970040 0.073566
H21   H     H_    0.325601 0.562613 0.778786 0.003906
H22   H     H_    0.305566 0.459879 0.841275 0.116439
H23   H     H_    0.304278 0.486492 0.646288 0.142560
H24   H     H_    0.744123 0.054742 0.618538 0.002728
H25   H     H_    0.407317 0.508027 0.691092 0.138594
H26   H     H_    0.397874 0.447576 0.712283 0.142485
H27   H     H_    0.408857 0.482300 0.889311 0.137379
H28   H     H_    0.814297 0.901308 0.168699 0.021786
H29   H     H_    0.765785 0.866967 0.281613 0.040771
H30   H     H_    0.859979 0.930638 0.419706 0.117091
H31   H     H_    0.808419 0.902246 0.538281 0.126000
H32   H     H_    0.843419 0.826715 0.442783 0.144204
H33   H     H_    0.900511 0.859209 0.539905 0.141285
H34   H     H_    0.895329 0.855023 0.323031 0.134599
H35   H     H_    0.869710 0.526513 0.886105 0.027679
H36   H     H_    0.830753 0.035383 0.968980 0.073667
H37   H     H_    0.825497 0.062922 0.777874 0.003940
H38   H     H_    0.805871 0.960118 0.840114 0.116715
H39   H     H_    0.804213 0.986795 0.645189 0.142689
H40   H     H_    0.907205 0.008592 0.689037 0.138586
H41   H     H_    0.898018 0.948104 0.709782 0.142462
H42   H     H_    0.909127 0.982724 0.887044 0.137419
H43   H     H_    0.731779 0.471098 0.920341 0.116445
H44   H     H_    0.733697 0.437773 0.101272 0.023560
H45   H     H_    0.672038 0.410715 0.778656 0.140269
H46   H     H_    0.851621 0.475611 0.369301 -0.006963
H47   H     H_    0.664567 0.385469 0.977029 0.106892
H48   H     H_    0.619396 0.454585 0.075195 0.141917
H49   H     H_    0.581293 0.435128 0.895090 0.141449
H50   H     H_    0.628640 0.482999 0.884062 0.141736
H51   H     H_    0.762694 0.545642 0.290041 0.093263
H52   H     H_    0.746853 0.603417 0.244002 0.036088
H53   H     H_    0.672089 0.536009 0.429439 0.133520
H54   H     H_    0.652539 0.594298 0.391342 0.110920
H55   H     H_    0.652528 0.579885 0.093889 0.139910
H56   H     H_    0.603802 0.542816 0.192245 0.147280
H57   H     H_    0.369720 0.026509 0.886092 0.027673
H58   H     H_    0.672582 0.521415 0.134495 0.129391
H59   H     H_    0.231762 0.971100 0.920464 0.116434
H60   H     H_    0.233708 0.937768 0.101377 0.023545
H61   H     H_    0.172005 0.910727 0.778804 0.140255
H62   H     H_    0.164566 0.885461 0.977157 0.106904
H63   H     H_    0.119426 0.954587 0.075460 0.141918
H64   H     H_    0.081276 0.935115 0.895446 0.141456
H65   H     H_    0.128607 0.982990 0.884277 0.141723
H66   H     H_    0.262679 0.045662 0.289987 0.093274
H67   H     H_    0.246926 0.103443 0.243829 0.036079
H68   H     H_    0.351602 0.975612 0.369300 -0.006952
H69   H     H_    0.172054 0.036138 0.429383 0.133545
H70   H     H_    0.152587 0.094437 0.391147 0.110903
H71   H     H_    0.152565 0.079966 0.093730 0.139888
H72   H     H_    0.103787 0.042956 0.192156 0.147305
H73   H     H_    0.172541 0.021486 0.134466 0.129388
H74   H     H_    0.102912 0.856768 0.774308 0.087881
H75   H     H_    0.109934 0.819378 0.944361 0.029069
H76   H     H_    0.050042 0.796049 0.614126 0.142012
H77   H     H_    0.045766 0.764719 0.800005 0.106676
H78   H     H_    0.999666 0.834452 0.924039 0.132712
H79   H     H_    0.864939 0.550266 0.085464 0.074300
H80   H     H_    0.957642 0.809289 0.760779 0.145369
H81   H     H_    0.997306 0.860437 0.726895 0.132970
H82   H     H_    0.241740 0.196926 0.963580 0.094324
H83   H     H_    0.207802 0.250660 0.975101 0.032106
H84   H     H_    0.144289 0.159185 0.016834 0.132665
H85   H     H_    0.111657 0.213610 0.975703 0.122717
H86   H     H_    0.157988 0.214066 0.706390 0.142489
H87   H     H_    0.109030 0.167487 0.729181 0.141831
H88   H     H_    0.185393 0.157382 0.749572 0.142408
H89   H     H_    0.602913 0.356770 0.774235 0.087895
H90   H     H_    0.867456 0.453202 0.570671 0.061933
H91   H     H_    0.609942 0.319395 0.944335 0.029074
H92   H     H_    0.550036 0.296040 0.614146 0.141993
H93   H     H_    0.545775 0.264722 0.800053 0.106654
H94   H     H_    0.499689 0.334474 0.924048 0.132661
H95   H     H_    0.457648 0.309278 0.760896 0.145277
H96   H     H_    0.497290 0.360425 0.726848 0.133066
H97   H     H_    0.741578 0.696824 0.964046 0.094260
H98   H     H_    0.707644 0.750563 0.975503 0.032107
H99   H     H_    0.644085 0.659098 0.016957 0.132671
H100  H     H_    0.611485 0.713533 0.975815 0.122687
H101  H     H_    0.364940 0.050271 0.085436 0.074296
H102  H     H_    0.657896 0.714009 0.706646 0.142561
H103  H     H_    0.608928 0.667428 0.729246 0.141814
H104  H     H_    0.685288 0.657319 0.749817 0.142403
H105  H     H_    0.050678 0.671366 0.161819 0.080380
H106  H     H_    0.367444 0.953211 0.570679 0.061923
H107  H     H_    0.773851 0.547899 0.807269 0.161812
H108  H     H_    0.748485 0.459626 0.392335 0.095392
H109  H     H_    0.273862 0.047891 0.807211 0.161801
H110  H     H_    0.248463 0.959636 0.392400 0.095418
H111  H     H_    0.797957 0.595520 0.929966 0.076821
H112  H     H_    0.789564 0.408408 0.432293 0.061587
H113  H     H_    0.297967 0.095518 0.929873 0.076826
H114  H     H_    0.289547 0.908417 0.432301 0.061591
H115  H     H_    0.752792 0.553280 0.009859 0.107496
H116  H     H_    0.547090 0.824136 0.669898 0.088501
H117  H     H_    0.761795 0.440036 0.596534 0.161875
H118  H     H_    0.252797 0.053283 0.009787 0.107487
H119  H     H_    0.261793 0.940038 0.596583 0.161891
H120  H     H_    0.016675 0.315554 0.467222 -0.061977
H121  H     H_    0.018420 0.695351 0.977253 -0.090131
H122  H     H_    0.516655 0.815524 0.467269 -0.061958
H123  H     H_    0.518406 0.195374 0.977226 -0.090191
H124  H     H_    0.086814 0.255644 0.540875 0.072099
H125  H     H_    0.092751 0.746207 0.088417 0.056723
H126  H     H_    0.586769 0.755596 0.541006 0.072201
H127  H     H_    0.550696 0.171376 0.161734 0.080309
H128  H     H_    0.592740 0.246231 0.088353 0.056708
H129  H     H_    0.047079 0.241057 0.715185 0.140594
H130  H     H_    0.060554 0.747675 0.280425 0.156336
H131  H     H_    0.547018 0.741038 0.715311 0.140610
H132  H     H_    0.560576 0.247678 0.280406 0.156333
H133  H     H_    0.905746 0.258610 0.106296 0.076857
H134  H     H_    0.909826 0.750908 0.607123 0.068752
H135  H     H_    0.405735 0.758594 0.106316 0.076843
H136  H     H_    0.409910 0.250978 0.606988 0.068727
H137  H     H_    0.066810 0.584789 0.834070 0.067006
H138  H     H_    0.193539 0.401957 0.135242 -0.060874
H139  H     H_    0.065806 0.414028 0.337750 0.064949
H140  H     H_    0.566788 0.084798 0.834110 0.066985
H141  H     H_    0.565814 0.914052 0.337687 0.065071
H142  H     H_    0.121714 0.728083 0.629902 0.126174
H143  H     H_    0.136574 0.277096 0.115202 0.107479
H144  H     H_    0.621712 0.228084 0.629908 0.126184
H145  H     H_    0.636368 0.776992 0.115542 0.107507
H146  H     H_    0.208624 0.601494 0.273027 0.094125
H147  H     H_    0.208986 0.400815 0.774243 0.085793
H148  H     H_    0.708619 0.101496 0.273034 0.094158
H149  H     H_    0.208265 0.591251 0.754488 -0.034629
H150  H     H_    0.709158 0.900917 0.773717 0.085455
H151  H     H_    0.859913 0.277318 0.576051 0.109068
H152  H     H_    0.888572 0.734857 0.037115 0.109679
H153  H     H_    0.359907 0.777320 0.576058 0.109074
H154  H     H_    0.388756 0.234919 0.036770 0.109693
H155  H     H_    0.930999 0.414223 0.349603 0.062181
H156  H     H_    0.936450 0.586317 0.849195 0.069025
H157  H     H_    0.430993 0.914226 0.349614 0.062189
H158  H     H_    0.436436 0.086304 0.849231 0.068999
H159  H     H_    0.737095 0.337961 0.798911 0.160810
H160  H     H_    0.693558 0.901950 0.135326 -0.062426
H161  H     H_    0.706865 0.658915 0.393170 0.114427
H162  H     H_    0.237088 0.837966 0.798922 0.160815
H163  H     H_    0.207004 0.159006 0.392750 0.114304
H164  H     H_    0.268399 0.660672 0.368653 0.052696
H165  H     H_    0.273871 0.344728 0.865422 0.046506
H166  H     H_    0.768397 0.160673 0.368655 0.052712
H167  H     H_    0.774046 0.844832 0.864935 0.046504
H168  H     H_    0.015520 0.232361 0.514214 0.112555
H169  H     H_    0.023178 0.772530 0.106571 0.104538
H170  H     H_    0.515464 0.732336 0.514340 0.112527
H171  H     H_    0.708117 0.091329 0.754144 -0.034563
H172  H     H_    0.523165 0.272541 0.106621 0.104537
H173  H     H_    0.798237 0.218896 0.484960 0.065530
H174  H     H_    0.832775 0.795647 0.937198 0.065034
H175  H     H_    0.298236 0.718896 0.484959 0.065527
H176  H     H_    0.333044 0.295742 0.936663 0.065051
H177  H     H_    0.952236 0.327608 0.006488 0.091680
H178  H     H_    0.951646 0.667910 0.558176 0.060745
H179  H     H_    0.452197 0.827619 0.006602 0.091602
H180  H     H_    0.451660 0.167933 0.558125 0.060715
H181  H     H_    0.978253 0.313559 0.209698 -0.059415
H182  H     H_    0.234289 0.446007 0.044475 0.053042
H183  H     H_    0.982579 0.703666 0.716571 -0.057502
H184  H     H_    0.478264 0.813522 0.209724 -0.059500
H185  H     H_    0.482603 0.203699 0.716474 -0.057528
H186  H     H_    0.949246 0.245446 0.938236 0.145448
H187  H     H_    0.913597 0.728218 0.408566 0.149056
H188  H     H_    0.449184 0.745472 0.938114 0.145490
H189  H     H_    0.413599 0.228225 0.408509 0.148974
H190  H     H_    0.975145 0.231632 0.141420 0.107665
H191  H     H_    0.967019 0.767863 0.483130 0.125785
H192  H     H_    0.475141 0.731611 0.141204 0.107642
O1    O     O_2   0.885810 0.435270 0.885040 -0.418631
O2    O     O_3   0.029689 0.698703 0.513414 -0.601901
O3    O     O_3   0.534486 0.800375 0.027618 -0.605392
O4    O     O_3   0.529716 0.198700 0.513334 -0.601882
O5    O     O_3   0.066460 0.522600 0.056690 -0.503493
O6    O     O_3   0.066460 0.477400 0.556690 -0.493820
O7    O     O_3   0.566460 0.022600 0.056690 -0.503474
O8    O     O_3   0.566460 0.977400 0.556690 -0.493780
O9    O     O_3   0.933490 0.477290 0.133000 -0.503101
O10   O     O_3   0.933490 0.522710 0.633000 -0.505111
O11   O     O_3   0.433490 0.977290 0.133000 -0.503094
O12   O     O_2   0.885810 0.564730 0.385040 -0.464625
O13   O     O_3   0.433490 0.022710 0.633000 -0.505128
O14   O     O_3   0.980190 0.395350 0.639000 -0.488597
O15   O     O_3   0.980190 0.604650 0.139000 -0.482060
O16   O     O_3   0.480190 0.895350 0.639000 -0.488562
O17   O     O_3   0.480190 0.104650 0.139000 -0.482027
O18   O     O_2   0.886824 0.357725 0.752123 -0.478446
O19   O     O_2   0.886007 0.642649 0.239036 -0.487627
O20   O     O_2   0.386810 0.857740 0.752109 -0.478421
O21   O     O_2   0.385998 0.142653 0.238946 -0.487598
O22   O     O_3   0.823450 0.489635 0.046900 -0.635092
O23   O     O_2   0.385810 0.935270 0.885040 -0.418641
O24   O     O_3   0.821075 0.513161 0.554867 -0.594750
O25   O     O_3   0.323452 0.989638 0.046891 -0.635073
O26   O     O_3   0.321064 0.013172 0.554852 -0.594795
O27   O     O_3   0.963419 0.300888 0.655271 -0.606943
O28   O     O_3   0.968876 0.698517 0.178327 -0.599598
O29   O     O_3   0.463395 0.800889 0.655333 -0.606951
O30   O     O_3   0.468895 0.198512 0.178372 -0.599557
O31   O     O_2   0.113920 0.434910 0.804950 -0.481486
O32   O     O_2   0.113920 0.565090 0.304950 -0.472759
O33   O     O_2   0.613920 0.934910 0.804950 -0.481340
O34   O     O_2   0.385810 0.064730 0.385040 -0.464601
O35   O     O_2   0.613920 0.065090 0.304950 -0.472811
O36   O     O_3   0.019410 0.395290 0.051170 -0.490275
O37   O     O_3   0.019410 0.604710 0.551170 -0.480215
O38   O     O_3   0.519410 0.895290 0.051170 -0.490245
O39   O     O_3   0.519410 0.104710 0.551170 -0.480225
O40   O     O_2   0.111919 0.356887 0.937065 -0.493391
O41   O     O_2   0.111122 0.642404 0.441005 -0.488772
O42   O     O_2   0.611936 0.856888 0.937164 -0.493243
O43   O     O_2   0.611146 0.142385 0.441068 -0.488779
O44   O     O_3   0.251383 0.436709 0.290242 -0.652209
O45   O     O_3   0.179857 0.485146 0.643436 -0.636605
O46   O     O_3   0.249026 0.536968 0.868540 -0.638837
O47   O     O_3   0.751690 0.936882 0.289247 -0.652045
O48   O     O_3   0.749079 0.037101 0.867972 -0.638770
O49   O     O_3   0.776652 0.411420 0.903622 -0.636057
O50   O     O_3   0.763844 0.585480 0.490515 -0.653719
O51   O     O_3   0.276638 0.911425 0.903664 -0.636070
O52   O     O_3   0.263880 0.085533 0.490377 -0.653733
O53   O     O_3   0.155389 0.802558 0.738784 -0.673004
O54   O     O_3   0.212003 0.208928 0.184348 -0.676504
O55   O     O_3   0.655393 0.302557 0.738769 -0.673009
O56   O     O_3   0.179873 0.513725 0.144898 -0.609651
O57   O     O_3   0.711744 0.708815 0.184725 -0.676580
O58   O     O_3   0.679840 0.985167 0.643447 -0.636857
O59   O     O_3   0.679893 0.013739 0.144815 -0.609610
O60   O     O_3   0.034524 0.300368 0.027754 -0.605381
P1    P     P_3+3 0.880180 0.450420 0.058010 1.026671
P2    P     P_3+3 0.067232 0.649143 0.572524 0.931041
P3    P     P_3+3 0.569652 0.851469 0.073403 0.928608
P4    P     P_3+3 0.567238 0.149139 0.572530 0.931010
P5    P     P_3+3 0.932320 0.649607 0.114161 0.937261
P6    P     P_3+3 0.928538 0.352690 0.614080 0.937369
P7    P     P_3+3 0.432331 0.149614 0.114128 0.937325
P8    P     P_3+3 0.428531 0.852694 0.614089 0.937390
P9    P     P_3+3 0.880180 0.549580 0.558010 1.025529
P10   P     P_3+3 0.380180 0.950420 0.058010 1.026675
P11   P     P_3+3 0.380180 0.049580 0.558010 1.025511
P12   P     P_3+3 0.119600 0.450040 0.631910 0.984605
P13   P     P_3+3 0.119600 0.549960 0.131910 0.990883
P14   P     P_3+3 0.619600 0.950040 0.631910 0.984359
P15   P     P_3+3 0.619600 0.049960 0.131910 0.990852
P16   P     P_3+3 0.069671 0.351479 0.073395 0.928493

loop_
_geom_bond_atom_site_label_1
_geom_bond_atom_site_label_2
_ccdc_geom_bond_type
O22   P1    S    
C80   H98   S    
C76   H91   S    
C111  P15   S    
C103  C108  A    
C29   O26   S    
C132  C136  A    
C109  P13   S    
C42   C125  A    
C131  C135  A    
C42   C151  A    
O17   P7    S    
C127  C167  A    
C61   H54   S    
C62   H58   S    
C113  H181  S    
C118  C135  A    
C18   H5    S    
C91   C95   A    
C38   H123  S    
C124  C128  A    
C104  H137  S    
C31   H108  S    
C56   C58   S    
O37   P2    S    
C58   H45   S    
C5    C9    A    
Ba3   O38   S    
C47   H21   S    
C13   C57   A    
C142  C146  A    
C7    C11   A    
C8    C12   A    
C33   H114  S    
C77   H92   S    
C47   O46   S    
Ba1   O6    S    
C6    P8    S    
C32   H118  S    
C27   H90   S    
C75   H88   S    
C32   H113  S    
C110  P12   S    
Ba3   O23   S    
Ba4   P11   S    
C11   C16   A    
C90   C103  A    
C79   C162  A    
C107  H172  S    
O4    P4    S    
C47   C48   S    
O15   P5    S    
C24   O57   S    
C19   H6    S    
C55   H41   S    
C56   H43   S    
C67   C69   S    
C102  P4    S    
O25   P10   S    
C45   H19   S    
O35   P15   D    
C128  C133  A    
C49   H25   S    
C104  C109  A    
C71   C72   S    
C2    O54   S    
C4    P6    S    
C37   H122  S    
O30   P7    S    
C50   H29   S    
C161  H133  S    
C163  H191  S    
O28   P5    S    
C37   C96   S    
Ba4   O7    S    
O26   P11   S    
C65   H63   S    
C39   C118  A    
O42   P3    D    
C101  P16   S    
C31   H117  S    
C138  O52   S    
C141  H147  S    
C48   H22   S    
C43   O44   S    
C67   H69   S    
C71   H76   S    
C56   O49   S    
C39   C57   A    
O1    P1    D    
C166  C170  A    
C10   H157  S    
C51   H30   S    
O56   P13   S    
C139  H146  S    
C115  O3    S    
C10   C15   A    
C38   O30   S    
C19   H10   S    
C34   O27   S    
C165  H136  S    
C69   H71   S    
C68   C99   A    
O11   P10   S    
C79   C87   A    
C81   H100  S    
O59   P15   S    
O33   P14   D    
C164  H135  S    
Ba2   O37   S    
C152  C154  A    
C52   H33   S    
O5    P13   S    
C85   H130  S    
C60   C61   S    
C157  C170  A    
Ba1   P12   S    
C40   C68   A    
C3    H154  S    
C161  H190  S    
C144  H164  S    
C123  C127  A    
C99   C152  A    
C46   C97   A    
C80   O57   S    
C13   O55   S    
C75   H86   S    
C122  C126  A    
C128  C168  A    
O23   P10   D    
C73   O54   S    
Ba4   O35   S    
C112  P14   S    
C118  H159  S    
C28   H101  S    
C158  H174  S    
Ba1   O31   S    
O13   P11   S    
C80   H97   S    
C70   H75   S    
C59   H49   S    
C81   C82   S    
C49   H27   S    
O34   P11   D    
C16   P11   S    
C28   C32   S    
C1    H124  S    
C126  C166  A    
C137  O51   S    
C66   H67   S    
C116  C165  S    
C21   H138  S    
Ba3   P14   S    
C114  C163  S    
C88   C92   A    
C44   H15   S    
C145  C149  A    
C94   C121  A    
O9    P1    S    
C66   O52   S    
O24   P9    S    
C41   C140  A    
Ba3   O13   S    
C14   C132  A    
Ba4   O17   S    
C82   H104  S    
C36   C85   S    
C72   H78   S    
C4    C8    A    
C35   C41   A    
C148  C155  A    
C33   H119  S    
C34   H1    S    
C34   H120  S    
C113  H177  S    
C103  P3    S    
C69   H73   S    
C38   H127  S    
C139  C144  A    
C63   H60   S    
C163  H134  S    
Ba3   O8    S    
C26   C30   S    
C142  H148  S    
C119  C141  A    
C92   C97   A    
C127  C132  A    
C6    C10   A    
C26   H35   S    
O21   P7    D    
Ba1   O36   S    
C158  C171  A    
C58   H47   S    
C120  C142  A    
C62   H55   S    
C78   H95   S    
C12   P1    S    
C143  C147  A    
C89   C102  A    
C35   C95   A    
C15   C133  A    
C165  H189  S    
C2    C46   A    
C105  C110  A    
C110  C119  A    
Ba4   P15   S    
C53   H37   S    
C112  C121  A    
C145  H165  S    
Ba3   Ba4   S    
C89   C93   A    
C108  C112  A    
C48   C49   S    
C30   H115  S    
C122  C153  A    
C17   C21   S    
Ba1   O10   S    
O39   P4    S    
C92   C119  A    
C31   H112  S    
C144  C148  A    
C71   H77   S    
O8    P14   S    
C162  O53   S    
C100  P2    S    
O6    P12   S    
C129  H161  S    
C72   H81   S    
C76   O55   S    
C67   H70   S    
C61   H53   S    
O31   P12   D    
C43   H14   S    
O27   P6    S    
C65   H65   S    
C53   C54   S    
Ba1   O1    S    
O60   P16   S    
C172  H153  S    
Ba2   O5    S    
C82   H102  S    
C72   H80   S    
C87   C91   A    
O2    P2    S    
C109  C117  A    
C83   H143  S    
C73   H83   S    
C84   H144  S    
C74   H84   S    
C1    C34   S    
C165  H3    S    
C125  C156  A    
C168  C172  A    
Ba4   O11   S    
C17   H8    S    
C51   C52   S    
C40   C123  A    
C37   O29   S    
C159  H175  S    
C75   H87   S    
C126  C131  A    
C9    H156  S    
Ba4   O34   S    
C151  H163  S    
O19   P5    D    
C73   C74   S    
C156  C160  A    
C36   H121  S    
C64   H61   S    
C56   H44   S    
C7    P7    S    
C45   H18   S    
C90   C94   A    
C41   C124  A    
C6    C168  A    
C107  H128  S    
C13   C84   A    
C5    P5    S    
C9    C14   A    
Ba2   O9    S    
C16   C134  A    
Ba4   O39   S    
C117  C139  A    
C20   C25   S    
O3    P3    S    
C29   H106  S    
C96   H131  S    
C113  C161  S    
C64   C65   S    
C22   O46   S    
C66   C67   S    
O16   P8    S    
C116  H185  S    
C98   C150  A    
C93   C98   A    
C28   H57   S    
C54   H39   S    
C91   C117  A    
O38   P3    S    
C28   O25   S    
C30   H107  S    
C20   H7    S    
C113  O60   S    
C24   C68   A    
C32   H109  S    
C4    C166  A    
C86   C90   A    
O32   P13   D    
Ba3   P10   S    
C63   C64   S    
C80   C81   S    
C150  C153  A    
C134  C138  A    
C22   H149  S    
C55   H40   S    
Ba4   O8    S    
C54   C55   S    
C29   C33   S    
C81   H99   S    
C52   H34   S    
C58   C59   S    
C27   H46   S    
Ba2   O32   S    
C52   H32   S    
C164  H188  S    
C25   H24   S    
C77   H93   S    
C147  C152  A    
C123  C154  A    
Ba1   P1    S    
C86   H145  S    
C44   C45   S    
C20   H11   S    
C121  C143  A    
C27   C31   S    
C21   H182  S    
C137  C140  A    
C11   H158  S    
C136  O50   S    
C153  C157  A    
C100  C104  A    
C51   H31   S    
C95   C148  A    
C37   H116  S    
C133  C137  A    
C111  C120  A    
C1    H168  S    
C53   O48   S    
C55   H42   S    
C33   H110  S    
O36   P16   S    
C20   O58   S    
C3    C160  A    
C160  H176  S    
C79   H142  S    
C49   H26   S    
Ba2   O15   S    
C35   C162  A    
C21   O44   S    
C1    H129  S    
C101  C105  A    
C149  C156  A    
C50   H28   S    
O14   P6    S    
C93   C120  A    
C65   H64   S    
C44   H16   S    
C125  C130  A    
C88   C101  A    
Ba1   O14   S    
C129  C136  A    
C23   H160  S    
C18   C22   S    
Ba3   O16   S    
C24   C86   A    
C14   P9    S    
C106  C111  A    
C141  C145  A    
Ba2   P9    S    
C157  H173  S    
O43   P4    D    
C130  C169  A    
O29   P8    S    
C116  H180  S    
C87   C100  A    
O40   P16   D    
C77   C78   S    
C170  H151  S    
C161  H186  S    
C69   H72   S    
Ba1   O5    S    
C63   H59   S    
Ba3   O7    S    
Ba3   O33   S    
C47   H20   S    
C146  H166  S    
C171  H152  S    
C115  C164  S    
C85   H169  S    
C50   C51   S    
C62   H56   S    
C25   H171  S    
C78   H96   S    
Ba1   Ba2   S    
C143  H150  S    
C17   H4    S    
C114  O2    S    
C27   O24   S    
C94   C99   A    
O45   P12   S    
Ba2   O12   S    
C138  C151  A    
O18   P6    D    
Ba2   P13   S    
C105  H139  S    
C163  H187  S    
C106  H140  S    
C115  H184  S    
C159  C172  A    
C36   O28   S    
C39   C122  A    
C70   H74   S    
C59   H50   S    
O10   P9    S    
C107  H132  S    
C36   H105  S    
C7    C169  A    
C70   C71   S    
C76   H89   S    
C63   O51   S    
C19   O59   S    
C8    H155  S    
C74   C75   S    
C108  H141  S    
C167  C171  A    
O41   P2    D    
C70   O53   S    
C2    C83   A    
C38   C107  S    
C43   C44   S    
C97   C149  A    
C30   H111  S    
O58   P14   S    
Ba2   O6    S    
C96   H170  S    
C48   H23   S    
C147  H167  S    
C82   H103  S    
C17   O56   S    
O20   P8    D    
C60   O50   S    
C18   O45   S    
C19   C23   S    
C73   H82   S    
C146  C150  A    
C74   H85   S    
C155  C159  A    
C54   H38   S    
C60   H52   S    
C83   C88   A    
C102  C106  A    
C40   C129  A    
C84   C89   A    
C50   O47   S    
C59   H48   S    
C76   C77   S    
C26   O22   S    
C130  C134  A    
C85   H125  S    
C42   C46   A    
C22   H2    S    
C114  H183  S    
C78   H94   S    
C18   H9    S    
C140  H162  S    
C57   C98   A    
C115  H179  S    
O12   P9    D    
C64   H62   S    
C66   H66   S    
C45   H17   S    
C3    C169  A    
C15   P10   S    
C25   O48   S    
C60   H51   S    
C96   H126  S    
O7    P15   S    
C53   H36   S    
C5    C167  A    
C154  C158  A    
C135  O49   S    
C124  C155  A    
C164  H192  S    
C61   C62   S    
C116  O4    S    
C26   H79   S    
C29   H68   S    
C23   H13   S    
C43   H12   S    
C12   C131  A    
C23   O47   S    
C114  H178  S    
