data_mof_unit_37079.cif
_audit_creation_date              2012-12-10T17:42:36-0500
_audit_creation_method            fapswitch 2.2
_symmetry_space_group_name_H-M    P1
_symmetry_Int_Tables_number       1
_space_group_crystal_system       triclinic
_cell_length_a                    9.933998
_cell_length_b                    10.623593
_cell_length_c                    13.118032
_cell_angle_alpha                 91.351679
_cell_angle_beta                  69.880844
_cell_angle_gamma                 89.993853
_cell_volume                      1299.51913051

loop_
_atom_site_label
_atom_site_type_symbol
_atom_type_description
_atom_site_fract_x
_atom_site_fract_y
_atom_site_fract_z
_atom_type_partial_charge
C1    C     C_R   0.501198 0.739249 0.497247 0.854742
C2    C     C_R   0.368429 0.485232 0.821883 -0.119298
C3    C     C_R   0.464010 0.863573 0.313691 -0.176223
C4    C     C_R   0.420193 0.493867 0.703883 0.842093
C5    C     C_R   0.445268 0.926846 0.227498 -0.134742
C6    C     C_R   0.446084 0.057860 0.227234 -0.122605
C7    C     C_R   0.465380 0.126020 0.313258 -0.184555
C8    C     C_R   0.482937 0.063252 0.401932 0.092657
C9    C     C_R   0.482477 0.931291 0.402090 0.101507
C10   C     C_R   0.504772 0.871387 0.489912 -0.089218
C11   C     C_R   0.532450 0.937862 0.573020 -0.211148
C12   C     C_R   0.432287 0.476831 0.984126 0.115773
C13   C     C_R   0.532559 0.066464 0.572976 -0.191780
C14   C     C_R   0.505166 0.128130 0.489757 -0.094302
C15   C     C_R   0.797277 0.665919 0.642188 -0.138001
C16   C     C_R   0.501412 0.260633 0.497053 0.864167
C17   C     C_R   0.835685 0.744279 0.713971 -0.187450
C18   C     C_R   0.974209 0.741098 0.715601 -0.185819
C19   C     C_R   0.075535 0.660306 0.644775 -0.157169
C20   C     C_R   0.040476 0.579606 0.571080 0.167541
C21   C     C_R   0.896343 0.580863 0.570389 0.175423
C22   C     C_R   0.959360 0.423247 0.432260 -0.122197
C23   C     C_R   0.460524 0.440916 0.874788 0.096221
C24   C     C_R   0.102414 0.423539 0.432059 -0.106031
C25   C     C_R   0.579921 0.499210 0.295902 0.878268
C26   C     C_R   0.773723 0.368272 0.016792 0.621236
C27   C     C_R   0.628345 0.481701 0.178876 -0.147207
C28   C     C_R   0.234448 0.537682 0.882614 -0.153773
C29   C     C_R   0.196420 0.554673 0.994240 -0.119187
C30   C     C_R   0.295305 0.528037 0.044651 -0.208148
C31   C     C_R   0.542061 0.459623 0.028417 0.009786
C32   C     C_R   0.667549 0.388855 0.970233 0.026484
C33   C     C_R   0.683098 0.338027 0.867861 -0.191557
C34   C     C_R   0.580906 0.363441 0.820750 -0.218390
C35   C     C_R   0.531129 0.513046 0.128673 -0.271955
C36   C     C_R   0.752385 0.412466 0.122195 -0.295218
F1    F     F_    0.894028 0.300337 0.962754 -0.679022
H1    H     H_    0.828497 0.387459 0.161048 0.180081
H2    H     H_    0.003744 0.802156 0.771604 0.156379
H3    H     H_    0.180146 0.663512 0.649894 0.199735
H4    H     H_    0.775217 0.280071 0.823171 0.200695
H5    H     H_    0.181190 0.360936 0.376486 0.150327
H6    H     H_    0.443569 0.575668 0.172100 0.159154
H7    H     H_    0.161053 0.569242 0.843474 0.157350
H8    H     H_    0.260357 0.545137 0.131288 0.136329
H9    H     H_    0.092279 0.593839 0.041242 0.149710
H10   H     H_    0.596358 0.320328 0.741974 0.170036
H11   H     H_    0.550944 0.889903 0.639171 0.136880
H12   H     H_    0.466025 0.761880 0.309381 0.142342
H13   H     H_    0.431510 0.873996 0.160229 0.137299
H14   H     H_    0.433063 0.106858 0.159733 0.143695
H15   H     H_    0.468562 0.227508 0.308603 0.143782
H16   H     H_    0.551056 0.118266 0.639114 0.142385
H17   H     H_    0.930939 0.360472 0.376886 0.148953
H18   H     H_    0.689399 0.675827 0.645414 0.197658
H19   H     H_    0.757302 0.808174 0.768511 0.148982
N1    N     N_R   0.856860 0.501200 0.500990 -0.119751
N2    N     N_R   0.142450 0.501280 0.501020 -0.118948
O1    O     O_R   0.385310 0.683220 0.500000 -0.635193
O2    O     O_R   0.614640 0.683250 0.500010 -0.626350
O3    O     O_R   0.328400 0.499950 0.653610 -0.620138
O4    O     O_R   0.557730 0.499970 0.653620 -0.632452
O5    O     O_R   0.385360 0.316750 0.499990 -0.606544
O6    O     O_R   0.614690 0.316780 0.500000 -0.616779
O7    O     O_R   0.442270 0.500030 0.346380 -0.625127
O8    O     O_R   0.671600 0.500050 0.346390 -0.608398
Zn1   Zn    Zn3+2 0.346880 0.499980 0.499990 0.935061
Zn2   Zn    Zn3+2 0.653120 0.500020 0.500010 0.931947

loop_
_geom_bond_atom_site_label_1
_geom_bond_atom_site_label_2
_ccdc_geom_bond_type
O8    Zn2   S    
C18   H2    S    
C26   F1    S    
C21   N1    A    
C6    C7    A    
C3    C9    A    
C16   O5    A    
C6    H14   S    
C25   C27   S    
C24   H5    S    
C9    C10   A    
O3    Zn1   S    
C30   H8    S    
C2    C4    S    
C19   C20   A    
C12   C23   A    
O4    Zn2   S    
C29   H9    S    
C3    C5    A    
C23   C34   A    
C33   H4    S    
C32   C33   A    
C22   N1    A    
C36   H1    S    
C17   C18   A    
C3    H12   S    
C25   O7    A    
C7    C8    A    
C22   H17   S    
C13   C14   A    
C26   C32   A    
C11   C13   A    
C17   H19   S    
C11   H11   S    
C29   C30   A    
O6    Zn2   S    
C31   C35   A    
C26   C36   A    
C28   C29   A    
C7    H15   S    
C33   C34   A    
C13   H16   S    
O1    Zn1   S    
C1    O1    A    
C12   C31   A    
C5    C6    A    
C27   C36   A    
O5    Zn1   S    
C5    H13   S    
C1    O2    A    
C2    C28   A    
C10   C11   A    
C1    C10   S    
N1    Zn2   S    
C20   N2    A    
C4    O4    A    
N2    Zn1   S    
C15   C21   A    
C35   H6    S    
C20   C21   A    
O2    Zn2   S    
C24   N2    A    
C18   C19   A    
C19   H3    S    
C22   C24   A    
C2    C23   A    
C15   C17   A    
C8    C14   A    
C34   H10   S    
C16   O6    A    
C27   C35   A    
C14   C16   S    
C12   C30   A    
C4    O3    A    
C28   H7    S    
C25   O8    A    
C31   C32   A    
C8    C9    A    
O7    Zn1   S    
C15   H18   S    
