data_mof_unit_41489.cif
_audit_creation_date              2012-12-10T17:23:38-0500
_audit_creation_method            fapswitch 2.2
_symmetry_space_group_name_H-M    P1
_symmetry_Int_Tables_number       1
_space_group_crystal_system       triclinic
_cell_length_a                    10.219457
_cell_length_b                    10.640687
_cell_length_c                    15.682897
_cell_angle_alpha                 91.444445
_cell_angle_beta                  82.80488
_cell_angle_gamma                 96.1998
_cell_volume                      1681.94727795

loop_
_atom_site_label
_atom_site_type_symbol
_atom_type_description
_atom_site_fract_x
_atom_site_fract_y
_atom_site_fract_z
_atom_type_partial_charge
C1    C     C_R   0.556041 0.733114 0.490787 0.915493
C2    C     C_3   0.519080 0.385550 0.969123 -0.169685
C3    C     C_3   0.590336 0.588142 0.967148 -0.168302
C4    C     C_3   0.398268 0.412670 0.034083 -0.160550
C5    C     C_1   0.502039 0.499868 0.750747 -0.207514
C6    C     C_1   0.494536 0.500224 0.249655 -0.175299
C7    C     C_3   0.376292 0.527317 0.980782 -0.161470
C8    C     C_3   0.612149 0.473569 0.020417 -0.176983
C9    C     C_3   0.497111 0.500145 0.917659 0.218535
C10   C     C_3   0.491512 0.500723 0.083500 0.214179
C11   C     C_1   0.500097 0.499926 0.826394 -0.103757
C12   C     C_R   0.444300 0.266438 0.502598 0.916156
C13   C     C_1   0.491906 0.500580 0.174453 -0.080386
C14   C     C_2   0.587339 0.866360 0.472919 -0.367506
C15   C     C_2   0.415485 0.131058 0.493579 -0.367925
C16   C     C_3   0.009832 0.242274 0.496630 0.037873
C17   C     C_3   0.072286 0.120155 0.503881 -0.336275
C18   C     C_3   0.969513 0.004671 0.505510 -0.948739
C19   C     C_3   0.923394 0.484409 0.674958 0.027183
C20   C     C_3   0.827924 0.480781 0.757822 -0.279586
C21   C     C_3   0.897899 0.452803 0.834608 -1.006906
C22   C     C_3   0.181720 0.737173 0.605056 -0.188101
C23   C     C_2   0.490220 0.930599 0.453393 -0.169863
C24   C     C_3   0.839861 0.360105 0.333652 -0.156166
C25   C     C_2   0.508818 0.065888 0.451740 -0.154472
C26   C     C_2   0.918813 0.480026 0.525850 0.542959
C27   C     C_2   0.067722 0.461992 0.512705 0.543539
C28   C     C_R   0.501177 0.500155 0.661705 0.892198
C29   C     C_R   0.498361 0.499794 0.338362 0.880158
C30   C     C_3   0.469566 0.615356 0.032085 -0.160793
H1    H     H_    0.669146 0.659425 0.937462 0.135092
H2    H     H_    0.686288 0.912353 0.477872 0.161570
H3    H     H_    0.953942 0.232176 0.440551 0.178045
H4    H     H_    0.939874 0.251130 0.556163 0.090993
H5    H     H_    0.149066 0.111057 0.447943 0.241611
H6    H     H_    0.117736 0.123819 0.564711 0.211166
H7    H     H_    0.890457 0.011541 0.560390 0.260542
H8    H     H_    0.018266 0.917891 0.512748 0.297569
H9    H     H_    0.924438 0.996926 0.444471 0.260132
H10   H     H_    0.008874 0.554476 0.684010 0.170793
H11   H     H_    0.958043 0.388918 0.665497 0.095629
H12   H     H_    0.319687 0.341152 0.063725 0.134656
H13   H     H_    0.786939 0.573279 0.768482 0.230258
H14   H     H_    0.745554 0.405140 0.752178 0.227565
H15   H     H_    0.940743 0.361133 0.825009 0.267186
H16   H     H_    0.825698 0.446851 0.893529 0.270185
H17   H     H_    0.978198 0.529251 0.843612 0.263265
H18   H     H_    0.250189 0.814621 0.573399 0.171314
H19   H     H_    0.235142 0.679964 0.644809 0.168101
H20   H     H_    0.107541 0.782615 0.649862 0.135410
H21   H     H_    0.806073 0.412880 0.281868 0.183370
H22   H     H_    0.755430 0.300438 0.369101 0.150234
H23   H     H_    0.449128 0.709140 0.060098 0.134127
H24   H     H_    0.908735 0.295011 0.301302 0.125218
H25   H     H_    0.539849 0.291872 0.941063 0.132750
H26   H     H_    0.707971 0.451601 0.039725 0.130007
H27   H     H_    0.279953 0.549248 0.962267 0.132318
H28   H     H_    0.604415 0.111146 0.423590 0.170857
H29   H     H_    0.391000 0.885116 0.448160 0.197319
H30   H     H_    0.324328 0.082800 0.524740 0.135301
N1    N     N_2   0.842700 0.448880 0.465440 0.027971
N2    N     N_2   0.157300 0.551120 0.534560 0.035657
O1    O     O_R   0.431060 0.692470 0.506960 -0.617173
O2    O     O_3   0.859466 0.520423 0.605402 -0.624393
O3    O     O_3   0.114455 0.667171 0.543379 -0.572601
O4    O     O_3   0.910883 0.444986 0.385846 -0.567915
O5    O     O_R   0.568940 0.307530 0.493040 -0.642986
O6    O     O_R   0.651120 0.659650 0.484770 -0.572184
O7    O     O_R   0.348880 0.340350 0.515230 -0.558369
O8    O     O_R   0.389990 0.516420 0.634310 -0.645415
O9    O     O_R   0.610010 0.483580 0.365690 -0.626191
O10   O     O_R   0.610050 0.483600 0.612130 -0.557594
O11   O     O_R   0.389950 0.516400 0.387870 -0.572471
O12   O     O_3   0.110375 0.345823 0.484162 -0.628189
Zn1   Zn    Zn3+2 0.353060 0.521920 0.514810 1.006554
Zn2   Zn    Zn3+2 0.646940 0.478080 0.485190 1.004722

loop_
_geom_bond_atom_site_label_1
_geom_bond_atom_site_label_2
_ccdc_geom_bond_type
C24   H22   S    
C22   H18   S    
C12   O7    A    
C15   H30   S    
C19   C20   S    
O10   Zn2   S    
C8    H26   S    
C12   O5    A    
C23   H29   S    
C26   C27   S    
O1    Zn1   S    
C16   O12   S    
C18   H7    S    
C5    C11   T    
C2    H25   S    
O9    Zn2   S    
C15   C25   D    
C29   O11   A    
C24   H24   S    
C1    O6    A    
C26   O2    S    
C16   H4    S    
N1    O4    S    
C16   C17   S    
C17   H6    S    
C27   O12   S    
C24   O4    S    
C22   H20   S    
C24   H21   S    
C7    C30   S    
O11   Zn1   S    
C28   O10   A    
C4    C7    S    
C1    O1    A    
C20   H14   S    
C21   H15   S    
N1    Zn2   S    
C30   H23   S    
C28   O8    A    
C3    C8    S    
C14   C23   D    
C3    C30   S    
C2    C4    S    
C18   H9    S    
C22   O3    S    
C3    C9    S    
C27   N2    D    
C16   H3    S    
C5    C28   S    
C10   C30   S    
C12   C15   S    
C19   O2    S    
C17   C18   S    
C3    H1    S    
C9    C11   S    
C22   H19   S    
N2    Zn1   S    
C25   H28   S    
C4    C10   S    
C20   H13   S    
C21   H16   S    
C7    C9    S    
N2    O3    S    
C26   N1    D    
C2    C8    S    
C14   H2    S    
C10   C13   S    
O5    Zn2   S    
O6    Zn2   S    
C18   H8    S    
C6    C13   T    
C4    H12   S    
O7    Zn1   S    
C23   C25   S    
C19   H10   S    
C6    C29   S    
C20   C21   S    
C8    C10   S    
O8    Zn1   S    
C1    C14   S    
C17   H5    S    
C29   O9    A    
C2    C9    S    
C7    H27   S    
C19   H11   S    
C21   H17   S    
