data_mof_unit_65710.cif
_audit_creation_date              2012-12-11T16:10:58-0500
_audit_creation_method            fapswitch 2.2
_symmetry_space_group_name_H-M    P1
_symmetry_Int_Tables_number       1
_space_group_crystal_system       triclinic
_cell_length_a                    12.857573
_cell_length_b                    13.290524
_cell_length_c                    26.962643
_cell_angle_alpha                 97.314421
_cell_angle_beta                  90.097517
_cell_angle_gamma                 118.923732
_cell_volume                      3989.30747353

loop_
_atom_site_label
_atom_site_type_symbol
_atom_type_description
_atom_site_fract_x
_atom_site_fract_y
_atom_site_fract_z
_atom_type_partial_charge
C1    C     C_R   0.627905 0.894734 0.424324 0.541881
C2    C     C_R   0.593349 0.241443 0.217413 -0.100898
C3    C     C_R   0.582304 0.227272 0.267846 -0.100170
C4    C     C_R   0.667006 0.312434 0.304536 0.037497
C5    C     C_R   0.689536 0.340572 0.203647 0.037704
C6    C     C_1   0.695305 0.362006 0.152808 -0.051150
C7    C     C_1   0.653367 0.295670 0.355973 -0.050977
C8    C     C_1   0.702361 0.389945 0.111823 -0.004288
C9    C     C_1   0.113173 0.805554 0.135213 -0.003809
C10   C     C_1   0.139600 0.824023 0.179535 -0.041305
C11   C     C_1   0.160040 0.837037 0.231868 -0.004127
C12   C     C_R   0.601782 0.223370 0.443116 0.544681
C13   C     C_1   0.174704 0.844095 0.276525 -0.004261
C14   C     C_1   0.194907 0.851058 0.328504 -0.041277
C15   C     C_1   0.220978 0.859384 0.372279 -0.002741
C16   C     C_1   0.689230 0.799005 0.136169 -0.002110
C17   C     C_1   0.672726 0.808826 0.179983 -0.036048
C18   C     C_1   0.661619 0.818270 0.232057 0.004203
C19   C     C_1   0.655924 0.827505 0.276789 0.003789
C20   C     C_1   0.650318 0.842577 0.329148 -0.035897
C21   C     C_1   0.643015 0.861831 0.373435 -0.000207
C22   C     C_1   0.694101 0.385323 0.874733 0.001141
C23   C     C_R   0.268468 0.875615 0.422443 0.542276
C24   C     C_1   0.685240 0.359319 0.829944 -0.033122
C25   C     C_1   0.676820 0.338828 0.777201 0.007067
C26   C     C_1   0.668324 0.323619 0.732113 0.009331
C27   C     C_1   0.653959 0.302334 0.679399 -0.027203
C28   C     C_1   0.635220 0.275284 0.634679 0.007844
C29   C     C_1   0.215149 0.862599 0.608509 0.068798
C30   C     C_R   0.230980 0.799571 0.727742 0.223317
C31   C     C_R   0.223370 0.796114 0.778990 -0.071263
C32   C     C_R   0.087657 0.874315 0.780418 -0.128197
C33   C     C_R   0.093534 0.878597 0.728643 0.023815
C34   C     C_R   0.630896 0.897939 0.563393 0.551537
C35   C     C_R   0.166314 0.840489 0.702269 0.020631
C36   C     C_R   0.152314 0.833594 0.805199 -0.032445
C37   C     C_1   0.134486 0.817957 0.856468 -0.045733
C38   C     C_1   0.185842 0.851544 0.650482 0.075616
C39   C     C_1   0.108348 0.797832 0.898071 0.001269
C40   C     C_1   0.653478 0.859453 0.606902 0.014214
C41   C     C_R   0.720318 0.737029 0.705990 -0.072302
C42   C     C_R   0.730177 0.719041 0.755325 -0.092676
C43   C     C_R   0.646931 0.844266 0.783704 -0.075476
C44   C     C_R   0.637803 0.862696 0.734687 -0.045670
C45   C     C_R   0.602892 0.227113 0.582938 0.546481
C46   C     C_R   0.674918 0.809682 0.695922 0.067782
C47   C     C_R   0.693620 0.773075 0.794059 0.041973
C48   C     C_1   0.709027 0.761059 0.844924 -0.053192
C49   C     C_1   0.666178 0.832919 0.646359 -0.022390
C50   C     C_1   0.724413 0.755317 0.888048 -0.004525
C51   C     C_R   0.065183 0.771833 0.084229 0.545935
C52   C     C_R   0.715911 0.438619 0.066606 0.547740
C53   C     C_R   0.720160 0.782365 0.086078 0.556454
C54   C     C_R   0.059882 0.765168 0.944388 0.538527
C55   C     C_R   0.709593 0.432372 0.926591 0.535646
C56   C     C_R   0.267779 0.879242 0.561892 0.548031
C57   C     C_R   0.747464 0.751560 0.939114 0.560370
C58   C     C_1   0.634432 0.270485 0.397455 -0.003075
C59   C     C_R   0.764124 0.410892 0.290759 -0.101370
C60   C     C_R   0.775219 0.425045 0.240264 -0.100388
Cr1   Cr    Cr6+3 0.416010 0.828400 0.490230 1.061088
Cr2   Cr    Cr6+3 0.676380 0.087280 0.505260 1.051557
Cr3   Cr    Cr6+3 0.407590 0.084280 0.504540 1.053291
Cr4   Cr    Cr6+3 0.914090 0.832340 0.018020 1.038087
Cr5   Cr    Cr6+3 0.923310 0.576840 0.003860 1.039863
Cr6   Cr    Cr6+3 0.654200 0.573160 0.004700 1.044977
H1    H     H_    0.830221 0.476764 0.318913 0.117865
H2    H     H_    0.767386 0.664569 0.763343 0.112804
H3    H     H_    0.619192 0.886738 0.813582 0.120619
H4    H     H_    0.602670 0.919094 0.727029 0.148678
H5    H     H_    0.849207 0.502727 0.229841 0.118858
H6    H     H_    0.526068 0.176483 0.189383 0.117351
H7    H     H_    0.507177 0.150483 0.278310 0.118482
H8    H     H_    0.271633 0.762704 0.798228 0.155072
H9    H     H_    0.030432 0.900119 0.801454 0.160821
H10   H     H_    0.749399 0.696060 0.676060 0.129945
O1    O     O_R   0.294740 0.800910 0.434410 -0.505360
O2    O     O_R   0.664100 0.185180 0.560770 -0.490516
O3    O     O_R   0.500290 0.202770 0.565360 -0.498362
O4    O     O_R   0.310570 0.979360 0.548520 -0.495011
O5    O     O_3   0.499990 0.999990 0.500010 -0.262288
O6    O     O_R   0.819910 0.858260 0.073860 -0.498120
O7    O     O_R   0.018180 0.827180 0.067430 -0.492983
O8    O     O_R   0.044260 0.672570 0.062730 -0.500386
O9    O     O_R   0.818270 0.481940 0.049130 -0.490936
O10   O     O_R   0.635480 0.460400 0.052590 -0.501842
O11   O     O_R   0.662650 0.681410 0.060750 -0.487163
O12   O     O_R   0.526010 0.837250 0.440870 -0.496488
O13   O     O_R   0.814500 0.852290 0.965490 -0.497420
O14   O     O_R   0.013160 0.821640 0.966980 -0.512680
O15   O     O_R   0.038850 0.666600 0.954370 -0.499505
O16   O     O_R   0.813260 0.476410 0.948680 -0.494047
O17   O     O_R   0.630060 0.454430 0.944230 -0.508460
O18   O     O_R   0.657630 0.675880 0.960300 -0.486700
O19   O     O_3   0.830530 0.660780 0.008860 -0.282526
O20   O     O_R   0.704290 0.994500 0.446090 -0.502764
O21   O     O_R   0.662870 0.181760 0.460430 -0.493416
O22   O     O_R   0.498970 0.199080 0.457120 -0.502626
O23   O     O_R   0.309350 0.975930 0.448180 -0.493510
O24   O     O_R   0.296060 0.804610 0.542650 -0.486468
O25   O     O_R   0.527240 0.840670 0.541200 -0.481219
O26   O     O_R   0.705610 0.998200 0.554330 -0.504219
Cl1   Cl    Cl    0.323376 0.752042 0.696489 -0.626203
C61   C     C_2   0.022840 0.922295 0.703682 0.567598
O27   O     O_2   0.986210 0.980420 0.728809 -0.512485
O28   O     O_R   0.995700 0.895714 0.651814 -0.713869
H11   H     H_    0.946268 0.929760 0.639816 0.343364

loop_
_geom_bond_atom_site_label_1
_geom_bond_atom_site_label_2
_ccdc_geom_bond_type
Cr5   O16   S    
C23   O23   A    
C1    C21   S    
Cr2   O20   S    
C33   C61   S    
C41   C42   A    
C19   C20   S    
C9    C51   S    
Cr4   O14   S    
C55   O17   A    
C32   H9    S    
C61   O28   S    
Cr3   O3    S    
C46   C49   S    
C26   C27   S    
C34   O26   A    
C57   O13   A    
C30   C35   A    
Cr3   O5    S    
C34   C40   S    
C32   C36   A    
C52   O9    A    
C54   O14   A    
Cr3   O22   S    
C5    C6    S    
C39   C54   S    
O28   H11   S    
C40   C49   T    
C18   C19   T    
C16   C53   S    
Cr3   O23   S    
C59   H1    S    
Cr1   O1    S    
C16   C17   T    
C30   Cl1   S    
C41   C46   A    
C44   H4    S    
C45   O2    A    
C9    C10   T    
C8    C52   S    
C7    C58   T    
C12   O22   A    
Cr6   O18   S    
C12   C58   S    
C1    O12   A    
C15   C23   S    
C59   C60   A    
C43   H3    S    
C13   C14   S    
C42   H2    S    
Cr4   O13   S    
C4    C7    S    
C2    H6    S    
C61   O27   D    
C44   C46   A    
Cr3   O4    S    
C28   C45   S    
C34   O25   A    
C35   C38   S    
C24   C25   S    
C53   O11   A    
Cr6   O11   S    
Cr5   O8    S    
C6    C8    T    
C60   H5    S    
C25   C26   T    
C53   O6    A    
C29   C38   T    
Cr1   O25   S    
C43   C44   A    
Cr4   O7    S    
C55   O16   A    
Cr1   O12   S    
Cr2   O21   S    
C47   C48   S    
C17   C18   S    
C45   O3    A    
C23   O1    A    
Cr4   O6    S    
C12   O21   A    
Cr6   O17   S    
Cr2   O5    S    
C57   O18   A    
C22   C24   T    
Cr1   O24   S    
C56   O24   A    
C3    C4    A    
C51   O7    A    
Cr5   O15   S    
C36   C37   S    
C5    C60   A    
C31   C36   A    
C50   C57   S    
Cr2   O2    S    
Cr4   O19   S    
C31   H8    S    
Cr6   O10   S    
Cr5   O9    S    
C22   C55   S    
C29   C56   S    
C56   O4    A    
C32   C33   A    
C52   O10   A    
C2    C3    A    
C54   O15   A    
C37   C39   T    
Cr1   O5    S    
C41   H10   S    
C11   C13   T    
C30   C31   A    
C1    O20   A    
C4    C59   A    
C48   C50   T    
C33   C35   A    
C42   C47   A    
C3    H7    S    
C10   C11   S    
C2    C5    A    
Cr5   O19   S    
C20   C21   T    
C27   C28   T    
C14   C15   T    
C43   C47   A    
C51   O8    A    
Cr6   O19   S    
Cr2   O26   S    
