data_mof_unit_43284.cif
_audit_creation_date              2012-10-26T19:27:34-0400
_audit_creation_method            fapswitch 2.2
_symmetry_space_group_name_H-M    P1
_symmetry_Int_Tables_number       1
_space_group_crystal_system       triclinic
_cell_length_a                    20.848504
_cell_length_b                    21.344438
_cell_length_c                    14.787134
_cell_angle_alpha                 90.000539
_cell_angle_beta                  128.367459
_cell_angle_gamma                 90.000131
_cell_volume                      5159.23410215

loop_
_atom_site_label
_atom_site_type_symbol
_atom_type_description
_atom_site_fract_x
_atom_site_fract_y
_atom_site_fract_z
_atom_type_partial_charge
C1    C     C_R   0.603824 0.914696 0.632866 0.545210
C2    C     C_R   0.647603 0.245099 0.045627 -0.132602
C3    C     C_R   0.742067 0.790105 0.989542 0.032716
C4    C     C_R   0.200881 0.742435 0.937867 0.033358
C5    C     C_R   0.757938 0.290123 0.010435 0.032715
C6    C     C_R   0.799081 0.742383 0.062056 0.033361
C7    C     C_R   0.242015 0.290106 0.989529 0.032714
C8    C     C_R   0.305335 0.817301 0.981975 -0.139407
C9    C     C_R   0.644232 0.222483 0.954828 -0.139714
C10   C     C_R   0.694750 0.817338 0.018096 -0.139399
C11   C     C_R   0.355805 0.222541 0.045242 -0.139713
C12   C     C_R   0.805336 0.317302 0.981974 -0.139414
C13   C     C_R   0.698833 0.795271 0.109787 -0.135157
C14   C     C_R   0.144246 0.722472 0.954846 -0.139714
C15   C     C_R   0.194551 0.317238 0.017915 -0.139421
C16   C     C_R   0.855634 0.722348 0.044963 -0.139693
C17   C     C_R   0.352458 0.245178 0.954477 -0.132597
C18   C     C_R   0.801278 0.295213 0.890314 -0.135158
C19   C     C_R   0.147619 0.745087 0.045646 -0.132593
C20   C     C_R   0.198581 0.295127 0.109539 -0.135149
C21   C     C_R   0.852235 0.744942 0.954131 -0.132601
C22   C     C_R   0.322939 0.984264 0.664169 -0.178210
C23   C     C_R   0.677062 0.984273 0.335830 -0.178221
C24   C     C_R   0.822937 0.484272 0.664167 -0.178218
C25   C     C_R   0.397871 0.086681 0.369290 0.545779
C26   C     C_R   0.177060 0.484263 0.335829 -0.178205
C27   C     C_R   0.352391 0.990726 0.602193 -0.005642
C28   C     C_R   0.647610 0.990731 0.397807 -0.005653
C29   C     C_R   0.852389 0.490734 0.602191 -0.005649
C30   C     C_R   0.147609 0.490729 0.397806 -0.005640
C31   C     C_R   0.488107 0.003980 0.775972 0.373045
C32   C     C_R   0.511892 0.003977 0.224028 0.373031
C33   C     C_R   0.988108 0.503970 0.775973 0.373036
C34   C     C_R   0.011892 0.503972 0.224027 0.373050
C35   C     C_R   0.462338 0.992604 0.844969 -0.002347
C36   C     C_R   0.396174 0.914698 0.367130 0.545212
C37   C     C_R   0.537662 0.992604 0.155031 -0.002354
C38   C     C_R   0.962338 0.492595 0.844968 -0.002365
C39   C     C_R   0.037660 0.492594 0.155029 -0.002357
C40   C     C_R   0.377298 0.984910 0.785029 0.010067
C41   C     C_R   0.622702 0.984917 0.214971 0.010065
C42   C     C_R   0.877297 0.484911 0.785026 0.010059
C43   C     C_R   0.122700 0.484903 0.214970 0.010062
C44   C     C_R   0.516445 0.988165 0.969408 0.012303
C45   C     C_R   0.483555 0.988163 0.030592 0.012295
C46   C     C_R   0.016444 0.488150 0.969407 0.012278
C47   C     C_R   0.602127 0.086683 0.630708 0.545777
C48   C     C_R   0.983553 0.488153 0.030590 0.012286
C49   C     C_R   0.398691 0.978033 0.965672 -0.154328
C50   C     C_R   0.601310 0.978043 0.034328 -0.154333
C51   C     C_R   0.898688 0.478028 0.965669 -0.154347
C52   C     C_R   0.101306 0.478016 0.034326 -0.154337
C53   C     C_R   0.346985 0.976266 0.845837 -0.138594
C54   C     C_R   0.653017 0.976278 0.154163 -0.138619
C55   C     C_R   0.846982 0.476267 0.845833 -0.138603
C56   C     C_R   0.153013 0.476253 0.154161 -0.138572
C57   C     C_R   0.655922 0.139745 0.698872 -0.002729
C58   C     C_R   0.103827 0.414700 0.632872 0.545210
C59   C     C_R   0.332515 0.869470 0.286466 -0.002536
C60   C     C_R   0.344060 0.139733 0.301107 -0.002720
C61   C     C_R   0.667465 0.869452 0.713503 -0.002544
C62   C     C_R   0.155924 0.639743 0.698874 -0.002727
C63   C     C_R   0.832510 0.369472 0.286462 -0.002540
C64   C     C_R   0.844084 0.639748 0.301134 -0.002738
C65   C     C_R   0.167495 0.369482 0.713549 -0.002528
C66   C     C_R   0.751694 0.220287 0.737472 -0.132633
C67   C     C_R   0.213387 0.807200 0.218655 -0.132021
C68   C     C_R   0.248175 0.220202 0.262382 -0.132630
C69   C     C_R   0.897873 0.586683 0.369293 0.545775
C70   C     C_R   0.786487 0.807083 0.781164 -0.132027
C71   C     C_R   0.251688 0.720290 0.737466 -0.132629
C72   C     C_R   0.713374 0.307211 0.218639 -0.132026
C73   C     C_R   0.748407 0.720351 0.262632 -0.132630
C74   C     C_R   0.286699 0.307289 0.781471 -0.132023
C75   C     C_R   0.703685 0.168497 0.673855 -0.136895
C76   C     C_R   0.274783 0.848468 0.299025 -0.137141
C77   C     C_R   0.296221 0.168434 0.326035 -0.136889
C78   C     C_R   0.725129 0.848390 0.700852 -0.137145
C79   C     C_R   0.203680 0.668500 0.673850 -0.136889
C80   C     C_R   0.896173 0.414698 0.367129 0.545205
C81   C     C_R   0.774774 0.348475 0.299014 -0.137140
C82   C     C_R   0.796388 0.668546 0.326224 -0.136894
C83   C     C_R   0.225284 0.348534 0.701068 -0.137137
C84   C     C_R   0.656236 0.163536 0.787123 -0.130169
C85   C     C_R   0.327835 0.849253 0.192649 -0.127640
C86   C     C_R   0.343790 0.163556 0.212914 -0.130163
C87   C     C_R   0.672183 0.849266 0.807364 -0.127663
C88   C     C_R   0.156245 0.663529 0.787133 -0.130171
C89   C     C_R   0.827832 0.349255 0.192646 -0.127642
C90   C     C_R   0.843722 0.663499 0.212822 -0.130171
C91   C     C_R   0.102128 0.586682 0.630709 0.545780
C92   C     C_R   0.172133 0.349233 0.807317 -0.127626
C93   C     C_R   0.701707 0.216947 0.849718 0.029232
C94   C     C_R   0.264765 0.809615 0.108101 0.030118
C95   C     C_R   0.298267 0.216940 0.150265 0.029236
C96   C     C_R   0.735216 0.809583 0.891852 0.030112
C97   C     C_R   0.201713 0.716942 0.849726 0.029234
C98   C     C_R   0.764757 0.309620 0.108093 0.030117
C99   C     C_R   0.798282 0.716923 0.150246 0.029233
C100  C     C_R   0.235226 0.309624 0.891905 0.030121
C101  C     C_R   0.751627 0.244355 0.825701 0.051188
C102  C     C_R   0.301274 0.795214 0.890311 -0.135151
C103  C     C_R   0.208325 0.787261 0.124003 0.052732
C104  C     C_R   0.248274 0.244295 0.174196 0.051186
C105  C     C_R   0.791580 0.787164 0.875849 0.052732
C106  C     C_R   0.251626 0.744354 0.825701 0.051188
C107  C     C_R   0.708312 0.287270 0.123988 0.052731
C108  C     C_R   0.748439 0.744386 0.174353 0.051190
C109  C     C_R   0.291727 0.287324 0.876082 0.052730
C110  C     C_R   0.700871 0.242442 0.937855 0.033356
C111  C     C_R   0.257944 0.790119 0.010442 0.032717
C112  C     C_R   0.299118 0.242454 0.062153 0.033359
Cu1   Cu    Cu3+1 0.526640 0.000000 0.436960 0.990323
Cu2   Cu    Cu3+1 0.473360 0.000000 0.563040 0.990337
Cu3   Cu    Cu3+1 0.026640 0.500000 0.436960 0.990337
Cu4   Cu    Cu3+1 0.973360 0.500000 0.563040 0.990326
H1    H     H_    0.338531 0.817399 0.871368 0.115582
H2    H     H_    0.629039 0.967494 0.994295 0.156368
H3    H     H_    0.870959 0.467476 0.005701 0.156385
H4    H     H_    0.129031 0.467457 0.994290 0.156405
H5    H     H_    0.375468 0.863950 0.188826 0.134764
H6    H     H_    0.621825 0.138618 0.807381 0.141435
H7    H     H_    0.624603 0.864017 0.811263 0.134797
H8    H     H_    0.378277 0.138681 0.192740 0.141399
H9    H     H_    0.875469 0.363947 0.188829 0.134763
H10   H     H_    0.121841 0.638606 0.807400 0.141428
H11   H     H_    0.124455 0.363884 0.811073 0.134733
H12   H     H_    0.603116 0.228598 0.055605 0.103597
H13   H     H_    0.878081 0.638544 0.192515 0.141463
H14   H     H_    0.277093 0.863796 0.370822 0.125960
H15   H     H_    0.704015 0.151025 0.605387 0.130750
H16   H     H_    0.722789 0.863693 0.629020 0.125972
H17   H     H_    0.295853 0.150935 0.394456 0.130750
H18   H     H_    0.777083 0.363804 0.370809 0.125957
H19   H     H_    0.204005 0.651030 0.605376 0.130755
H20   H     H_    0.223006 0.363888 0.629312 0.125950
H21   H     H_    0.796094 0.651104 0.394741 0.130749
H22   H     H_    0.289025 0.741488 0.717861 0.107933
H23   H     H_    0.661631 0.817494 0.128794 0.115576
H24   H     H_    0.669830 0.290816 0.230493 0.106406
H25   H     H_    0.711122 0.741586 0.282295 0.107921
H26   H     H_    0.330286 0.290933 0.769673 0.106420
H27   H     H_    0.789036 0.241481 0.717873 0.107925
H28   H     H_    0.169848 0.790802 0.230515 0.106424
H29   H     H_    0.210774 0.241356 0.281912 0.107936
H30   H     H_    0.829970 0.790634 0.769228 0.106405
H31   H     H_    0.344712 0.857064 0.026963 0.107750
H32   H     H_    0.594672 0.190691 0.897240 0.098569
H33   H     H_    0.655414 0.857125 0.973155 0.107732
H34   H     H_    0.396983 0.228712 0.944550 0.103600
H35   H     H_    0.405381 0.190768 0.102850 0.098562
H36   H     H_    0.844716 0.357063 0.026965 0.107750
H37   H     H_    0.094689 0.690678 0.897261 0.098565
H38   H     H_    0.155135 0.356977 0.972888 0.107761
H39   H     H_    0.905147 0.690508 0.102471 0.098543
H40   H     H_    0.282294 0.967989 0.800176 0.116715
H41   H     H_    0.717708 0.968006 0.199824 0.116700
H42   H     H_    0.782290 0.467996 0.800170 0.116717
H43   H     H_    0.217703 0.467975 0.199823 0.116729
H44   H     H_    0.689480 0.987924 0.490950 0.126120
H45   H     H_    0.838540 0.317395 0.871377 0.115572
H46   H     H_    0.310520 0.987916 0.509050 0.126102
H47   H     H_    0.189481 0.487924 0.490950 0.126099
H48   H     H_    0.810518 0.487931 0.509048 0.126115
H49   H     H_    0.257917 0.977414 0.617672 0.103483
H50   H     H_    0.742084 0.977428 0.382328 0.103482
H51   H     H_    0.757914 0.477429 0.617668 0.103486
H52   H     H_    0.242082 0.477415 0.382327 0.103487
H53   H     H_    0.418162 0.054779 0.117154 0.288450
H54   H     H_    0.581831 0.054789 0.882845 0.288430
H55   H     H_    0.918160 0.554770 0.117147 0.288400
H56   H     H_    0.103136 0.728582 0.055630 0.103627
H57   H     H_    0.081847 0.554763 0.882861 0.288429
H58   H     H_    0.161263 0.317271 0.128414 0.115573
H59   H     H_    0.896656 0.728381 0.944063 0.103621
H60   H     H_    0.370964 0.967479 0.005706 0.156388
N1    N     N_R   0.433280 0.000000 0.657760 -0.200393
N2    N     N_R   0.566720 0.000000 0.342240 -0.200404
N3    N     N_R   0.933280 0.500000 0.657760 -0.200402
N4    N     N_R   0.066720 0.500000 0.342240 -0.200394
O1    O     O_R   0.600040 0.935040 0.546740 -0.520836
O2    O     O_R   0.444990 0.064930 0.346780 -0.447486
O3    O     O_R   0.444990 0.935070 0.346780 -0.468692
O4    O     O_R   0.555010 0.064930 0.653220 -0.447474
O5    O     O_R   0.055010 0.435070 0.653220 -0.468684
O6    O     O_R   0.944990 0.564930 0.346780 -0.447486
O7    O     O_R   0.944990 0.435070 0.346780 -0.468688
O8    O     O_R   0.055010 0.564930 0.653220 -0.447491
O9    O     O_3   0.433660 0.022488 0.175805 -0.685404
O10   O     O_3   0.566337 0.022498 0.824195 -0.685440
O11   O     O_3   0.933660 0.522482 0.175803 -0.685439
O12   O     O_R   0.399960 0.064960 0.453260 -0.519309
O13   O     O_3   0.066343 0.522476 0.824199 -0.685408
O14   O     O_R   0.399960 0.935040 0.453260 -0.520833
O15   O     O_R   0.600040 0.064960 0.546740 -0.519312
O16   O     O_R   0.100040 0.435040 0.546740 -0.520834
O17   O     O_R   0.899960 0.564960 0.453260 -0.519310
O18   O     O_R   0.899960 0.435040 0.453260 -0.520833
O19   O     O_R   0.100040 0.564960 0.546740 -0.519307
O20   O     O_R   0.555010 0.935070 0.653220 -0.468702

loop_
_geom_bond_atom_site_label_1
_geom_bond_atom_site_label_2
_ccdc_geom_bond_type
C65   C92   A    
C87   H7    S    
C91   O8    A    
C16   C21   A    
C70   C78   A    
C24   C42   A    
C12   H36   S    
C34   N4    A    
C17   H34   S    
C29   H48   S    
H53   O9    S    
C74   C83   A    
C96   C105  A    
C36   C59   S    
C74   C109  A    
C71   C79   A    
C67   C103  A    
C81   H18   S    
C73   H25   S    
C95   C104  A    
C99   C108  A    
Cu4   O8    S    
C31   O10   S    
C26   H52   S    
C19   C103  A    
C50   C54   A    
C31   N1    A    
C37   C41   A    
C13   H23   S    
C47   O15   A    
C34   O11   S    
C38   C42   A    
C56   H43   S    
C95   C112  A    
C10   H33   S    
C18   H45   S    
Cu2   O4    S    
C65   C83   A    
C33   N3    A    
C5    C110  A    
C84   H6    S    
Cu3   Cu4   S    
C46   C52   A    
C2    C107  A    
C28   H44   S    
Cu3   O7    S    
C7    C112  A    
C78   H16   S    
C24   C29   A    
C15   H38   S    
C88   H10   S    
C61   C87   A    
C22   H49   S    
C76   H14   S    
C48   C51   A    
Cu1   O1    S    
C21   H59   S    
C51   H3    S    
C10   C13   A    
C85   H5    S    
C3    C96   A    
C70   H30   S    
C25   C60   S    
C64   C90   A    
C61   C78   A    
C72   C81   A    
C93   C110  A    
C91   O19   A    
C3    C6    A    
C7    C15   A    
Cu1   N2    S    
C74   H26   S    
C33   O13   S    
C100  C109  A    
Cu2   O20   S    
C4    C97   A    
C87   C96   A    
C58   O5    A    
C69   O17   A    
Cu1   O15   S    
C66   C101  A    
C32   N2    A    
C77   H17   S    
C30   H47   S    
C13   C108  A    
C67   H28   S    
C75   H15   S    
C26   C43   A    
C71   H22   S    
C46   C48   A    
C63   C80   S    
C55   H42   S    
C15   C20   A    
C68   C77   A    
C20   H58   S    
C60   C77   A    
Cu2   O12   S    
C7    C100  A    
C34   C39   A    
C27   N1    A    
C62   C79   A    
C24   H51   S    
C19   H56   S    
C5    C12   A    
C8    C111  A    
C93   C101  A    
Cu3   O6    S    
C60   C86   A    
C22   C40   A    
C73   C108  A    
C89   H9    S    
C66   H27   S    
C90   C99   A    
C23   C28   A    
Cu3   O19   S    
C25   O12   A    
C98   C107  A    
C1    C61   S    
C18   C101  A    
C28   N2    A    
C59   C85   A    
C42   C55   A    
C47   C57   S    
C23   H50   S    
Cu4   O18   S    
C85   C94   A    
C58   C65   S    
Cu1   O2    S    
C72   C107  A    
C45   C49   A    
C94   C111  A    
Cu2   N1    S    
C80   O18   A    
C62   C91   S    
C63   C89   A    
C16   H39   S    
C57   C84   A    
H55   O11   S    
C36   O3    A    
C32   C37   A    
C35   C44   A    
C64   C82   A    
C83   H20   S    
C102  H1    S    
C90   H13   S    
C97   C106  A    
C52   H4    S    
C11   H35   S    
C4    C111  A    
C63   C81   A    
C94   C103  A    
C26   C30   A    
C22   C27   A    
C14   H37   S    
H57   O13   S    
C31   C35   A    
Cu4   N3    S    
C1    O20   A    
C37   C45   A    
C92   H11   S    
C73   C82   A    
C79   H19   S    
C25   O2    A    
C92   C100  A    
Cu1   Cu2   S    
C44   C50   A    
C9    C110  A    
C11   C17   A    
C1    O1    A    
Cu2   O14   S    
C11   C112  A    
C50   H2    S    
C14   C19   A    
C44   C45   A    
Cu3   N4    S    
C47   O4    A    
C70   C105  A    
C17   C109  A    
C39   C43   A    
C20   C104  A    
C82   H21   S    
Cu3   O16   S    
C64   C69   S    
Cu4   O5    S    
H54   O10   S    
C9    H32   S    
C33   C38   A    
C23   C41   A    
C89   C98   A    
C6    C99   A    
C57   C75   A    
C68   C104  A    
C35   C40   A    
C88   C97   A    
C27   H46   S    
C3    C10   A    
C54   H41   S    
C86   H8    S    
Cu4   O17   S    
Cu1   O3    S    
C62   C88   A    
C49   C53   A    
C66   C75   A    
C59   C76   A    
C58   O16   A    
C80   O7    A    
C32   O9    S    
C102  C106  A    
C51   C55   A    
C84   C93   A    
C4    C14   A    
C36   O14   A    
C41   C54   A    
C38   C46   A    
C86   C95   A    
C6    C16   A    
C8    H31   S    
C43   C56   A    
C72   H24   S    
C5    C98   A    
C53   H40   S    
C40   C53   A    
C29   N3    A    
C71   C106  A    
C12   C18   A    
C30   N4    A    
C67   C76   A    
C2    C9    A    
C8    C102  A    
C69   O6    A    
C49   H60   S    
C21   C105  A    
C68   H29   S    
C52   C56   A    
C39   C48   A    
C2    H12   S    
