data_mof_unit_42222.cif
_audit_creation_date              2012-12-10T17:05:16-0500
_audit_creation_method            fapswitch 2.2
_symmetry_space_group_name_H-M    P1
_symmetry_Int_Tables_number       1
_space_group_crystal_system       triclinic
_cell_length_a                    10.01314
_cell_length_b                    10.744872
_cell_length_c                    15.31258
_cell_angle_alpha                 89.989152
_cell_angle_beta                  67.944714
_cell_angle_gamma                 90.092778
_cell_volume                      1526.91720589

loop_
_atom_site_label
_atom_site_type_symbol
_atom_type_description
_atom_site_fract_x
_atom_site_fract_y
_atom_site_fract_z
_atom_type_partial_charge
C1    C     C_R   0.499404 0.737391 0.501520 0.935121
C2    C     C_R   0.745769 0.540001 0.023519 0.112415
C3    C     C_R   0.602947 0.573999 0.080075 0.109090
C4    C     C_R   0.410037 0.502674 0.676639 0.864407
C5    C     C_R   0.841206 0.500181 0.065005 -0.252440
C6    C     C_R   0.795635 0.487638 0.162731 -0.012173
C7    C     C_R   0.557319 0.559571 0.177805 -0.268933
C8    C     C_2   0.615876 0.067018 0.494978 -0.157552
C9    C     C_2   0.507440 0.131331 0.486514 -0.340647
C10   C     C_2   0.618002 0.933076 0.489618 -0.161981
C11   C     C_2   0.495944 0.869036 0.508613 -0.332658
C12   C     C_R   0.436238 0.587723 0.903300 0.051715
C13   C     C_2   0.053462 0.413127 0.537226 -0.143655
C14   C     C_2   0.904655 0.411421 0.534963 -0.125902
C15   C     C_R   0.501534 0.262652 0.497282 0.936854
C16   C     C_R   0.590803 0.501423 0.323060 0.866362
C17   C     C_R   0.357156 0.532420 0.777053 -0.062901
C18   C     C_R   0.650465 0.515297 0.219856 -0.115654
C19   C     C_R   0.197958 0.649195 0.910583 -0.212897
C20   C     C_R   0.227718 0.596362 0.821885 -0.216247
C21   C     C_R   0.454072 0.520513 0.821909 -0.239568
C22   C     C_3   0.139872 0.767391 0.095908 -0.959496
C23   C     C_R   0.301182 0.644355 0.953073 0.152528
C24   C     C_R   0.902138 0.441008 0.200623 0.139246
C25   C     C_R   0.970089 0.523280 0.242180 -0.089184
C26   C     C_R   0.079164 0.480826 0.270782 -0.131512
C27   C     C_R   0.119574 0.355674 0.259544 -0.093698
C28   C     C_R   0.051635 0.272963 0.218947 -0.143670
C29   C     C_R   0.943971 0.315536 0.188885 -0.158233
C30   C     C_3   0.761178 0.602001 0.777936 -0.906906
C31   C     C_R   0.547233 0.591747 0.939170 0.038108
C32   C     C_R   0.506810 0.611688 0.036758 -0.018028
C33   C     C_R   0.372427 0.668874 0.086906 -0.220524
C34   C     C_R   0.273595 0.692732 0.043794 0.193670
C35   C     C_R   0.696167 0.574861 0.882436 0.179239
C36   C     C_R   0.792509 0.546657 0.925783 -0.249679
H1    H     H_    0.951311 0.476421 0.020991 0.154815
H2    H     H_    0.446578 0.577518 0.222289 0.158158
H3    H     H_    0.904632 0.529052 0.882713 0.153798
H4    H     H_    0.095514 0.695486 0.944085 0.157793
H5    H     H_    0.152072 0.608779 0.787338 0.155174
H6    H     H_    0.547594 0.461916 0.790263 0.172382
H7    H     H_    0.346032 0.701455 0.158162 0.142936
H8    H     H_    0.133575 0.794891 0.167268 0.235640
H9    H     H_    0.140423 0.853514 0.055709 0.246234
H10   H     H_    0.042191 0.712513 0.103823 0.242559
H11   H     H_    0.938151 0.620007 0.252710 0.119126
H12   H     H_    0.705294 0.112587 0.505951 0.167787
H13   H     H_    0.132391 0.545032 0.301571 0.106914
H14   H     H_    0.203654 0.322914 0.282122 0.135324
H15   H     H_    0.083332 0.176089 0.209959 0.131006
H16   H     H_    0.893791 0.251114 0.156050 0.130217
H17   H     H_    0.794603 0.513916 0.737794 0.242425
H18   H     H_    0.686561 0.654311 0.753280 0.257765
H19   H     H_    0.858184 0.661786 0.761821 0.236397
H20   H     H_    0.422353 0.088736 0.469142 0.148045
H21   H     H_    0.721476 0.887018 0.471535 0.166141
H22   H     H_    0.390431 0.911941 0.531923 0.147276
H23   H     H_    0.082585 0.336803 0.572893 0.159996
H24   H     H_    0.123212 0.570546 0.463954 0.154454
H25   H     H_    0.836604 0.332079 0.566637 0.153849
H26   H     H_    0.913892 0.576176 0.471636 0.154711
N1    N     N_2   0.148330 0.498670 0.499030 -0.190426
N2    N     N_2   0.852680 0.498640 0.499000 -0.181543
O1    O     O_R   0.386950 0.680940 0.500010 -0.619452
O2    O     O_R   0.613110 0.680900 0.499990 -0.615549
O3    O     O_R   0.322330 0.500030 0.632270 -0.606315
O4    O     O_R   0.548480 0.499990 0.632240 -0.606362
O5    O     O_R   0.386890 0.319100 0.500010 -0.616962
O6    O     O_R   0.613050 0.319060 0.499990 -0.608978
O7    O     O_R   0.451520 0.500010 0.367760 -0.613199
O8    O     O_R   0.677670 0.499970 0.367730 -0.599460
Zn1   Zn    Zn3+2 0.349000 0.500030 0.500020 0.925490
Zn2   Zn    Zn3+2 0.651000 0.499970 0.499980 0.937218

loop_
_geom_bond_atom_site_label_1
_geom_bond_atom_site_label_2
_ccdc_geom_bond_type
O6    Zn2   S    
C4    O3    A    
C19   C23   A    
C17   C21   A    
C8    H12   S    
O5    Zn1   S    
C10   H21   S    
O3    Zn1   S    
C5    H1    S    
C2    C3    A    
C11   H22   S    
C30   H19   S    
C25   H11   S    
C1    O1    A    
C35   C36   A    
C16   O8    A    
C27   H14   S    
C7    C18   A    
C14   N2    D    
C32   C33   A    
C23   C34   A    
C19   C20   A    
C1    O2    A    
C9    C15   S    
C6    C24   S    
C9    H20   S    
C13   C14   S    
C25   C26   A    
C30   H18   S    
C12   C23   A    
C26   C27   A    
C5    C6    A    
C16   O7    A    
C30   C35   S    
H24   N1    S    
C13   H23   S    
C4    C17   S    
C12   C21   A    
O8    Zn2   S    
C28   C29   A    
C22   H10   S    
C7    H2    S    
C33   C34   A    
C3    C7    A    
C13   N1    D    
C36   H3    S    
C12   C31   A    
C3    C32   A    
C22   C34   S    
C30   H17   S    
C31   C35   A    
C6    C18   A    
C2    C5    A    
C10   C11   D    
O4    Zn2   S    
C21   H6    S    
O2    Zn2   S    
C22   H9    S    
O1    Zn1   S    
C24   C25   A    
C16   C18   S    
C19   H4    S    
C26   H13   S    
C2    C36   A    
C27   C28   A    
O7    Zn1   S    
C15   O6    A    
N2    Zn2   S    
C15   O5    A    
H26   N2    S    
C1    C11   S    
N1    Zn1   S    
C28   H15   S    
C24   C29   A    
C14   H25   S    
C4    O4    A    
C17   C20   A    
C8    C10   S    
C22   H8    S    
C31   C32   A    
C20   H5    S    
C8    C9    D    
C29   H16   S    
C33   H7    S    
