data_mof_unit_40829.cif
_audit_creation_date              2012-12-10T17:36:20-0500
_audit_creation_method            fapswitch 2.2
_symmetry_space_group_name_H-M    P1
_symmetry_Int_Tables_number       1
_space_group_crystal_system       triclinic
_cell_length_a                    12.328769
_cell_length_b                    13.179782
_cell_length_c                    15.867718
_cell_angle_alpha                 77.913427
_cell_angle_beta                  101.115862
_cell_angle_gamma                 116.56877
_cell_volume                      2240.41914127

loop_
_atom_site_label
_atom_site_type_symbol
_atom_type_description
_atom_site_fract_x
_atom_site_fract_y
_atom_site_fract_z
_atom_type_partial_charge
C1    C     C_R   0.854856 0.286591 0.507363 0.769217
C2    C     C_3   0.077099 0.433548 0.070868 0.040079
C3    C     C_3   0.003698 0.499275 0.083526 0.326754
C4    C     C_3   0.058559 0.623829 0.035881 -0.371288
C5    C     C_3   0.060268 0.623572 0.938600 -0.380267
C6    C     C_1   0.002140 0.499607 0.175546 -0.106908
C7    C     C_1   0.999333 0.499471 0.824885 -0.107941
C8    C     C_1   0.998907 0.499685 0.749192 -0.182957
C9    C     C_R   0.275277 0.021317 0.385502 -0.194676
C10   C     C_R   0.227986 0.834465 0.469801 -0.046975
C11   C     C_R   0.815365 0.085299 0.563323 -0.192329
C12   C     C_R   0.999538 0.499769 0.659570 0.823905
C13   C     C_R   0.736618 0.970461 0.580223 -0.149356
C14   C     C_R   0.613262 0.932745 0.550154 -0.184474
C15   C     C_R   0.566400 0.009422 0.499085 0.078272
C16   C     C_R   0.649791 0.123783 0.473478 0.082355
C17   C     C_R   0.439756 0.976078 0.471716 0.072146
C18   C     C_R   0.399950 0.053254 0.413012 0.167956
C19   C     C_R   0.485084 0.160313 0.380665 -0.243949
C20   C     C_R   0.608201 0.194435 0.409264 -0.201713
C21   C     C_R   0.351042 0.868428 0.501467 -0.255337
C22   C     C_R   0.189605 0.911987 0.413305 -0.198808
C23   C     C_R   0.145077 0.713374 0.487474 0.793870
C24   C     C_R   0.772898 0.163589 0.512054 -0.101207
C25   C     C_R   0.345463 0.327550 0.636757 -0.304185
C26   C     C_R   0.760179 0.645881 0.384018 0.077288
C27   C     C_R   0.663991 0.677794 0.358684 -0.258718
C28   C     C_R   0.560208 0.622684 0.402227 -0.191169
C29   C     C_R   0.551501 0.534536 0.472236 -0.007010
C30   C     C_R   0.652796 0.505065 0.496061 0.287038
C31   C     C_R   0.446864 0.474938 0.519609 -0.038342
C32   C     C_R   0.445933 0.387438 0.589238 0.177283
C33   C     C_R   0.545439 0.360391 0.611498 -0.283137
C34   C     C_R   0.000404 0.500117 0.340449 0.821477
C35   C     C_R   0.646656 0.418240 0.566328 -0.177348
C36   C     C_R   0.342317 0.497981 0.501412 0.020304
C37   C     C_R   0.245967 0.354490 0.615644 0.072826
C38   C     C_3   0.075540 0.434874 0.972176 -0.371246
C39   C     C_3   0.869199 0.438729 0.943036 -0.390098
C40   C     C_3   0.870807 0.438127 0.040993 -0.441201
C41   C     C_1   0.001175 0.499869 0.250933 -0.187145
C42   C     C_3   0.000890 0.499131 0.917369 0.298125
Cu1   Cu    Cu3+1 0.098280 0.475420 0.519630 0.932571
Cu2   Cu    Cu3+1 0.901720 0.524580 0.480370 0.920999
H1    H     H_    0.029954 0.342660 0.100632 0.142592
H2    H     H_    0.169788 0.476313 0.952943 0.174683
H3    H     H_    0.002859 0.668537 0.041971 0.157709
H4    H     H_    0.094454 0.886666 0.387965 0.146286
H5    H     H_    0.456438 0.218098 0.332871 0.144500
H6    H     H_    0.244474 0.079820 0.340545 0.132054
H7    H     H_    0.375048 0.808132 0.548856 0.147771
H8    H     H_    0.909364 0.113268 0.592287 0.150350
H9    H     H_    0.557863 0.842527 0.566428 0.129508
H10   H     H_    0.770718 0.910678 0.619240 0.140695
H11   H     H_    0.034502 0.345143 0.957819 0.136211
H12   H     H_    0.670103 0.275791 0.378282 0.175988
H13   H     H_    0.168006 0.308609 0.652012 0.119651
H14   H     H_    0.545500 0.293904 0.664954 0.149062
H15   H     H_    0.344034 0.260462 0.690001 0.132989
H16   H     H_    0.334966 0.562845 0.449697 0.123935
H17   H     H_    0.840412 0.689167 0.349878 0.122705
H18   H     H_    0.488567 0.650877 0.379827 0.135344
H19   H     H_    0.669888 0.745472 0.305105 0.140797
H20   H     H_    0.718427 0.392023 0.589396 0.206110
H21   H     H_    0.813879 0.483685 0.904492 0.172501
H22   H     H_    0.824671 0.349059 0.928260 0.161860
H23   H     H_    0.827693 0.348108 0.073312 0.159766
H24   H     H_    0.815050 0.481686 0.049348 0.175508
H25   H     H_    0.156194 0.667655 0.922683 0.161965
H26   H     H_    0.010244 0.672669 0.898338 0.163201
H27   H     H_    0.152393 0.673520 0.065922 0.165347
N1    N     N_R   0.246300 0.438200 0.549400 -0.179259
N2    N     N_R   0.754300 0.561180 0.451130 -0.206054
O1    O     O_R   0.972520 0.318130 0.524690 -0.580458
O2    O     O_R   0.806530 0.359650 0.491530 -0.604347
O3    O     O_R   0.083030 0.479240 0.637150 -0.576277
O4    O     O_R   0.917040 0.520750 0.603990 -0.591669
O5    O     O_R   0.193470 0.640350 0.508470 -0.587400
O6    O     O_R   0.027480 0.681870 0.475310 -0.586955
O7    O     O_R   0.082960 0.479250 0.396010 -0.575985
O8    O     O_R   0.916970 0.520760 0.362850 -0.588395
C43   C     C_3   0.208901 0.478892 0.116248 -0.905311
H28   H     H_    0.264710 0.567960 0.087758 0.241235
H29   H     H_    0.210072 0.476160 0.186793 0.245795
H30   H     H_    0.252399 0.424013 0.108618 0.231304

loop_
_geom_bond_atom_site_label_1
_geom_bond_atom_site_label_2
_ccdc_geom_bond_type
C22   H4    S    
C5    C42   S    
C33   H14   S    
C19   C20   A    
C20   H12   S    
C3    C6    S    
C7    C8    T    
C10   C22   A    
Cu1   O5    S    
C26   C27   A    
Cu1   N1    S    
C30   C35   A    
C1    O1    A    
C28   C29   A    
C26   H17   S    
C38   C42   S    
C9    C22   A    
C15   C16   A    
C11   C24   A    
C26   N2    A    
C18   C19   A    
C7    C42   S    
C2    C38   S    
C5    H25   S    
C11   H8    S    
C34   O7    A    
C38   H11   S    
C6    C41   T    
C35   H20   S    
C34   O8    A    
C16   C20   A    
C25   C37   A    
Cu1   O1    S    
C2    H1    S    
C13   C14   A    
C39   H21   S    
C34   C41   S    
C39   C42   S    
C10   C21   A    
C1    O2    A    
Cu2   O8    S    
C39   C40   S    
C30   N2    A    
Cu1   O7    S    
C40   H23   S    
C17   C21   A    
Cu2   O2    S    
Cu1   Cu2   S    
C29   C30   A    
C19   H5    S    
C31   C32   A    
C8    C12   S    
C12   O4    A    
C17   C18   A    
C27   H19   S    
C3    C40   S    
C43   H29   S    
C12   O3    A    
C39   H22   S    
C2    C43   S    
C3    C4    S    
C21   H7    S    
C13   H10   S    
Cu1   O3    S    
C15   C17   A    
Cu2   O4    S    
C31   C36   A    
Cu2   O6    S    
C9    H6    S    
C4    C5    S    
C36   H16   S    
C5    H26   S    
C10   C23   S    
C43   H30   S    
C32   C33   A    
C2    C3    S    
C29   C31   A    
C11   C13   A    
C25   C32   A    
C33   C35   A    
C23   O5    A    
Cu2   N2    S    
C38   H2    S    
C9    C18   A    
C14   H9    S    
C1    C24   S    
C16   C24   A    
C43   H28   S    
C40   H24   S    
C37   N1    A    
C27   C28   A    
C14   C15   A    
C25   H15   S    
C23   O6    A    
C4    H27   S    
C37   H13   S    
C36   N1    A    
C4    H3    S    
C28   H18   S    
