data_mof_unit_41248.cif
_audit_creation_date              2012-12-10T18:11:07-0500
_audit_creation_method            fapswitch 2.2
_symmetry_space_group_name_H-M    P1
_symmetry_Int_Tables_number       1
_space_group_crystal_system       triclinic
_cell_length_a                    10.755111
_cell_length_b                    9.491603
_cell_length_c                    10.644738
_cell_angle_alpha                 89.28944
_cell_angle_beta                  89.980576
_cell_angle_gamma                 90.858778
_cell_volume                      1086.44362376

loop_
_atom_site_label
_atom_site_type_symbol
_atom_type_description
_atom_site_fract_x
_atom_site_fract_y
_atom_site_fract_z
_atom_type_partial_charge
C1    C     C_R   0.259850 0.500291 0.507027 0.840986
C2    C     C_3   0.506237 0.500839 0.122394 0.022110
C3    C     C_3   0.071295 0.652539 0.551198 0.356295
C4    C     C_3   0.067084 0.390354 0.603438 0.367260
C5    C     C_3   0.927388 0.651268 0.540256 -0.448793
C6    C     C_3   0.923623 0.396995 0.605639 -0.419282
C7    C     C_3   0.072489 0.474760 0.376437 -0.577954
C8    C     C_3   0.120993 0.504354 0.511110 0.030201
C9    C     C_3   0.877255 0.503159 0.505020 0.078844
C10   C     C_3   0.929427 0.463939 0.375038 -0.429306
C11   C     C_3   0.628788 0.085087 0.501888 -0.325978
C12   C     C_3   0.628497 0.918154 0.514642 -0.311357
C13   C     C_3   0.441855 0.081003 0.617865 -0.236885
C14   C     C_3   0.430086 0.914810 0.610719 -0.252974
C15   C     C_3   0.433384 0.082416 0.391082 0.400066
C16   C     C_3   0.452273 0.915865 0.381079 0.410555
C17   C     C_R   0.503355 0.500620 0.259519 0.787470
C18   C     C_R   0.739631 0.500979 0.501311 0.779570
C19   C     C_R   0.499808 0.499115 0.740651 0.796228
C20   C     C_3   0.389432 0.471277 0.044366 -0.140111
C21   C     C_3   0.582581 0.400151 0.042472 -0.172226
C22   C     C_3   0.465471 0.370852 0.962072 -0.132925
C23   C     C_3   0.501685 0.497218 0.877771 0.033536
C24   C     C_3   0.425676 0.597418 0.958065 -0.150547
C25   C     C_3   0.618941 0.526111 0.955646 -0.185695
C26   C     C_3   0.543041 0.626614 0.037979 -0.172433
Cu1   Cu    Cu3+1 0.499860 0.642410 0.500060 0.954020
Cu2   Cu    Cu3+1 0.499860 0.357590 0.500060 0.937698
H1    H     H_    0.433332 0.266231 0.928366 0.114683
H2    H     H_    0.892321 0.536004 0.301215 0.172653
H3    H     H_    0.899268 0.355131 0.350575 0.178094
H4    H     H_    0.684150 0.129783 0.580534 0.178852
H5    H     H_    0.669985 0.886566 0.606413 0.164378
H6    H     H_    0.677607 0.117683 0.413776 0.138482
H7    H     H_    0.690713 0.875349 0.441397 0.152661
H8    H     H_    0.499541 0.107629 0.701410 0.148908
H9    H     H_    0.466689 0.871018 0.700318 0.161075
H10   H     H_    0.483685 0.124079 0.306950 0.054454
H11   H     H_    0.527155 0.900934 0.309328 -0.003868
H12   H     H_    0.352328 0.130304 0.638886 0.140399
H13   H     H_    0.332583 0.878466 0.607988 0.162669
H14   H     H_    0.296657 0.448704 0.086014 0.118653
H15   H     H_    0.647074 0.319740 0.080115 0.117967
H16   H     H_    0.361032 0.677670 0.921320 0.145901
H17   H     H_    0.712914 0.548175 0.916164 0.120316
H18   H     H_    0.578092 0.730448 0.070573 0.113250
H19   H     H_    0.109428 0.733459 0.484262 0.076337
H20   H     H_    0.092065 0.288020 0.565162 0.053671
H21   H     H_    0.882672 0.680650 0.629943 0.167048
H22   H     H_    0.890296 0.428834 0.700034 0.182438
H23   H     H_    0.899690 0.730450 0.467853 0.131630
H24   H     H_    0.884876 0.289641 0.588051 0.123883
H25   H     H_    0.102782 0.561353 0.312179 0.191209
H26   H     H_    0.113519 0.377778 0.338274 0.219440
N1    N     N_3   0.500250 0.143650 0.502780 -0.152775
N2    N     N_3   0.500250 0.856350 0.502780 -0.141501
O1    O     O_R   0.317570 0.620260 0.500070 -0.534120
O2    O     O_R   0.317570 0.379740 0.500070 -0.551196
O3    O     O_R   0.499850 0.620240 0.316900 -0.555318
O4    O     O_R   0.499850 0.379760 0.316900 -0.579828
O5    O     O_R   0.682190 0.620260 0.500030 -0.605065
O6    O     O_R   0.682190 0.379740 0.500030 -0.603086
O7    O     O_R   0.499910 0.620280 0.683200 -0.593036
O8    O     O_R   0.499910 0.379720 0.683200 -0.600292
O9    O     O_3   0.310502 0.136955 0.373557 -0.566313
C27   C     C_3   0.210422 0.065767 0.436025 0.138343
H27   H     H_    0.193048 0.112660 0.527346 0.103640
H28   H     H_    0.224247 0.955386 0.457893 0.167713
C28   C     C_3   0.091596 0.072997 0.357786 -0.879297
H29   H     H_    0.113047 0.076411 0.255805 0.268550
H30   H     H_    0.031131 0.979572 0.378293 0.189014
H31   H     H_    0.037089 0.166222 0.382199 0.220166
O10   O     O_3   0.347834 0.837549 0.338162 -0.553672
C29   C     C_3   0.322980 0.866244 0.209847 0.069024
H32   H     H_    0.396851 0.823742 0.149433 0.136267
H33   H     H_    0.316690 0.980927 0.189636 0.150487
C30   C     C_3   0.199659 0.797358 0.174446 -0.830125
H34   H     H_    0.133062 0.801096 0.253751 0.251605
H35   H     H_    0.158344 0.855509 0.094520 0.203596
H36   H     H_    0.213704 0.685972 0.148272 0.226915
O11   O     O_3   0.110583 0.682681 0.675666 -0.522503
C31   C     C_3   0.086496 0.823826 0.708893 0.083105
H37   H     H_    0.986116 0.839610 0.726588 0.131990
H38   H     H_    0.117545 0.900595 0.636103 0.085101
C32   C     C_3   0.153622 0.856311 0.830522 -0.847658
H39   H     H_    0.255486 0.860254 0.815483 0.223787
H40   H     H_    0.123748 0.959605 0.866844 0.188765
H41   H     H_    0.130796 0.772168 0.900353 0.268094
O12   O     O_3   0.116630 0.408223 0.725846 -0.538018
C33   C     C_3   0.111977 0.281000 0.796911 0.056291
H42   H     H_    0.207617 0.239116 0.804324 0.143159
H43   H     H_    0.050860 0.197064 0.756391 0.102703
C34   C     C_3   0.064053 0.311494 0.928101 -0.795135
H44   H     H_    0.964674 0.341281 0.923413 0.230228
H45   H     H_    0.072888 0.216393 0.989110 0.191278
H46   H     H_    0.118050 0.399702 0.969648 0.255560

loop_
_geom_bond_atom_site_label_1
_geom_bond_atom_site_label_2
_ccdc_geom_bond_type
C7    C10   S    
C27   H28   S    
C34   H44   S    
C22   H1    S    
C1    C8    S    
O10   C29   S    
C14   N2    S    
C4    C8    S    
C6    C9    S    
O11   C31   S    
C7    C8    S    
C30   H34   S    
C29   H33   S    
C24   C26   S    
C32   H41   S    
C27   C28   S    
C15   C16   S    
C15   O9    S    
C28   H30   S    
C13   H12   S    
Cu1   O5    S    
C21   H15   S    
C10   H3    S    
C20   C24   S    
C19   O7    A    
C29   C30   S    
C3    O11   S    
C23   C24   S    
C9    C10   S    
Cu2   O4    S    
C27   H27   S    
C34   H45   S    
C21   C22   S    
C2    C17   S    
C5    H21   S    
Cu2   N1    S    
C30   H35   S    
C29   H32   S    
C32   H40   S    
C2    C20   S    
C16   O10   S    
C13   H8    S    
C4    C6    S    
C3    C8    S    
Cu1   O1    S    
Cu1   N2    S    
C18   O6    A    
C17   O4    A    
C25   C26   S    
C32   H39   S    
C15   N1    S    
C28   H31   S    
C19   C23   S    
C16   N2    S    
C15   H10   S    
C5    C9    S    
C1    O1    A    
C10   H2    S    
C33   H43   S    
C19   O8    A    
C2    C21   S    
C2    C26   S    
C6    H22   S    
C12   H7    S    
C12   N2    S    
Cu1   O7    S    
C17   O3    A    
C14   H13   S    
Cu2   O8    S    
C20   C22   S    
C11   H4    S    
C31   H37   S    
C34   H46   S    
C31   H38   S    
C24   H16   S    
C7    H25   S    
C25   H17   S    
C11   N1    S    
C33   C34   S    
C4    O12   S    
C4    H20   S    
C30   H36   S    
C21   C25   S    
C11   H6    S    
C3    C5    S    
C20   H14   S    
C11   C12   S    
C18   O5    A    
Cu2   O2    S    
C31   C32   S    
C12   H5    S    
Cu1   O3    S    
C1    O2    A    
C14   H9    S    
C33   H42   S    
C3    H19   S    
C23   C25   S    
C28   H29   S    
C26   H18   S    
C16   H11   S    
C9    C18   S    
O9    C27   S    
Cu1   Cu2   S    
C22   C23   S    
C5    H23   S    
C7    H26   S    
C6    H24   S    
O12   C33   S    
C13   C14   S    
C13   N1    S    
Cu2   O6    S    
