data_mof_unit_59055.cif
_audit_creation_date              2012-12-10T19:03:42-0500
_audit_creation_method            fapswitch 2.2
_symmetry_space_group_name_H-M    P1
_symmetry_Int_Tables_number       1
_space_group_crystal_system       triclinic
_cell_length_a                    15.887906
_cell_length_b                    10.821854
_cell_length_c                    9.551003
_cell_angle_alpha                 89.953019
_cell_angle_beta                  89.756189
_cell_angle_gamma                 90.128792
_cell_volume                      1642.14739219

loop_
_atom_site_label
_atom_site_type_symbol
_atom_type_description
_atom_site_fract_x
_atom_site_fract_y
_atom_site_fract_z
_atom_type_partial_charge
C1    C     C_R   0.501522 0.262307 0.499995 0.791639
C2    C     C_3   0.949726 0.455908 0.647877 -0.034452
C3    C     C_3   0.916912 0.501616 0.503053 0.270397
C4    C     C_3   0.950006 0.635105 0.480045 -0.451032
C5    C     C_3   0.047945 0.636736 0.472064 0.013621
C6    C     C_1   0.824753 0.501246 0.500393 -0.045372
C7    C     C_1   0.175183 0.502595 0.502340 -0.055976
C8    C     C_1   0.250671 0.501180 0.501091 -0.184593
C9    C     C_R   0.511379 0.063412 0.625411 0.137870
C10   C     C_R   0.509985 0.129205 0.499681 -0.094256
C11   C     C_R   0.520751 0.064564 0.373181 -0.223257
C12   C     C_R   0.340255 0.500058 0.500319 0.822147
C13   C     C_R   0.520803 0.935730 0.373105 -0.223235
C14   C     C_R   0.510069 0.870758 0.499526 -0.095364
C15   C     C_R   0.511358 0.936234 0.625307 0.118655
C16   C     C_3   0.453410 0.929237 0.748655 -0.461164
C17   C     C_3   0.453555 0.069541 0.748954 -0.486569
C18   C     C_R   0.532138 0.598215 0.072712 0.234535
C19   C     C_R   0.460809 0.409123 0.074792 -0.084703
C20   C     C_R   0.460916 0.409020 0.925977 -0.074787
C21   C     C_R   0.530783 0.599135 0.925570 0.218718
C22   C     C_3   0.616719 0.653442 0.913852 -0.552138
C23   C     C_R   0.501605 0.737664 0.499883 0.792347
C24   C     C_3   0.620135 0.649353 0.073310 -0.088201
C25   C     C_R   0.659729 0.500218 0.499711 0.830361
C26   C     C_3   0.048452 0.454055 0.647379 -0.013114
C27   C     C_3   0.049720 0.417122 0.388136 -0.523074
C28   C     C_3   0.952311 0.419390 0.383625 -0.396840
C29   C     C_1   0.749282 0.500782 0.499422 -0.169164
C30   C     C_3   0.082884 0.504540 0.504640 0.303135
Cu1   Cu    Cu3+1 0.500000 0.499980 0.640670 0.944613
Cu2   Cu    Cu3+1 0.500000 0.500020 0.359330 0.952625
H1    H     H_    0.926642 0.522320 0.728396 0.140091
H2    H     H_    0.924063 0.673654 0.381124 0.152307
H3    H     H_    0.524981 0.112789 0.273968 0.162013
H4    H     H_    0.525024 0.887758 0.273858 0.154864
H5    H     H_    0.391161 0.888403 0.722303 0.199649
H6    H     H_    0.484461 0.888717 0.842047 0.190295
H7    H     H_    0.391359 0.110421 0.723086 0.192856
H8    H     H_    0.484941 0.109561 0.842371 0.192902
H9    H     H_    0.430258 0.334406 0.130639 0.138084
H10   H     H_    0.070564 0.356670 0.656738 0.133875
H11   H     H_    0.430346 0.334372 0.870717 0.137324
H12   H     H_    0.662261 0.591282 0.860531 0.223268
H13   H     H_    0.615210 0.749100 0.871575 0.176676
H14   H     H_    0.624664 0.741712 0.123684 0.149749
H15   H     H_    0.075298 0.445615 0.284268 0.179160
H16   H     H_    0.071461 0.320857 0.407191 0.173974
H17   H     H_    0.927125 0.323703 0.391243 0.178763
H18   H     H_    0.931660 0.456439 0.280580 0.169868
H19   H     H_    0.066473 0.661656 0.362768 0.124036
H20   H     H_    0.927125 0.695489 0.566501 0.173644
N1    N     N_R   0.500530 0.500930 0.147930 -0.175813
N2    N     N_R   0.500530 0.500890 0.852020 -0.175481
O1    O     O_R   0.500000 0.319640 0.618810 -0.583670
O2    O     O_R   0.500010 0.319680 0.381230 -0.592783
O3    O     O_R   0.379430 0.499990 0.618840 -0.569259
O4    O     O_R   0.379440 0.500030 0.381260 -0.578113
O5    O     O_R   0.499990 0.680320 0.618770 -0.577319
O6    O     O_R   0.500000 0.680360 0.381190 -0.588555
O7    O     O_R   0.620560 0.499970 0.618740 -0.582931
O8    O     O_R   0.620570 0.500010 0.381160 -0.537488
N3    N     N_3   0.914639 0.334355 0.684505 -0.603126
H21   H     H_    0.931205 0.314342 0.787938 0.208934
H22   H     H_    0.941542 0.265785 0.621761 0.216688
N4    N     N_3   0.083338 0.521524 0.767340 -0.578433
H23   H     H_    0.052630 0.606005 0.780290 0.249432
H24   H     H_    0.070923 0.470115 0.857928 0.197740
N5    N     N_3   0.682651 0.561513 0.125369 -0.524789
H25   H     H_    0.742396 0.596816 0.102015 0.208741
H26   H     H_    0.676892 0.476781 0.073401 0.232172
N6    N     N_3   0.082431 0.731223 0.565914 -0.593382
H27   H     H_    0.146821 0.740858 0.545588 0.222382
H28   H     H_    0.055819 0.816384 0.539396 0.208283

loop_
_geom_bond_atom_site_label_1
_geom_bond_atom_site_label_2
_ccdc_geom_bond_type
C27   H16   S    
N4    H24   S    
N3    H22   S    
C18   C21   A    
Cu1   O7    S    
C19   C20   A    
Cu2   O4    S    
C3    C6    S    
C7    C8    T    
C23   O5    A    
C4    H20   S    
C18   C24   S    
C3    C28   S    
C1    O2    A    
C5    N6    S    
C21   N2    A    
C15   C16   S    
C17   H7    S    
Cu1   O5    S    
N5    H26   S    
C18   N1    A    
C28   H18   S    
C22   H12   S    
C16   C17   S    
C9    C10   A    
C16   H5    S    
C12   O4    A    
C19   N1    A    
N4    H23   S    
C7    C30   S    
C21   C22   S    
C27   C30   S    
C20   N2    A    
C24   N5    S    
C25   C29   S    
C23   O6    A    
C4    H2    S    
C26   N4    S    
C13   H4    S    
N6    H28   S    
N6    H27   S    
C17   H8    S    
C14   C23   S    
C28   H17   S    
Cu1   Cu2   S    
C8    C12   S    
C22   H13   S    
C2    C26   S    
C25   O7    A    
C12   O3    A    
C2    H1    S    
C9    C17   S    
C26   C30   S    
C22   C24   S    
Cu2   O6    S    
C3    C4    S    
Cu2   N1    S    
C20   H11   S    
C2    N3    S    
C26   H10   S    
C5    C30   S    
C27   H15   S    
C1    C10   S    
C4    C5    S    
C24   H14   S    
Cu1   O3    S    
C11   H3    S    
C2    C3    S    
C1    O1    A    
Cu2   O8    S    
C11   C13   A    
C25   O8    A    
Cu1   N2    S    
C9    C15   A    
N5    H25   S    
C10   C11   A    
N3    H21   S    
C6    C29   T    
C27   C28   S    
C14   C15   A    
C5    H19   S    
Cu1   O1    S    
C13   C14   A    
Cu2   O2    S    
C19   H9    S    
C16   H6    S    
