data_mof_unit_40321.cif
_audit_creation_date              2013-03-05T15:48:49-0500
_audit_creation_method            fapswitch 2.2
_symmetry_space_group_name_H-M    P1
_symmetry_Int_Tables_number       1
_space_group_crystal_system       triclinic
_cell_length_a                    10.086735
_cell_length_b                    10.818109
_cell_length_c                    27.703721
_cell_angle_alpha                 89.787286
_cell_angle_beta                  81.725451
_cell_angle_gamma                 96.880764
_cell_volume                      2969.32141766

loop_
_atom_site_label
_atom_site_type_symbol
_atom_site_description
_atom_site_fract_x
_atom_site_fract_y
_atom_site_fract_z
_atom_type_partial_charge
O1    O     O_R   0.431060 0.692470 0.504020 -0.607239
O2    O     O_R   0.568940 0.307530 0.495980 -0.607230
O3    O     O_R   0.651120 0.659650 0.491200 -0.608764
O4    O     O_R   0.348880 0.340350 0.508800 -0.608762
C1    C     C_R   0.558568 0.733159 0.496618 0.883502
C2    C     C_R   0.441432 0.266841 0.503382 0.883525
O5    O     O_R   0.389980 0.516390 0.577660 -0.615413
O6    O     O_R   0.610020 0.483610 0.422340 -0.615409
O7    O     O_R   0.610040 0.483570 0.564830 -0.615766
O8    O     O_R   0.389960 0.516430 0.435170 -0.615767
C3    C     C_R   0.500991 0.499250 0.593926 0.864112
C4    C     C_R   0.499013 0.500763 0.406074 0.864090
Zn1   Zn    Zn3+2 0.353060 0.521910 0.508560 0.942802
Zn2   Zn    Zn3+2 0.646940 0.478090 0.491440 0.942820
C5    C     C_R   0.590634 0.582000 0.817505 0.518215
C6    C     C_R   0.409328 0.418264 0.182505 0.518249
O9    O     O_2   0.660657 0.675272 0.788496 -0.552530
O10   O     O_2   0.339189 0.325058 0.211520 -0.552447
N1    N     N_R   0.515647 0.486773 0.797849 -0.358236
N2    N     N_R   0.484410 0.513424 0.202158 -0.358292
C7    C     C_R   0.446649 0.389001 0.825813 0.539281
C8    C     C_R   0.553499 0.611158 0.174197 0.539323
C9    C     C_R   0.626160 0.470194 0.714197 -0.098009
C10   C     C_R   0.374130 0.530676 0.285795 -0.098098
C11   C     C_R   0.622784 0.473968 0.664312 -0.217438
C12   C     C_R   0.377488 0.526862 0.335680 -0.217399
C13   C     C_R   0.388498 0.513891 0.679349 -0.218054
C14   C     C_R   0.611297 0.485482 0.320659 -0.217915
C15   C     C_R   0.392281 0.510169 0.729302 -0.096382
C16   C     C_R   0.607533 0.489255 0.270705 -0.096539
C17   C     C_R   0.511153 0.488571 0.746677 0.310160
C18   C     C_R   0.488905 0.511597 0.253325 0.310424
C19   C     C_R   0.516869 0.487719 0.897753 -0.054121
C20   C     C_R   0.483183 0.512520 0.102258 -0.054107
C21   C     C_R   0.593471 0.583757 0.867791 -0.014941
C22   C     C_R   0.406510 0.416513 0.132218 -0.014983
C23   C     C_R   0.674118 0.676829 0.888458 -0.118513
C24   C     C_R   0.325823 0.323479 0.111548 -0.118480
C25   C     C_R   0.447334 0.386987 0.876296 -0.084592
C26   C     C_R   0.552794 0.613205 0.123716 -0.084622
C27   C     C_R   0.503938 0.496036 0.646513 -0.048163
C28   C     C_R   0.496083 0.504035 0.353487 -0.048233
H1    H     H_    0.295705 0.530934 0.666515 0.165435
H2    H     H_    0.703887 0.467825 0.333500 0.165470
H3    H     H_    0.303359 0.524742 0.754556 0.147385
H4    H     H_    0.696267 0.474136 0.245454 0.147263
H5    H     H_    0.741480 0.746702 0.865929 0.199043
H6    H     H_    0.258418 0.253630 0.134073 0.199032
C29   C     C_R   0.560895 0.608989 0.021424 -0.069519
C30   C     C_R   0.439184 0.391259 0.978588 -0.069532
C31   C     C_R   0.421197 0.403824 0.029995 0.080226
C32   C     C_R   0.578839 0.596446 0.970014 0.080196
C33   C     C_R   0.489390 0.508115 0.050975 0.054589
C34   C     C_R   0.510664 0.492139 0.949036 0.054578
C35   C     C_R   0.607592 0.719857 0.044932 0.256903
C36   C     C_R   0.392556 0.280359 0.955086 0.256850
C37   C     C_R   0.612620 0.716734 0.094995 -0.165194
C38   C     C_R   0.387564 0.283444 0.905021 -0.165202
O11   O     O_2   0.621725 0.706157 0.195304 -0.545952
O12   O     O_2   0.378539 0.293923 0.804708 -0.546028
C39   C     C_R   0.670554 0.680266 0.938636 -0.121815
C40   C     C_R   0.329428 0.320035 0.061367 -0.121788
H7    H     H_    0.287332 0.541912 0.360194 0.163061
H8    H     H_    0.713134 0.459504 0.639793 0.162993
H9    H     H_    0.282466 0.548299 0.272263 0.143205
H10   H     H_    0.718021 0.453154 0.727718 0.143362
H11   H     H_    0.653948 0.799785 0.112044 0.228642
H12   H     H_    0.346295 0.200365 0.887974 0.228676
H13   H     H_    0.742750 0.748331 0.952076 0.185538
H14   H     H_    0.257234 0.251984 0.047917 0.185480
H15   H     H_    0.588341 0.105187 0.467187 0.192778
H16   H     H_    0.411656 0.894811 0.532812 0.192792
C41   C     C_2   0.596583 0.866797 0.491536 -0.184381
C42   C     C_2   0.403417 0.133204 0.508464 -0.184374
C43   C     C_2   0.499622 0.936561 0.508368 -0.198455
C44   C     C_2   0.500376 0.063439 0.491633 -0.198484
H17   H     H_    0.106591 0.420802 0.470435 0.161171
H18   H     H_    0.893408 0.579195 0.529566 0.161107
N3    N     N_2   0.842700 0.448890 0.480020 -0.194829
N4    N     N_2   0.157300 0.551110 0.519980 -0.194856
C45   C     C_2   0.928045 0.510645 0.503726 -0.133687
C46   C     C_2   0.071954 0.489353 0.496275 -0.133703
H19   H     H_    0.121782 0.615969 0.544149 0.164958
H20   H     H_    0.878218 0.384032 0.455851 0.164968
C47   C     C_R   0.269383 0.081271 0.535527 0.119758
C48   C     C_R   0.219339 0.131303 0.580321 -0.115315
C49   C     C_R   0.093999 0.082004 0.605670 -0.129257
C50   C     C_R   0.017841 0.982217 0.586713 -0.119966
C51   C     C_R   0.066479 0.931968 0.542219 -0.144950
C52   C     C_R   0.190707 0.982202 0.516363 -0.155299
H21   H     H_    0.277845 0.207522 0.595888 0.132394
H22   H     H_    0.056200 0.120822 0.640164 0.146419
H23   H     H_    0.921042 0.943954 0.606452 0.140897
H24   H     H_    0.007195 0.854960 0.527458 0.142598
H25   H     H_    0.226000 0.943448 0.481536 0.150785
C53   C     C_R   0.730619 0.918730 0.464476 0.119728
C54   C     C_R   0.809290 0.017800 0.483642 -0.155297
C55   C     C_R   0.933521 0.068036 0.457787 -0.144935
C56   C     C_R   0.982166 0.017787 0.413294 -0.119994
C57   C     C_R   0.906012 0.917999 0.394336 -0.129273
C58   C     C_R   0.780669 0.868700 0.419683 -0.115302
H26   H     H_    0.773992 0.056553 0.518468 0.150810
H27   H     H_    0.992802 0.145044 0.472550 0.142609
H28   H     H_    0.078968 0.056051 0.393557 0.140903
H29   H     H_    0.943816 0.879182 0.359842 0.146435
H30   H     H_    0.722167 0.792480 0.404114 0.132431
N5    N     N_R   0.629798 0.839981 0.020811 0.200556
O13   O     O_R   0.543093 0.871634 0.993925 -0.298416
O14   O     O_R   0.723203 0.924517 0.031775 -0.349241
N6    N     N_R   0.370383 0.160251 0.979221 0.200611
O15   O     O_R   0.277104 0.075629 0.968226 -0.349173
O16   O     O_R   0.457030 0.128694 0.006151 -0.298478

loop_
_geom_bond_atom_site_label_1
_geom_bond_atom_site_label_2
_geom_bond_distance
_ccdc_geom_bond_type
C49   C50   1.397459 A    
C13   C15   1.390458 A    
C41   C43   1.338561 D    
C12   H7    1.083153 S    
N1    C17   1.425003 S    
C45   C46   1.482211 S    
C52   H25   1.083191 S    
C47   C48   1.406364 A    
C5    N1    1.365978 A    
C57   H29   1.082303 S    
C19   C25   1.405154 A    
C42   C44   1.338560 D    
O1    C1    1.295272 A    
C9    H10   1.083129 S    
N1    C7    1.365889 A    
C10   C12   1.387873 A    
C32   C39   1.412581 A    
H16   C43   1.085651 S    
N3    H20   1.031333 S    
C55   H27   1.082773 S    
C54   C55   1.397921 A    
C58   H30   1.083262 S    
C40   H14   1.078316 S    
C36   N6    1.437445 S    
C51   H24   1.082773 S    
N6    O15   1.301648 A    
C4    C28   1.461778 S    
O4    Zn1   1.959498 S    
N5    O13   1.301637 A    
C23   H5    1.083489 S    
C24   H6    1.083492 S    
C54   H26   1.083190 S    
C6    N2    1.365944 A    
C56   H28   1.082361 S    
Zn1   N4    2.017233 S    
C49   H22   1.082304 S    
N5    O14   1.301634 A    
O2    C2    1.295272 A    
C31   C40   1.412573 A    
C37   H11   1.083603 S    
N4    H19   1.031332 S    
C5    C21   1.397683 A    
C32   C34   1.420539 A    
C2    C42   1.451559 S    
C7    O12   1.350019 S    
O4    C2    1.290297 A    
C11   C27   1.405351 A    
C8    O11   1.350017 S    
N3    C45   1.283305 D    
O7    Zn2   2.015993 S    
C48   C49   1.398608 A    
C29   C35   1.429432 A    
C25   C38   1.394599 A    
C14   H2    1.083117 S    
C30   C36   1.429419 A    
C35   N5    1.437425 S    
C31   C33   1.420511 A    
C11   H8    1.083145 S    
C9    C17   1.396806 A    
O5    C3    1.298323 A    
C43   C44   1.445934 S    
C10   C18   1.396752 A    
C13   C27   1.403919 A    
C56   C57   1.397459 A    
C7    C25   1.399680 A    
O6    C4    1.298321 A    
C29   C32   1.418714 A    
C8    C26   1.399664 A    
C53   C54   1.407823 A    
C30   C31   1.418663 A    
C30   C34   1.419880 A    
Zn2   N3    2.017232 S    
O7    C3    1.295735 A    
O3    Zn2   1.959498 S    
O8    C4    1.295730 A    
C10   H9    1.083147 S    
C38   H12   1.083603 S    
N2    C8    1.365855 A    
C35   C37   1.395548 A    
C20   C26   1.405163 A    
O1    Zn1   1.913456 S    
C12   C28   1.405368 A    
N2    C18   1.424880 S    
C39   H13   1.078292 S    
C19   C34   1.414321 A    
C5    O9    1.350070 S    
C50   H23   1.082362 S    
O6    Zn2   2.004139 S    
C26   C37   1.394584 A    
C14   C28   1.403915 A    
C21   C23   1.394766 A    
C16   H4    1.083005 S    
O3    C1    1.290299 A    
O8    Zn1   2.015990 S    
C23   C39   1.386173 A    
C47   C52   1.407823 A    
C48   H21   1.083262 S    
C22   C24   1.394777 A    
C15   C17   1.398711 A    
C6    C22   1.397676 A    
C16   C18   1.398673 A    
H18   C45   1.085600 S    
H15   C44   1.085651 S    
H17   C46   1.085599 S    
C29   C33   1.419895 A    
C14   C16   1.390454 A    
C57   C58   1.398608 A    
C19   C21   1.407854 A    
N4    C46   1.283306 D    
C36   C38   1.395552 A    
C3    C27   1.461797 S    
C20   C22   1.407884 A    
C9    C11   1.387871 A    
C42   C47   1.492874 S    
C1    C41   1.451561 S    
O2    Zn2   1.913454 S    
N6    O16   1.301641 A    
C13   H1    1.083095 S    
O5    Zn1   2.004142 S    
C50   C51   1.396578 A    
C20   C33   1.414310 A    
C6    O10   1.350068 S    
C55   C56   1.396577 A    
C15   H3    1.083002 S    
C41   C53   1.492874 S    
C51   C52   1.397921 A    
C53   C58   1.406365 A    
C24   C40   1.386183 A    
