data_mof_unit_30184.cif
_audit_creation_date              2012-12-10T17:42:10-0500
_audit_creation_method            fapswitch 2.2
_symmetry_space_group_name_H-M    P1
_symmetry_Int_Tables_number       1
_space_group_crystal_system       triclinic
_cell_length_a                    15.127371
_cell_length_b                    13.813453
_cell_length_c                    10.858676
_cell_angle_alpha                 90.002078
_cell_angle_beta                  87.185346
_cell_angle_gamma                 87.172619
_cell_volume                      2263.53923139

loop_
_atom_site_label
_atom_site_type_symbol
_atom_type_description
_atom_site_fract_x
_atom_site_fract_y
_atom_site_fract_z
_atom_type_partial_charge
C1    C     C_R   0.328269 0.502217 0.499171 0.831006
C2    C     C_3   0.578408 0.481129 0.925299 -0.330360
C3    C     C_R   0.822788 0.441036 0.427666 0.167837
C4    C     C_R   0.768131 0.496377 0.512117 -0.174217
C5    C     C_R   0.807819 0.556695 0.597320 -0.159793
C6    C     C_R   0.900149 0.569052 0.582758 -0.012453
C7    C     C_R   0.952765 0.495974 0.518166 0.021735
C8    C     C_R   0.912326 0.424335 0.451654 -0.032213
C9    C     C_R   0.942047 0.650188 0.630221 -0.044144
C10   C     C_R   0.033978 0.654279 0.615746 -0.178422
C11   C     C_R   0.085955 0.579880 0.556173 0.057362
C12   C     C_R   0.494336 0.500277 0.261354 0.748689
C13   C     C_R   0.045488 0.497082 0.514676 0.031558
C14   C     C_R   0.097545 0.417970 0.463703 0.006599
C15   C     C_R   0.056221 0.338664 0.412578 0.141966
C16   C     C_R   0.963388 0.343379 0.403175 0.144071
C17   C     C_R   0.177049 0.588865 0.531169 0.175321
C18   C     C_R   0.230577 0.505340 0.498537 -0.081350
C19   C     C_R   0.189863 0.420463 0.466163 -0.142511
C20   C     C_R   0.437142 0.796192 0.570997 0.065100
C21   C     C_R   0.438288 0.210791 0.572896 0.060024
C22   C     C_R   0.562322 0.792027 0.429851 0.360063
C23   C     C_R   0.553849 0.201702 0.417694 0.363429
C24   C     C_R   0.564739 0.894487 0.435816 -0.117228
C25   C     C_R   0.551530 0.099196 0.414664 -0.114451
C26   C     C_R   0.671295 0.498388 0.503104 0.862480
C27   C     C_R   0.496635 0.948622 0.502859 0.042745
C28   C     C_R   0.493893 0.052003 0.498226 0.046124
C29   C     C_R   0.432560 0.899860 0.573843 -0.067946
C30   C     C_R   0.431262 0.108014 0.571104 -0.054906
C31   C     C_R   0.628336 0.945878 0.366862 0.147448
C32   C     C_R   0.608761 0.041344 0.335344 0.148942
C33   C     C_R   0.363673 0.060042 0.639055 -0.104023
C34   C     C_R   0.364432 0.956236 0.640977 -0.063276
C35   C     C_R   0.491844 0.500221 0.740422 0.780353
C36   C     C_3   0.445244 0.602126 0.079332 -0.345802
C37   C     C_3   0.436978 0.409483 0.078875 -0.220049
C38   C     C_3   0.444061 0.606246 0.932807 -0.194907
C39   C     C_3   0.421141 0.415036 0.935999 -0.246246
C40   C     C_3   0.580973 0.491384 0.066008 -0.360060
C41   C     C_3   0.484749 0.501073 0.125551 -0.088994
C42   C     C_3   0.482280 0.500636 0.880146 -0.116330
Cu1   Cu    Cu3+1 0.499990 0.597420 0.500010 1.058387
Cu2   Cu    Cu3+1 0.499990 0.402580 0.500010 1.013560
H1    H     H_    0.498010 0.650286 0.105971 0.172693
H2    H     H_    0.491298 0.352332 0.086417 0.185005
H3    H     H_    0.064713 0.717047 0.651014 0.190095
H4    H     H_    0.231400 0.358168 0.436870 0.204422
H5    H     H_    0.389632 0.756422 0.624205 0.218335
H6    H     H_    0.394847 0.255192 0.633159 0.153658
H7    H     H_    0.620093 0.554449 0.088727 0.243989
H8    H     H_    0.618258 0.427195 0.102821 0.208406
H9    H     H_    0.626009 0.529032 0.879385 0.240224
H10   H     H_    0.606275 0.408353 0.898552 0.226847
N1    N     N_R   0.499930 0.743810 0.499950 -0.217263
N2    N     N_R   0.499930 0.256190 0.499950 -0.213807
O1    O     O_R   0.370250 0.582280 0.500040 -0.543429
O2    O     O_R   0.370250 0.417720 0.500040 -0.615967
O3    O     O_R   0.499970 0.582270 0.317700 -0.588148
O4    O     O_R   0.499970 0.417730 0.317700 -0.561364
O5    O     O_R   0.629730 0.582260 0.499980 -0.524518
O6    O     O_R   0.629730 0.417740 0.499980 -0.557184
O7    O     O_R   0.500000 0.582270 0.682320 -0.536689
O8    O     O_R   0.500000 0.417730 0.682320 -0.575724
I1    I     I_    0.221877 0.731679 0.502596 -0.198164
I2    I     I_    0.133375 0.214014 0.342566 -0.133051
I3    I     I_    0.899233 0.221348 0.334157 -0.133799
I4    I     I_    0.640832 0.719110 0.284372 -0.179003
I5    I     I_    0.651173 0.267745 0.305097 -0.211459
I6    I     I_    0.767305 0.911216 0.366978 -0.095244
I7    I     I_    0.613277 0.059583 0.139885 -0.148252
C43   C     C_2   0.289189 0.118112 0.702705 0.899147
O9    O     O_2   0.265118 0.099072 0.808744 -0.513483
O10   O     O_R   0.245231 0.193067 0.639858 -0.747962
H11   H     H_    0.195975 0.227206 0.692501 0.366859
C44   C     C_2   0.290082 0.908733 0.707321 0.910214
O11   O     O_2   0.304556 0.851303 0.790217 -0.518447
O12   O     O_R   0.202840 0.933197 0.677810 -0.705372
H12   H     H_    0.157819 0.897460 0.730358 0.358648
C45   C     C_2   0.369407 0.657075 0.152435 1.015330
O13   O     O_2   0.361615 0.745082 0.140619 -0.476229
O14   O     O_R   0.308893 0.613521 0.232684 -0.654934
H13   H     H_    0.328599 0.546356 0.256338 0.298121
C46   C     C_2   0.367870 0.360269 0.162838 0.906311
O15   O     O_2   0.294789 0.397860 0.189075 -0.551304
O16   O     O_R   0.389959 0.268718 0.211335 -0.714043
H14   H     H_    0.341083 0.243180 0.267704 0.353420
C47   C     C_2   0.351565 0.633190 0.881460 0.907920
O17   O     O_2   0.341972 0.628943 0.770620 -0.595865
O18   O     O_R   0.277498 0.662941 0.956593 -0.651062
H15   H     H_    0.222586 0.677653 0.908577 0.373010
C48   C     C_2   0.323100 0.434662 0.906300 0.898891
O19   O     O_2   0.269117 0.468169 0.983681 -0.450374
O20   O     O_R   0.292735 0.417745 0.789110 -0.720004
H16   H     H_    0.340241 0.391082 0.728720 0.293980
C49   C     C_2   0.503516 0.690310 0.892597 0.923882
O21   O     O_2   0.581159 0.689719 0.919118 -0.539860
O22   O     O_R   0.467764 0.772366 0.834446 -0.711648
H17   H     H_    0.512834 0.823218 0.816995 0.352341
C50   C     C_2   0.444516 0.310830 0.888980 0.773744
O23   O     O_2   0.517623 0.286533 0.843219 -0.563715
O24   O     O_R   0.383560 0.239385 0.912557 -0.704926
H18   H     H_    0.408742 0.172257 0.888684 0.360380
I8    I     I_    0.797407 0.460774 0.237692 -0.225476
C51   C     C_2   0.757112 0.596184 0.709001 0.858002
O25   O     O_2   0.689918 0.647472 0.699228 -0.474624
O26   O     O_R   0.788178 0.578966 0.826616 -0.706580
H19   H     H_    0.843260 0.534112 0.825702 0.313072
C52   C     C_2   0.893275 0.738703 0.679559 0.908035
O27   O     O_2   0.829878 0.773815 0.626550 -0.529036
O28   O     O_R   0.922929 0.784772 0.783371 -0.718139
H20   H     H_    0.885218 0.845192 0.807288 0.366047

loop_
_geom_bond_atom_site_label_1
_geom_bond_atom_site_label_2
_ccdc_geom_bond_type
C3    I8    S    
C27   C29   A    
C11   C13   A    
C23   I5    S    
O28   H20   S    
C24   C27   A    
C6    C9    A    
O18   H15   S    
Cu1   O7    S    
C7    C8    A    
C5    C51   S    
Cu2   O8    S    
C25   C28   A    
C51   O26   S    
C1    C18   S    
C20   H5    S    
C26   O5    A    
C46   O16   S    
C38   C42   S    
C52   O28   S    
C5    C6    A    
C15   C16   A    
C18   C19   A    
C35   C42   S    
C48   O19   D    
C33   C43   S    
C12   O3    A    
C31   I6    S    
Cu2   O2    S    
C49   O22   S    
O26   H19   S    
C37   C46   S    
C35   O8    A    
C32   I7    S    
C9    C10   A    
Cu1   O3    S    
C25   C32   A    
C8    C16   A    
C13   C14   A    
C36   C41   S    
O24   H18   S    
C20   N1    A    
C48   O20   S    
C21   H6    S    
C17   C18   A    
C39   C42   S    
C20   C29   A    
C9    C52   S    
Cu2   O4    S    
O10   H11   S    
C23   N2    A    
C44   O11   D    
C43   O10   S    
C3    C8    A    
C2    H10   S    
O16   H14   S    
C45   O13   D    
Cu2   O6    S    
C40   H8    S    
C15   I2    S    
C29   C34   A    
C38   C47   S    
Cu1   Cu2   S    
C12   C41   S    
C1    O1    A    
Cu2   N2    S    
C31   C32   A    
C7    C13   A    
C49   O21   D    
C50   O24   S    
C33   C34   A    
C36   H1    S    
C16   I3    S    
C46   O15   D    
C22   I4    S    
C6    C7    A    
C45   O14   S    
C40   C41   S    
C47   O18   S    
O14   H13   S    
C36   C45   S    
C22   C24   A    
C3    C4    A    
C39   C48   S    
C10   H3    S    
Cu1   O5    S    
C21   C30   A    
Cu1   N1    S    
C11   C17   A    
C30   C33   A    
C19   H4    S    
C14   C19   A    
C44   O12   S    
C43   O9    D    
C2    H9    S    
C21   N2    A    
C4    C26   S    
C22   N1    A    
C40   H7    S    
C51   O25   D    
C17   I1    S    
C36   C38   S    
C26   O6    A    
C24   C31   A    
C37   C39   S    
C1    O2    A    
O12   H12   S    
C39   C50   S    
C2    C42   S    
C28   C30   A    
C50   O23   D    
C23   C25   A    
C37   C41   S    
O20   H16   S    
C10   C11   A    
Cu1   O1    S    
C12   O4    A    
C2    C40   S    
C4    C5    A    
C47   O17   D    
O22   H17   S    
C38   C49   S    
C27   C28   A    
C14   C15   A    
C35   O7    A    
C37   H2    S    
C52   O27   D    
C34   C44   S    
