data_mof_unit_66894.cif
_audit_creation_date              2013-03-05T15:57:25-0500
_audit_creation_method            fapswitch 2.2
_symmetry_space_group_name_H-M    P1
_symmetry_Int_Tables_number       1
_space_group_crystal_system       triclinic
_cell_length_a                    17.204305
_cell_length_b                    18.396918
_cell_length_c                    8.426342
_cell_angle_alpha                 89.999602
_cell_angle_beta                  101.531597
_cell_angle_gamma                 90.150652
_cell_volume                      2613.14576737

loop_
_atom_site_label
_atom_site_type_symbol
_atom_site_description
_atom_site_fract_x
_atom_site_fract_y
_atom_site_fract_z
_atom_type_partial_charge
P1    P     P_3+3 0.834140 0.419320 0.003900 0.464025
P2    P     P_3+3 0.834140 0.580680 0.503900 0.468782
P3    P     P_3+3 0.334140 0.919320 0.003900 0.453452
P4    P     P_3+3 0.334140 0.080680 0.503900 0.482491
O1    O     O_2   0.841960 0.394640 0.833410 -0.393388
O2    O     O_2   0.841960 0.605360 0.333410 -0.363870
O3    O     O_2   0.341960 0.894640 0.833410 -0.360978
O4    O     O_2   0.341960 0.105360 0.333410 -0.398405
O5    O     O_3   0.907950 0.463080 0.102990 -0.390387
O6    O     O_3   0.907950 0.536920 0.602990 -0.414968
O7    O     O_3   0.407950 0.963080 0.102990 -0.411418
O8    O     O_3   0.407950 0.036920 0.602990 -0.405319
O9    O     O_3   0.972780 0.329600 0.629720 -0.340301
O10   O     O_3   0.972780 0.670400 0.129720 -0.348511
O11   O     O_3   0.472780 0.829600 0.629720 -0.369407
O12   O     O_3   0.472780 0.170400 0.129720 -0.379503
O13   O     O_2   0.841487 0.267130 0.701582 -0.421473
O14   O     O_2   0.843438 0.729450 0.193468 -0.422776
O15   O     O_2   0.333919 0.780827 0.681066 -0.396323
O16   O     O_2   0.341811 0.230098 0.187905 -0.431844
O17   O     O_3   0.753074 0.478362 0.969861 -0.555673
O18   O     O_3   0.748566 0.527120 0.459860 -0.533968
O19   O     O_3   0.252989 0.977694 0.963743 -0.563882
O20   O     O_3   0.251111 0.023726 0.472905 -0.500542
O21   O     O_3   0.932222 0.177092 0.583280 -0.610753
O22   O     O_3   0.951545 0.820002 0.144933 -0.513185
O23   O     O_3   0.426468 0.677184 0.637185 -0.583998
O24   O     O_3   0.449746 0.320866 0.131222 -0.542815
H1    H     H_    0.980158 0.197260 0.824046 0.083135
H2    H     H_    0.976174 0.820384 0.908729 -0.135537
H3    H     H_    0.541115 0.710695 0.741856 0.098915
H4    H     H_    0.533585 0.277473 0.001895 -0.039632
C1    C     C_3   0.003024 0.087439 0.755987 -0.953291
C2    C     C_3   0.065181 0.876900 0.074360 -0.875773
C3    C     C_3   0.530211 0.593815 0.727337 -0.734748
C4    C     C_3   0.585134 0.357990 0.173604 -0.839757
H5    H     H_    0.587976 0.575168 0.702769 0.248057
H6    H     H_    0.636302 0.366936 0.114305 0.207642
H7    H     H_    0.029132 0.059008 0.663042 0.322379
H8    H     H_    0.100709 0.828944 0.125502 0.220929
H9    H     H_    0.041389 0.078824 0.876673 0.257902
H10   H     H_    0.069979 0.919931 0.167830 0.303425
H11   H     H_    0.533743 0.594531 0.858897 0.258134
H12   H     H_    0.602221 0.319045 0.274278 0.250316
P5    P     P_3+3 0.165830 0.418670 0.685610 0.474474
P6    P     P_3+3 0.165830 0.581330 0.185610 0.463929
P7    P     P_3+3 0.665830 0.918670 0.685610 0.456969
P8    P     P_3+3 0.665830 0.081330 0.185610 0.464328
P9    P     P_3+3 0.104142 0.266936 0.112986 0.478906
P10   P     P_3+3 0.100502 0.737079 0.612447 0.467038
P11   P     P_3+3 0.595914 0.759616 0.114661 0.462546
P12   P     P_3+3 0.598020 0.238590 0.613842 0.443837
O25   O     O_2   0.157990 0.394030 0.856030 -0.376907
O26   O     O_2   0.157990 0.605970 0.356030 -0.361282
O27   O     O_2   0.657990 0.894030 0.856030 -0.384455
O28   O     O_2   0.657990 0.105970 0.356030 -0.370616
O29   O     O_3   0.027110 0.329490 0.059550 -0.373942
O30   O     O_3   0.027110 0.670510 0.559550 -0.386874
O31   O     O_3   0.527110 0.829490 0.059550 -0.388703
O32   O     O_3   0.527110 0.170510 0.559550 -0.401013
O33   O     O_2   0.156953 0.268823 0.984795 -0.346855
O34   O     O_2   0.159955 0.728320 0.498497 -0.365358
O35   O     O_2   0.647801 0.757500 0.984233 -0.419188
O36   O     O_2   0.655733 0.231998 0.495806 -0.405402
O37   O     O_3   0.247655 0.477219 0.721935 -0.566872
O38   O     O_3   0.251568 0.528413 0.232280 -0.549363
O39   O     O_3   0.747436 0.977570 0.724078 -0.544556
O40   O     O_3   0.748864 0.024402 0.228031 -0.541085
O41   O     O_3   0.058840 0.182071 0.087626 -0.529936
O42   O     O_3   0.057271 0.821767 0.559993 -0.503534
O43   O     O_3   0.544061 0.676530 0.094273 -0.484066
O44   O     O_3   0.549686 0.321950 0.567942 -0.495906
C5    C     C_3   0.996561 0.180870 0.173870 0.160003
C6    C     C_3   0.975152 0.816382 0.554678 0.354978
C7    C     C_3   0.461810 0.689647 0.074198 0.299530
C8    C     C_3   0.467413 0.308377 0.537285 0.411186
H13   H     H_    0.940226 0.197022 0.092072 0.040407
H14   H     H_    0.945245 0.791464 0.438631 0.164147
H15   H     H_    0.437325 0.703023 0.945690 0.091526
H16   H     H_    0.450907 0.274039 0.427547 0.137354
H17   H     H_    0.006345 0.217099 0.282392 0.118300
H18   H     H_    0.961165 0.783087 0.655120 -0.026550
H19   H     H_    0.449213 0.735091 0.150890 0.057608
H20   H     H_    0.450315 0.279979 0.641407 -0.014283
C9    C     C_3   0.988446 0.104196 0.233401 0.168491
C10   C     C_3   0.941792 0.891827 0.569548 0.015062
C11   C     C_3   0.417321 0.623782 0.124063 0.139263
C12   C     C_3   0.418729 0.378041 0.507941 0.115610
H21   H     H_    0.354485 0.625383 0.060556 0.028180
H22   H     H_    0.364125 0.365490 0.419183 0.021928
H23   H     H_    0.971823 0.066866 0.128553 0.167031
H24   H     H_    0.876224 0.888715 0.561130 0.085473
C13   C     C_3   0.234765 0.454007 0.232316 0.354915
C14   C     C_3   0.225738 0.547190 0.760806 0.361054
C15   C     C_3   0.727400 0.953592 0.265192 0.396168
C16   C     C_3   0.723604 0.045408 0.771942 0.462409
H25   H     H_    0.247690 0.434899 0.359453 0.058559
H26   H     H_    0.221538 0.548755 0.889968 0.072456
H27   H     H_    0.743671 0.945865 0.398089 0.074219
H28   H     H_    0.701285 0.039596 0.885497 0.090038
H29   H     H_    0.173062 0.438221 0.177376 0.122017
H30   H     H_    0.169297 0.566076 0.684159 0.134999
H31   H     H_    0.663565 0.940648 0.224916 0.103536
H32   H     H_    0.677416 0.069992 0.675986 0.120005
C17   C     C_3   0.289633 0.416502 0.138923 -0.784070
C18   C     C_3   0.290177 0.598941 0.732650 -0.809211
C19   C     C_3   0.773332 0.900098 0.182561 -0.799238
C20   C     C_3   0.794996 0.095824 0.801134 -0.961813
H33   H     H_    0.352128 0.428382 0.191740 0.323711
H34   H     H_    0.348982 0.579241 0.796028 0.286253
H35   H     H_    0.832599 0.889852 0.256625 0.287928
H36   H     H_    0.841853 0.073890 0.899009 0.275857
H37   H     H_    0.278828 0.357170 0.137458 0.223647
H38   H     H_    0.279946 0.654114 0.776497 0.213179
H39   H     H_    0.742432 0.847326 0.162998 0.213695
H40   H     H_    0.779173 0.150328 0.838502 0.227735
H41   H     H_    0.280586 0.438546 0.015290 0.270751
H42   H     H_    0.290545 0.600974 0.601617 0.274486
H43   H     H_    0.779745 0.922275 0.063888 0.301749
H44   H     H_    0.817271 0.101713 0.687085 0.285618
Ba1   Ba    Ba6+2 0.000000 0.447380 0.844850 1.567357
Ba2   Ba    Ba6+2 0.000000 0.552620 0.344850 1.565093
Ba3   Ba    Ba6+2 0.500000 0.947380 0.844850 1.554026
Ba4   Ba    Ba6+2 0.500000 0.052620 0.344850 1.553683
C21   C     C_3   0.772695 0.543860 0.902506 0.402055
C22   C     C_3   0.766135 0.453770 0.442033 0.352216
C23   C     C_3   0.279199 0.047141 0.932679 0.351474
C24   C     C_3   0.268640 0.956835 0.409835 0.384845
H45   H     H_    0.759841 0.538278 0.769238 0.089031
H46   H     H_    0.755888 0.440974 0.310917 0.093692
H47   H     H_    0.304715 0.045856 0.821937 0.107535
H48   H     H_    0.264088 0.962555 0.277564 0.097276
H49   H     H_    0.835671 0.560171 0.944368 0.107610
H50   H     H_    0.827160 0.437380 0.500369 0.121288
H51   H     H_    0.323297 0.068677 0.036737 0.146965
H52   H     H_    0.328208 0.936238 0.467715 0.101615
C25   C     C_3   0.720844 0.603796 0.949221 -0.870852
C26   C     C_3   0.709150 0.409972 0.519139 -0.817309
C27   C     C_3   0.208258 0.097052 0.905630 -0.820562
C28   C     C_3   0.207733 0.901588 0.441594 -0.764455
H53   H     H_    0.664836 0.581125 0.974238 0.292534
H54   H     H_    0.647310 0.422552 0.461227 0.301600
H55   H     H_    0.166773 0.079045 0.794479 0.288660
H56   H     H_    0.147501 0.925535 0.417001 0.312444
H57   H     H_    0.707195 0.644638 0.850766 0.223417
H58   H     H_    0.721376 0.351355 0.509200 0.239146
H59   H     H_    0.226662 0.153609 0.889729 0.256327
H60   H     H_    0.208097 0.853036 0.364086 0.208308
H61   H     H_    0.751684 0.631046 0.060765 0.275408
H62   H     H_    0.715548 0.425752 0.647562 0.258477
H63   H     H_    0.178771 0.094910 0.011619 0.280016
H64   H     H_    0.221706 0.884931 0.570282 0.258977
O45   O     O_3   0.092100 0.536880 0.086720 -0.412958
O46   O     O_3   0.092100 0.463120 0.586720 -0.400170
O47   O     O_3   0.592100 0.036880 0.086720 -0.408057
O48   O     O_3   0.592100 0.963120 0.586720 -0.408042
P13   P     P_3+3 0.902074 0.738831 0.077957 0.447440
P14   P     P_3+3 0.895140 0.265963 0.574520 0.435650
P15   P     P_3+3 0.401691 0.238176 0.074588 0.413779
P16   P     P_3+3 0.395999 0.765416 0.576560 0.457910
C29   C     C_3   0.993516 0.168428 0.717438 1.011032
C30   C     C_3   0.978844 0.854733 0.017517 1.011134
C31   C     C_3   0.508964 0.669171 0.657901 0.810249
C32   C     C_3   0.514895 0.328511 0.053710 0.967190
H65   H     H_    0.483780 0.554019 0.674724 0.313062
H66   H     H_    0.569090 0.411024 0.220091 0.321524
H67   H     H_    0.945093 0.061814 0.757162 0.269521
H68   H     H_    0.089358 0.898541 0.970922 0.223643
H69   H     H_    0.416799 0.625127 0.255009 0.180736
H70   H     H_    0.397609 0.395790 0.617083 0.153184
H71   H     H_    0.941723 0.102310 0.307193 0.149489
H72   H     H_    0.970630 0.916113 0.687500 0.173693
C33   C     C_R   0.137169 0.677372 0.924119 -0.501796
C34   C     C_R   0.145992 0.328366 0.418664 -0.474541
C35   C     C_R   0.637098 0.177034 0.923677 -0.526840
C36   C     C_R   0.641053 0.824550 0.420905 -0.466077
C37   C     C_R   0.855313 0.328285 0.269185 -0.537409
C38   C     C_R   0.863881 0.678485 0.764007 -0.486564
C39   C     C_R   0.358982 0.825541 0.266718 -0.533779
C40   C     C_R   0.364092 0.177751 0.763824 -0.522361
C41   C     C_R   0.784949 0.217592 0.303870 -0.183170
C42   C     C_R   0.791584 0.787631 0.799747 -0.190870
C43   C     C_R   0.288125 0.715125 0.301200 -0.229042
C44   C     C_R   0.295583 0.289617 0.796169 -0.173936
C45   C     C_R   0.838224 0.272786 0.367504 0.245077
C46   C     C_R   0.848664 0.735525 0.862501 0.182220
C47   C     C_R   0.344339 0.768122 0.363459 0.282406
C48   C     C_R   0.350675 0.236047 0.859878 0.212071
C49   C     C_R   0.813684 0.335030 0.110450 0.299181
C50   C     C_R   0.818346 0.668129 0.608040 0.260600
C51   C     C_R   0.314471 0.834516 0.110386 0.259714
C52   C     C_R   0.319010 0.168157 0.607680 0.285137
C53   C     C_R   0.754135 0.282127 0.046502 -0.090998
C54   C     C_R   0.758894 0.720773 0.543711 -0.081053
C55   C     C_R   0.254140 0.782339 0.047213 -0.078308
C56   C     C_R   0.261391 0.222274 0.542080 -0.060107
C57   C     C_R   0.241413 0.721047 0.143956 -0.090889
C58   C     C_R   0.249111 0.283740 0.638860 -0.063386
C59   C     C_R   0.740666 0.221461 0.144239 -0.081309
C60   C     C_R   0.745717 0.781784 0.641052 -0.067057
C61   C     C_R   0.181918 0.668178 0.080580 0.300500
C62   C     C_R   0.188460 0.335742 0.576542 0.348023
C63   C     C_R   0.682153 0.167852 0.079987 0.290137
C64   C     C_R   0.685345 0.833722 0.577822 0.273610
C65   C     C_R   0.151850 0.734868 0.826822 0.208474
C66   C     C_R   0.161739 0.272233 0.320615 0.195204
C67   C     C_R   0.651519 0.234651 0.826426 0.247653
C68   C     C_R   0.656357 0.767823 0.322312 0.279908
C69   C     C_R   0.207381 0.788450 0.889916 -0.189982
C70   C     C_R   0.215884 0.217661 0.383157 -0.049055
C71   C     C_R   0.707912 0.287600 0.888715 -0.169138
C72   C     C_R   0.712581 0.714874 0.385265 -0.083149
H73   H     H_    0.281713 0.669820 0.377713 0.195929
H74   H     H_    0.288941 0.335080 0.871333 0.182947
H75   H     H_    0.779187 0.172199 0.381491 0.199382
H76   H     H_    0.783359 0.831936 0.877367 0.196903
H77   H     H_    0.715094 0.332463 0.812103 0.184505
H78   H     H_    0.718128 0.668953 0.309289 0.185566
H79   H     H_    0.213723 0.834140 0.813974 0.186957
H80   H     H_    0.221131 0.172123 0.305611 0.194956
H81   H     H_    0.093302 0.636991 0.873604 0.164169
H82   H     H_    0.101198 0.367953 0.369345 0.159766
H83   H     H_    0.592830 0.136918 0.873616 0.168870
H84   H     H_    0.594728 0.862939 0.373174 0.163839
H85   H     H_    0.899918 0.368123 0.319255 0.174156
H86   H     H_    0.909374 0.639528 0.812891 0.165860
H87   H     H_    0.404078 0.865019 0.316197 0.177878
H88   H     H_    0.407539 0.137346 0.814972 0.170050
Cl1   Cl    Cl    0.082493 0.201399 0.667370 -0.625749
Cl2   Cl    Cl    0.921114 0.934434 0.964182 -0.749144
Cl3   Cl    Cl    0.539720 0.673518 0.470249 -0.693222
Cl4   Cl    Cl    0.491844 0.392983 0.896317 -0.638654
Cl5   Cl    Cl    0.081191 0.076250 0.352857 -0.550907
Cl6   Cl    Cl    0.963463 0.949494 0.415046 -0.571010
Cl7   Cl    Cl    0.458934 0.539574 0.082827 -0.499732
Cl8   Cl    Cl    0.471979 0.451117 0.440104 -0.529484

loop_
_geom_bond_atom_site_label_1
_geom_bond_atom_site_label_2
_geom_bond_distance
_ccdc_geom_bond_type
C43   H73   1.072589 S    
C42   H76   1.072280 S    
P1    O17   1.747935 S    
O10   Ba2   2.804684 S    
C13   H25   1.107195 S    
P12   C67   1.844543 S    
C20   H44   1.108677 S    
P3    O19   1.742406 S    
O7    Ba4   2.840912 S    
C34   H82   1.082545 S    
C35   C67   1.391603 A    
O44   C8    1.408726 S    
O6    Ba1   2.845720 S    
C33   H81   1.082243 S    
C28   H60   1.107283 S    
P2    O2    1.537868 D    
C9    H23   1.109916 S    
C37   C45   1.382415 A    
Ba3   Ba4   4.636717 S    
O43   C7    1.412574 S    
Ba3   O47   2.840891 S    
C26   H62   1.104367 S    
P8    C63   1.871417 S    
C27   H59   1.102729 S    
C43   C57   1.409982 A    
O11   Ba3   2.802801 S    
C18   H38   1.106658 S    
C10   H72   1.111447 S    
O15   P16   1.540836 D    
C52   C56   1.437190 A    
C25   H57   1.109497 S    
C3    H5    1.110069 S    
C23   H51   1.110790 S    
C55   C69   1.410932 A    
C31   Cl3   1.766612 S    
C24   H52   1.110819 S    
P4    O20   1.746284 S    
C54   C72   1.415417 A    
C15   H27   1.107915 S    
O18   C22   1.398259 S    
C39   C47   1.387271 A    
P7    O48   1.598416 S    
C14   H26   1.105457 S    
C21   H49   1.110786 S    
C11   H69   1.105504 S    
O1    Ba1   2.867893 S    
C34   C62   1.390285 A    
P9    O29   1.747253 S    
P4    Ba4   3.426647 S    
O22   P13   1.753321 S    
C33   C61   1.397982 A    
C42   C46   1.400085 A    
C19   H43   1.105648 S    
O32   Ba4   2.802075 S    
C49   C53   1.435699 A    
P4    C52   1.874995 S    
C25   H53   1.107233 S    
P12   O32   1.742151 S    
O23   C31   1.403077 S    
C44   H74   1.069190 S    
P6    C61   1.873016 S    
C54   C60   1.435154 A    
C36   C68   1.391953 A    
O21   C29   1.392703 S    
P5    C62   1.862775 S    
O16   P15   1.545198 D    
C2    H10   1.107927 S    
P2    O18   1.746432 S    
P7    O39   1.749403 S    
O41   C5    1.409914 S    
P4    O8    1.593499 S    
C40   C48   1.390900 A    
C28   H64   1.106212 S    
C40   C52   1.398253 A    
P4    O4    1.537868 D    
C56   C70   1.412062 A    
C28   H56   1.107890 S    
C16   C20   1.517427 S    
P7    O27   1.537182 D    
P5    O25   1.537182 D    
C36   C64   1.397827 A    
P9    O41   1.737141 S    
C18   H42   1.106037 S    
O12   P15   1.745611 S    
C59   C63   1.433900 A    
C67   C71   1.398960 A    
Ba2   O46   2.845700 S    
C17   H41   1.099761 S    
C1    H67   1.103244 S    
P11   O43   1.758782 S    
Ba1   O45   2.840891 S    
C6    H18   1.109087 S    
C2    H68   1.111442 S    
C24   H48   1.106609 S    
C22   H50   1.109126 S    
C5    H17   1.116527 S    
C15   H31   1.107981 S    
C51   C55   1.433874 A    
Ba3   O48   2.949761 S    
P2    Ba2   3.426647 S    
O31   Ba3   2.803954 S    
C12   Cl8   1.782208 S    
H3    C31   1.109639 S    
C8    H20   1.109787 S    
O30   Ba2   2.802075 S    
O40   C15   1.405382 S    
C12   H70   1.103934 S    
Ba1   O46   2.949761 S    
O10   P13   1.746648 S    
P10   O30   1.749180 S    
P1    O5    1.590127 S    
H1    C29   1.106488 S    
P11   O35   1.548774 D    
P13   C46   1.864623 S    
C56   C58   1.434742 A    
P12   O36   1.544457 D    
C70   H80   1.077466 S    
C13   H29   1.107910 S    
C22   H46   1.108626 S    
C41   C45   1.399008 A    
P11   C68   1.854028 S    
O4    Ba4   2.872726 S    
C34   C66   1.383253 A    
P5    Ba1   3.428918 S    
O23   P16   1.751561 S    
C53   C59   1.432654 A    
C11   Cl7   1.771592 S    
O29   Ba1   2.803954 S    
O22   C30   1.407682 S    
O24   P15   1.749596 S    
C3    C31   1.521496 S    
C8    C12   1.525787 S    
C20   H36   1.108496 S    
C69   H79   1.074874 S    
P15   C48   1.846637 S    
C1    C29   1.527175 S    
O42   C6    1.407756 S    
P12   O44   1.752429 S    
C21   H45   1.105027 S    
C60   C64   1.435142 A    
C27   H63   1.112464 S    
O9    Ba1   2.802801 S    
C66   C70   1.400720 A    
P7    Ba3   3.428918 S    
C65   C69   1.399662 A    
C68   C72   1.402054 A    
C19   H39   1.102075 S    
P6    O26   1.537398 D    
C4    H66   1.107328 S    
O5    Ba2   2.840912 S    
C42   C60   1.414234 A    
C27   H55   1.108073 S    
C41   H75   1.077266 S    
C1    H7    1.109317 S    
C6    C10   1.518049 S    
C57   C61   1.433584 A    
O13   P14   1.547288 D    
C5    C9    1.512550 S    
Ba1   Ba2   4.636717 S    
C30   Cl2   1.779753 S    
C15   C19   1.517176 S    
O26   Ba2   2.871213 S    
O38   C13   1.398302 S    
C29   Cl1   1.772735 S    
C58   C62   1.437347 A    
C71   H77   1.069826 S    
C7    C11   1.534376 S    
O37   C14   1.399442 S    
C25   H61   1.102485 S    
P8    O47   1.595006 S    
C12   H22   1.101417 S    
C1    H9    1.107763 S    
C44   C58   1.408477 A    
Ba4   O48   2.845700 S    
C26   H54   1.103331 S    
O39   C16   1.398981 S    
P10   O34   1.545208 D    
Ba2   O45   2.950583 S    
C9    Cl5   1.784841 S    
C4    H12   1.104896 S    
P11   O31   1.748572 S    
O2    Ba2   2.872726 S    
O17   C21   1.400866 S    
C4    H6    1.107624 S    
P2    O6    1.593499 S    
P14   C45   1.826255 S    
O28   Ba4   2.871213 S    
O9    P14   1.764802 S    
P1    O1    1.538082 D    
C3    H11   1.098112 S    
O24   C32   1.412280 S    
C4    C32   1.511119 S    
C18   H34   1.107242 S    
C17   H37   1.106416 S    
C13   C17   1.512248 S    
P8    O28   1.537398 D    
P6    O45   1.595006 S    
C17   H33   1.099683 S    
C22   C26   1.510963 S    
O27   Ba3   2.876096 S    
C36   H84   1.081912 S    
C19   H35   1.100586 S    
P6    Ba2   3.426604 S    
C8    H16   1.108534 S    
O3    Ba3   2.867893 S    
C2    C30   1.521314 S    
P8    Ba4   3.426604 S    
C33   C65   1.391462 A    
P6    O38   1.747508 S    
H2    C30   1.106683 S    
P2    C50   1.878768 S    
C16   H28   1.105037 S    
O19   C23   1.395817 S    
P3    O3    1.538082 D    
P8    O40   1.751872 S    
C37   C49   1.390985 A    
C32   Cl4   1.764992 S    
C21   C25   1.520566 S    
C20   H40   1.101987 S    
C23   H47   1.108092 S    
C16   H32   1.111198 S    
O12   Ba4   2.804684 S    
C35   C63   1.398812 A    
O11   P16   1.759280 S    
C10   Cl6   1.775208 S    
O14   P13   1.544823 D    
O25   Ba1   2.876096 S    
P5    O37   1.747962 S    
P9    O33   1.544591 D    
C7    H19   1.104750 S    
O8    Ba3   2.845720 S    
C72   H78   1.075879 S    
C26   H58   1.105622 S    
C38   C50   1.401699 A    
H4    C32   1.110562 S    
P3    Ba3   3.424383 S    
C3    H65   1.107236 S    
C40   H88   1.082181 S    
P7    C64   1.872065 S    
C24   C28   1.519598 S    
C14   C18   1.513743 S    
P10   O42   1.746582 S    
P3    C51   1.863391 S    
P1    Ba1   3.424383 S    
C38   H86   1.081651 S    
C53   C71   1.409953 A    
P3    O7    1.590127 S    
C50   C54   1.435800 A    
C37   H85   1.082427 S    
C38   C46   1.395277 A    
P10   C65   1.845887 S    
C44   C48   1.399742 A    
C39   H87   1.082085 S    
C9    H71   1.110713 S    
C39   C51   1.395112 A    
P9    C66   1.832672 S    
C14   H30   1.109843 S    
C5    H13   1.112279 S    
C6    H14   1.108462 S    
Ba4   O47   2.950583 S    
O21   P14   1.752755 S    
O20   C24   1.397781 S    
C11   H21   1.106696 S    
C35   H83   1.082233 S    
C2    H8    1.111383 S    
C10   H24   1.117355 S    
P5    O46   1.598416 S    
P16   C47   1.838188 S    
C7    H15   1.108485 S    
C23   C27   1.509739 S    
C43   C47   1.397619 A    
P1    C49   1.859567 S    
C55   C57   1.433159 A    
C41   C59   1.409023 A    
