data_mof_unit_20581.cif
_audit_creation_date              2012-12-10T17:38:57-0500
_audit_creation_method            fapswitch 2.2
_symmetry_space_group_name_H-M    P1
_symmetry_Int_Tables_number       1
_space_group_crystal_system       triclinic
_cell_length_a                    12.125773
_cell_length_b                    12.831283
_cell_length_c                    23.365433
_cell_angle_alpha                 92.805627
_cell_angle_beta                  86.210188
_cell_angle_gamma                 94.468083
_cell_volume                      3612.92861954

loop_
_atom_site_label
_atom_site_type_symbol
_atom_type_description
_atom_site_fract_x
_atom_site_fract_y
_atom_site_fract_z
_atom_type_partial_charge
C1    C     C_R   0.523373 0.700262 0.495416 0.935013
C2    C     C_R   0.446631 0.419213 0.299221 -0.231883
C3    C     C_R   0.550956 0.586467 0.760508 0.144558
C4    C     C_R   0.444854 0.415608 0.239716 0.143087
C5    C     C_R   0.500116 0.501446 0.790753 0.160269
C6    C     C_R   0.499082 0.498875 0.209278 0.161884
C7    C     C_R   0.459290 0.187498 0.512217 -0.354906
C8    C     C_R   0.540709 0.812454 0.487671 -0.355661
C9    C     C_R   0.650839 0.976966 0.497765 0.422563
C10   C     C_R   0.349162 0.022976 0.502107 0.422003
C11   C     C_R   0.645336 0.868156 0.491387 0.301374
C12   C     C_R   0.476625 0.299718 0.504535 0.935795
C13   C     C_R   0.354673 0.131791 0.508431 0.301069
C14   C     C_R   0.448299 0.866166 0.477947 0.370602
C15   C     C_R   0.551690 0.133769 0.521961 0.369380
C16   C     C_R   0.499801 0.499063 0.610095 0.889698
C17   C     C_R   0.500202 0.501066 0.389907 0.890582
C18   C     C_R   0.448588 0.972043 0.494308 -0.201991
C19   C     C_R   0.551406 0.027895 0.505591 -0.201909
C20   C     C_R   0.949518 0.382971 0.457132 0.397896
C21   C     C_R   0.050504 0.616960 0.543036 0.397911
C22   C     C_R   0.837227 0.402843 0.454348 0.136051
C23   C     C_R   0.448897 0.413991 0.761761 0.403641
C24   C     C_R   0.162810 0.597031 0.545756 0.137274
C25   C     C_R   0.859114 0.545481 0.522551 0.563604
C26   C     C_R   0.140840 0.454630 0.477423 0.564793
C27   C     C_R   0.977008 0.541833 0.516505 -0.242079
C28   C     C_R   0.022971 0.458238 0.483554 -0.241717
C29   C     C_R   0.411964 0.539341 0.124478 0.606452
C30   C     C_R   0.587351 0.461676 0.875587 0.594025
C31   C     C_R   0.583062 0.457389 0.116027 0.587282
C32   C     C_R   0.415439 0.542260 0.883987 0.599900
C33   C     C_R   0.585342 0.457757 0.056335 -0.068198
C34   C     C_R   0.553042 0.585042 0.238110 0.403023
C35   C     C_R   0.413257 0.542096 0.943691 -0.070018
C36   C     C_R   0.498218 0.499693 0.030215 -0.056946
C37   C     C_R   0.500500 0.500368 0.969823 -0.056772
C38   C     C_R   0.409177 0.540943 0.064363 -0.120167
C39   C     C_R   0.589689 0.459348 0.935687 -0.118659
C40   C     C_R   0.673153 0.417422 0.022658 -0.163935
C41   C     C_R   0.325332 0.582239 0.977375 -0.164964
C42   C     C_R   0.676524 0.417787 0.963071 0.426617
C43   C     C_R   0.322118 0.582124 0.036975 0.425594
C44   C     C_3   0.229715 0.663927 0.588656 -0.321351
C45   C     C_R   0.448495 0.410210 0.701566 0.026001
C46   C     C_3   0.189514 0.640914 0.650502 -0.787750
C47   C     C_3   0.770325 0.335569 0.411606 -0.316982
C48   C     C_3   0.811117 0.357275 0.349668 -0.794828
C49   C     C_3   0.399205 0.313274 0.669704 -0.347965
C50   C     C_3   0.273915 0.314952 0.667246 -0.676142
C51   C     C_3   0.604825 0.685148 0.330026 -0.344573
C52   C     C_3   0.729881 0.681266 0.332464 -0.677257
C53   C     C_3   0.606598 0.681735 0.790483 -0.375515
C54   C     C_3   0.537685 0.776071 0.789099 -0.749946
C55   C     C_3   0.385883 0.321893 0.209947 -0.406235
C56   C     C_R   0.553547 0.588934 0.298308 0.024345
C57   C     C_3   0.260373 0.322648 0.220659 -0.692959
C58   C     C_R   0.499324 0.496256 0.671813 -0.116391
C59   C     C_R   0.500527 0.503999 0.328195 -0.116355
C60   C     C_R   0.550276 0.582468 0.700952 -0.229311
Cl1   Cl    Cl    0.206030 0.379596 0.421764 -0.474430
Cl2   Cl    Cl    0.347463 0.805890 0.432495 -0.481451
Cl3   Cl    Cl    0.228704 0.193729 0.516472 -0.405243
Cl4   Cl    Cl    0.771293 0.806214 0.483113 -0.406604
Cl5   Cl    Cl    0.782413 0.046941 0.488471 -0.350477
Cl6   Cl    Cl    0.217587 0.952998 0.511432 -0.351323
Cl7   Cl    Cl    0.793735 0.620738 0.578037 -0.458764
Cl8   Cl    Cl    0.988994 0.255462 0.436072 -0.389534
Cl9   Cl    Cl    0.011064 0.744317 0.564472 -0.385468
Cl10  Cl    Cl    0.792849 0.364653 0.926526 -0.435908
Cl11  Cl    Cl    0.205363 0.634476 0.073532 -0.442395
Cl12  Cl    Cl    0.386990 0.309288 0.802142 -0.539711
Cl13  Cl    Cl    0.617826 0.688257 0.197548 -0.537219
Cl14  Cl    Cl    0.652536 0.194009 0.567418 -0.482710
H1    H     H_    0.740390 0.385268 0.042636 0.228221
H2    H     H_    0.804721 0.440868 0.341224 0.256724
H3    H     H_    0.898418 0.338106 0.340830 0.297916
H4    H     H_    0.759008 0.308694 0.319660 0.263559
H5    H     H_    0.773784 0.251290 0.419384 0.264034
H6    H     H_    0.682776 0.347587 0.414655 0.252451
H7    H     H_    0.233451 0.324493 0.711010 0.287442
H8    H     H_    0.253769 0.379875 0.641045 0.256663
H9    H     H_    0.240053 0.240113 0.647103 0.281331
H10   H     H_    0.436861 0.305623 0.625338 0.201148
H11   H     H_    0.418665 0.241520 0.690530 0.262908
H12   H     H_    0.257912 0.614083 0.957394 0.228263
H13   H     H_    0.748662 0.616567 0.359167 0.255872
H14   H     H_    0.770051 0.670033 0.288753 0.286463
H15   H     H_    0.765286 0.755971 0.352084 0.282010
H16   H     H_    0.586879 0.757269 0.309076 0.262617
H17   H     H_    0.567356 0.693679 0.374397 0.200763
H18   H     H_    0.528268 0.796656 0.744150 0.257888
H19   H     H_    0.454367 0.758892 0.810728 0.285552
H20   H     H_    0.579633 0.844376 0.811953 0.270965
H21   H     H_    0.619878 0.667888 0.835931 0.212841
H22   H     H_    0.689885 0.700259 0.768999 0.244184
H23   H     H_    0.589109 0.647377 0.677040 0.193358
H24   H     H_    0.231012 0.394888 0.204452 0.290727
H25   H     H_    0.219376 0.253903 0.197738 0.258974
H26   H     H_    0.236103 0.318439 0.267215 0.279253
H27   H     H_    0.405917 0.319327 0.162899 0.213858
H28   H     H_    0.413843 0.248953 0.226157 0.230358
H29   H     H_    0.406684 0.354889 0.323210 0.193937
H30   H     H_    0.102050 0.659412 0.659586 0.300266
H31   H     H_    0.196611 0.557196 0.658442 0.257544
H32   H     H_    0.241500 0.689294 0.680648 0.260884
H33   H     H_    0.317388 0.652499 0.585317 0.252255
H34   H     H_    0.225723 0.748331 0.581375 0.263213
N1    N     N_R   0.497607 0.497837 0.148312 -0.348718
N2    N     N_R   0.501329 0.502528 0.851730 -0.349200
N3    N     N_R   0.207800 0.519350 0.510590 -0.168999
N4    N     N_R   0.792200 0.480650 0.489410 -0.170290
O1    O     O_R   0.421690 0.658830 0.502820 -0.610336
O2    O     O_2   0.669210 0.423762 0.840695 -0.445235
O3    O     O_2   0.665570 0.417300 0.141953 -0.525275
O4    O     O_2   0.332288 0.581226 0.858042 -0.532529
O5    O     O_R   0.578310 0.341170 0.497180 -0.610407
O6    O     O_R   0.609320 0.646410 0.496030 -0.544116
O7    O     O_R   0.390680 0.353590 0.503970 -0.543332
O8    O     O_R   0.406170 0.506240 0.587240 -0.658815
O9    O     O_R   0.593830 0.493760 0.412760 -0.659073
O10   O     O_R   0.593790 0.493820 0.580450 -0.540859
O11   O     O_R   0.406210 0.506180 0.419550 -0.540987
O12   O     O_2   0.331216 0.579106 0.159381 -0.457168
Zn1   Zn    Zn3+2 0.374720 0.508290 0.504530 1.036575
Zn2   Zn    Zn3+2 0.625280 0.491710 0.495470 1.036644

loop_
_geom_bond_atom_site_label_1
_geom_bond_atom_site_label_2
_ccdc_geom_bond_type
C29   O12   S    
C34   C56   A    
C23   C45   A    
C53   H21   S    
C1    C8    S    
C14   C18   A    
C25   Cl7   S    
C47   H5    S    
C53   C54   S    
C15   C19   A    
C41   H12   S    
C55   H28   S    
C32   N2    A    
C30   N2    A    
C49   H10   S    
C29   N1    A    
C36   C37   A    
C35   C37   A    
C26   Cl1   S    
C18   C19   A    
C16   O8    A    
C51   H16   S    
O11   Zn1   S    
O1    Zn1   S    
C5    N2    S    
C58   C60   A    
C14   Cl2   S    
C46   H31   S    
C42   Cl10  S    
C33   C36   A    
C51   C56   S    
C48   H4    S    
C16   O10   A    
C54   H19   S    
C25   N4    A    
C51   H17   S    
C17   O11   A    
C44   C46   S    
C13   Cl3   S    
C29   C38   A    
N3    Zn1   S    
C8    C14   A    
C31   C33   A    
O5    Zn2   S    
N4    Zn2   S    
C3    C60   A    
C10   Cl6   S    
C22   C47   S    
C21   C27   A    
C53   H22   S    
C41   C43   A    
C52   H15   S    
C24   N3    A    
C1    O1    A    
C47   H6    S    
C31   O3    S    
C9    C19   A    
C50   H9    S    
C39   C42   A    
C44   H34   S    
C7    C12   S    
C45   C58   A    
C33   C40   A    
C51   C52   S    
C32   C35   A    
C49   H11   S    
C52   H14   S    
C4    C6    A    
C60   H23   S    
O9    Zn2   S    
C2    C59   A    
C7    C15   A    
C20   C28   A    
C57   H26   S    
C46   H30   S    
C6    C34   A    
C21   Cl9   S    
C48   H3    S    
O10   Zn2   S    
C2    C4    A    
C54   H18   S    
C12   O7    A    
C47   C48   S    
C5    C23   A    
C45   C49   S    
C31   N1    A    
C16   C58   S    
C32   O4    S    
C9    C11   A    
C17   C59   S    
O7    Zn1   S    
C17   O9    A    
C20   C22   A    
C11   Cl4   S    
C22   N4    A    
C55   C57   S    
C4    C55   S    
C24   C44   S    
C6    N1    S    
C50   H8    S    
C30   O2    S    
C44   H33   S    
C43   Cl11  S    
O8    Zn1   S    
C23   Cl12  S    
C20   Cl8   S    
C52   H13   S    
C3    C5    A    
C10   C13   A    
C40   H1    S    
C25   C27   A    
C55   H27   S    
C26   C28   A    
C56   C59   A    
C36   C38   A    
C38   C43   A    
C37   C39   A    
C3    C53   S    
C2    H29   S    
C10   C18   A    
C8    C11   A    
C57   H24   S    
C46   H32   S    
C40   C42   A    
C30   C39   A    
C1    O6    A    
C35   C41   A    
C9    Cl5   S    
C54   H20   S    
C34   Cl13  S    
C48   H2    S    
C7    C13   A    
C15   Cl14  S    
C49   C50   S    
C21   C24   A    
C27   C28   A    
C12   O5    A    
O6    Zn2   S    
C26   N3    A    
C50   H7    S    
C57   H25   S    
