data_mof_unit_16895.cif
_audit_creation_date              2012-12-11T14:07:45-0500
_audit_creation_method            fapswitch 2.2
_symmetry_space_group_name_H-M    P1
_symmetry_Int_Tables_number       1
_space_group_crystal_system       triclinic
_cell_length_a                    19.673465
_cell_length_b                    17.149592
_cell_length_c                    15.521926
_cell_angle_alpha                 89.867356
_cell_angle_beta                  53.891435
_cell_angle_gamma                 90.265591
_cell_volume                      4230.83114209

loop_
_atom_site_label
_atom_site_type_symbol
_atom_type_description
_atom_site_fract_x
_atom_site_fract_y
_atom_site_fract_z
_atom_type_partial_charge
Br1   Br    Br    0.834000 0.758055 0.647270 -0.507025
Br2   Br    Br    0.640434 0.297698 0.365240 -0.405412
Br3   Br    Br    0.206725 0.284210 0.337667 -0.471507
Br4   Br    Br    0.141152 0.796268 0.364185 -0.406814
Br5   Br    Br    0.486130 0.272589 0.324903 -0.330603
Br6   Br    Br    0.424673 0.719873 0.320671 -0.333337
Br7   Br    Br    0.986092 0.772885 0.324834 -0.330567
Br8   Br    Br    0.924214 0.219127 0.319874 -0.333712
Br9   Br    Br    0.876214 0.904624 0.507759 -0.266642
Br10  Br    Br    0.787466 0.096559 0.498452 -0.345241
Br11  Br    Br    0.376391 0.404494 0.507669 -0.266236
Br12  Br    Br    0.801001 0.222077 0.630941 -0.468509
Br13  Br    Br    0.288238 0.597029 0.499279 -0.344373
Br14  Br    Br    0.364001 0.615016 0.964260 -0.425437
Br15  Br    Br    0.356723 0.382838 0.978831 -0.437574
Br16  Br    Br    0.863999 0.115018 0.964270 -0.425363
Br17  Br    Br    0.856715 0.882840 0.978854 -0.437546
Br18  Br    Br    0.407320 0.903548 0.748065 -0.447634
Br19  Br    Br    0.382871 0.090308 0.765754 -0.457529
Br20  Br    Br    0.907342 0.403539 0.748052 -0.448387
Br21  Br    Br    0.882825 0.590293 0.765789 -0.457692
Br22  Br    Br    0.333999 0.257973 0.647309 -0.506938
Br23  Br    Br    0.300623 0.723357 0.631870 -0.469418
Br24  Br    Br    0.868431 0.876150 0.276203 -0.325140
Br25  Br    Br    0.761917 0.158313 0.308786 -0.380789
Br26  Br    Br    0.368622 0.376110 0.276192 -0.325353
Br27  Br    Br    0.263522 0.657774 0.308375 -0.380152
Br28  Br    Br    0.706642 0.784033 0.337719 -0.470925
C1    C     C_R   0.370733 0.195761 0.003116 -0.118077
C2    C     C_R   0.704045 0.847511 0.996131 0.041192
C3    C     C_R   0.211244 0.647225 0.980711 0.038365
C4    C     C_R   0.204034 0.347500 0.996154 0.041194
C5    C     C_R   0.677584 0.852031 0.677062 0.140351
C6    C     C_R   0.617229 0.180681 0.693301 0.100310
C7    C     C_R   0.177656 0.352074 0.677063 0.140418
C8    C     C_R   0.117278 0.680644 0.693256 0.100413
C9    C     C_3   0.234531 0.179678 0.494326 -0.445795
C10   C     C_3   0.200574 0.861053 0.513104 -0.446324
C11   C     C_3   0.734617 0.679627 0.494306 -0.445715
C12   C     C_R   0.374384 0.802436 0.997332 -0.134688
C13   C     C_3   0.700991 0.361214 0.513395 -0.446771
C14   C     C_3   0.189121 0.225616 0.597388 -0.414178
C15   C     C_3   0.153137 0.815152 0.618609 -0.424520
C16   C     C_3   0.689146 0.725557 0.597374 -0.414143
C17   C     C_3   0.653644 0.315230 0.618818 -0.425099
C18   C     C_3   0.369429 0.244997 0.440888 0.114191
C19   C     C_3   0.317996 0.763864 0.442286 0.114677
C20   C     C_3   0.869455 0.745113 0.440832 0.114171
C21   C     C_3   0.817930 0.263408 0.441852 0.114508
C22   C     C_3   0.779830 0.804087 0.383474 0.551372
C23   C     C_R   0.870737 0.695762 0.003114 -0.117963
C24   C     C_3   0.703500 0.245493 0.409276 0.542032
C25   C     C_3   0.279909 0.304130 0.383463 0.551409
C26   C     C_3   0.204222 0.744864 0.408788 0.541619
C27   C     C_3   0.312262 0.226767 0.403605 -0.040815
C28   C     C_3   0.260806 0.805576 0.416941 -0.046261
C29   C     C_3   0.812288 0.726782 0.403581 -0.040930
C30   C     C_3   0.760691 0.305684 0.417027 -0.046408
C31   C     C_3   0.729980 0.807774 0.577537 0.005368
C32   C     C_3   0.668491 0.226805 0.594733 0.010531
C33   C     C_3   0.230032 0.307799 0.577538 0.005337
C34   C     C_R   0.874378 0.302438 0.997341 -0.134742
C35   C     C_3   0.168587 0.726743 0.594666 0.010678
C36   C     C_3   0.823698 0.800966 0.538414 0.497270
C37   C     C_3   0.764524 0.207333 0.538129 0.499639
C38   C     C_3   0.323742 0.300896 0.538422 0.497354
C39   C     C_3   0.264662 0.707820 0.538620 0.499409
C40   C     C_R   0.351895 0.827005 0.217598 0.016275
C41   C     C_R   0.379646 0.192351 0.212227 -0.008455
C42   C     C_R   0.851838 0.327065 0.217629 0.016178
C43   C     C_R   0.879681 0.692365 0.212209 -0.008411
C44   C     C_3   0.727755 0.847900 0.488675 -0.476166
C45   C     C_R   0.663658 0.911323 0.062203 -0.030062
C46   C     C_3   0.641305 0.208810 0.520171 -0.448838
C47   C     C_3   0.227862 0.347963 0.488654 -0.476270
C48   C     C_3   0.142003 0.708126 0.519605 -0.449385
C49   C     C_2   0.292616 0.678971 0.946508 0.319744
C50   C     C_2   0.284964 0.317161 0.962645 0.315272
C51   C     C_2   0.792617 0.178969 0.946508 0.319840
C52   C     C_2   0.784972 0.817170 0.962633 0.315291
C53   C     C_2   0.814953 0.250187 0.901775 -0.160693
C54   C     C_2   0.810227 0.749087 0.911094 -0.164603
C55   C     C_2   0.314954 0.750188 0.901772 -0.160392
C56   C     C_R   0.668034 0.086294 0.053731 -0.027196
C57   C     C_2   0.310225 0.249084 0.911094 -0.164533
C58   C     C_R   0.372870 0.883771 0.889708 0.359408
C59   C     C_R   0.368057 0.115349 0.895358 0.353266
C60   C     C_R   0.872874 0.383769 0.889705 0.359385
C61   C     C_R   0.868051 0.615348 0.895365 0.353324
C62   C     C_R   0.388587 0.102731 0.310781 -0.121276
C63   C     C_R   0.363708 0.915068 0.314590 -0.107683
C64   C     C_R   0.888648 0.602762 0.310754 -0.121280
C65   C     C_R   0.863711 0.415102 0.314586 -0.107845
C66   C     C_R   0.347148 0.189425 0.936941 0.022649
C67   C     C_R   0.163654 0.411319 0.062212 -0.030268
C68   C     C_R   0.352035 0.809048 0.929744 0.033948
C69   C     C_R   0.847148 0.689427 0.936943 0.022663
C70   C     C_R   0.852034 0.309047 0.929748 0.034105
C71   C     C_R   0.315406 0.853355 0.320164 0.105168
C72   C     C_R   0.356643 0.175095 0.312164 0.114777
C73   C     C_R   0.815325 0.353450 0.320209 0.105543
C74   C     C_R   0.856708 0.675125 0.312131 0.114807
C75   C     C_R   0.660807 0.177158 0.953465 -0.077924
C76   C     C_R   0.654040 0.816697 0.968636 -0.083269
C77   C     C_R   0.160802 0.677164 0.953474 -0.077999
C78   C     C_R   0.168034 0.586295 0.053731 -0.027226
C79   C     C_R   0.154025 0.316684 0.968665 -0.083347
C80   C     C_R   0.640809 0.820994 0.778606 -0.095862
C81   C     C_R   0.604412 0.197441 0.788966 -0.070649
C82   C     C_R   0.140850 0.321023 0.778608 -0.095940
C83   C     C_R   0.104421 0.697430 0.788939 -0.070607
C84   C     C_R   0.594523 0.104315 0.696514 -0.037911
C85   C     C_R   0.634976 0.918873 0.686065 -0.039991
C86   C     C_R   0.094527 0.604287 0.696513 -0.038410
C87   C     C_R   0.135031 0.418908 0.686069 -0.040081
C88   C     C_R   0.711247 0.147220 0.980707 0.038297
H1    H     H_    0.190566 0.165886 0.473527 0.247306
H2    H     H_    0.175500 0.834686 0.666246 0.210404
H3    H     H_    0.691956 0.691765 0.656341 0.208415
H4    H     H_    0.676464 0.334347 0.666094 0.210485
H5    H     H_    0.661191 0.851128 0.516406 0.221159
H6    H     H_    0.576547 0.231285 0.558041 0.237620
H7    H     H_    0.161305 0.351239 0.516367 0.221102
H8    H     H_    0.077109 0.730108 0.557111 0.237664
H9    H     H_    0.331530 0.780785 0.192085 0.156554
H10   H     H_    0.374178 0.245755 0.181000 0.158413
H11   H     H_    0.831492 0.280825 0.192132 0.156676
H12   H     H_    0.154870 0.889240 0.503083 0.248497
H13   H     H_    0.874202 0.745761 0.180978 0.158364
H14   H     H_    0.253031 0.122556 0.508686 0.184382
H15   H     H_    0.234907 0.909257 0.519938 0.184075
H16   H     H_    0.753193 0.622550 0.508664 0.184375
H17   H     H_    0.735685 0.409108 0.520089 0.184181
H18   H     H_    0.372541 0.246952 0.040954 0.179775
H19   H     H_    0.379596 0.749822 0.030407 0.184561
H20   H     H_    0.872554 0.746953 0.040945 0.179755
H21   H     H_    0.879576 0.249827 0.030436 0.184584
H22   H     H_    0.378298 0.188712 0.468628 0.138021
H23   H     H_    0.690667 0.665743 0.473511 0.247318
H24   H     H_    0.342286 0.811097 0.466690 0.141136
H25   H     H_    0.878437 0.688850 0.468498 0.138073
H26   H     H_    0.842628 0.310335 0.466115 0.141304
H27   H     H_    0.750410 0.909115 0.475964 0.239008
H28   H     H_    0.636697 0.145873 0.509901 0.211405
H29   H     H_    0.250559 0.409165 0.475941 0.238798
H30   H     H_    0.138019 0.645095 0.509198 0.211217
H31   H     H_    0.784357 0.275639 0.869209 0.157211
H32   H     H_    0.781779 0.725644 0.874730 0.172456
H33   H     H_    0.284355 0.775642 0.869211 0.157520
H34   H     H_    0.655241 0.389814 0.503795 0.248320
H35   H     H_    0.281776 0.225642 0.874730 0.172451
H36   H     H_    0.390604 0.075963 0.372324 0.114375
H37   H     H_    0.358422 0.945783 0.378789 0.104861
H38   H     H_    0.890687 0.576005 0.372285 0.114297
H39   H     H_    0.858497 0.445836 0.378719 0.104843
H40   H     H_    0.673021 0.224879 0.900773 0.125481
H41   H     H_    0.660495 0.762568 0.929891 0.117336
H42   H     H_    0.173007 0.724892 0.900796 0.125842
H43   H     H_    0.160467 0.262544 0.929947 0.117356
H44   H     H_    0.652370 0.764968 0.798699 0.133930
H45   H     H_    0.621518 0.730774 0.630006 0.226248
H46   H     H_    0.608951 0.253668 0.816565 0.125182
H47   H     H_    0.152413 0.264995 0.798696 0.133964
H48   H     H_    0.108967 0.753669 0.816509 0.125546
H49   H     H_    0.587019 0.073388 0.642318 0.139645
H50   H     H_    0.642174 0.955582 0.624887 0.127540
H51   H     H_    0.086859 0.573367 0.642459 0.139414
H52   H     H_    0.142267 0.455636 0.624881 0.127251
H53   H     H_    0.680336 0.938541 0.109755 0.153055
H54   H     H_    0.686576 0.059467 0.099473 0.153543
H55   H     H_    0.180334 0.438541 0.109759 0.153019
H56   H     H_    0.585288 0.328716 0.666523 0.228521
H57   H     H_    0.186578 0.559465 0.099468 0.153447
H58   H     H_    0.121494 0.230894 0.630038 0.226232
H59   H     H_    0.084711 0.828257 0.665905 0.228640
H60   H     H_    0.191915 0.191793 0.656348 0.208410
N1    N     N_R   0.408680 0.130160 0.995800 -0.082314
N2    N     N_R   0.403730 0.078230 0.935950 -0.085476
N3    N     N_R   0.903730 0.421770 0.935950 -0.083043
N4    N     N_R   0.903730 0.578230 0.935950 -0.085444
N5    N     N_R   0.426630 0.075970 0.212960 -0.048153
N6    N     N_R   0.426630 0.924030 0.212960 -0.045678
N7    N     N_R   0.926630 0.575970 0.212960 -0.048144
N8    N     N_R   0.926630 0.424030 0.212960 -0.045766
N9    N     N_R   0.591320 0.134600 0.004200 -0.048483
N10   N     N_R   0.591320 0.865400 0.004200 -0.045150
N11   N     N_R   0.091320 0.634600 0.004200 -0.048503
N12   N     N_R   0.408680 0.869840 0.995800 -0.082993
N13   N     N_R   0.091320 0.365400 0.004200 -0.045127
N14   N     N_R   0.578320 0.867660 0.846880 -0.057980
N15   N     N_R   0.578320 0.132340 0.846880 -0.052595
N16   N     N_R   0.078320 0.367660 0.846880 -0.057965
N17   N     N_R   0.078320 0.632340 0.846880 -0.052606
N18   N     N_R   0.573370 0.074390 0.787040 -0.051251
N19   N     N_R   0.573370 0.925610 0.787040 -0.053351
N20   N     N_R   0.073370 0.574390 0.787040 -0.051227
N21   N     N_R   0.073370 0.425610 0.787040 -0.053305
N22   N     N_R   0.596270 0.927870 0.064040 -0.061388
N23   N     N_R   0.908680 0.630160 0.995800 -0.082310
N24   N     N_R   0.596270 0.072130 0.064040 -0.060762
N25   N     N_R   0.096270 0.427870 0.064040 -0.061396
N26   N     N_R   0.096270 0.572130 0.064040 -0.060762
N27   N     N_R   0.908680 0.369840 0.995800 -0.082969
N28   N     N_R   0.421680 0.867580 0.153120 -0.055833
N29   N     N_R   0.421680 0.132420 0.153120 -0.060853
N30   N     N_R   0.921680 0.367580 0.153120 -0.055825
N31   N     N_R   0.921680 0.632420 0.153120 -0.060840
N32   N     N_R   0.403730 0.921770 0.935950 -0.083108
Ni1   Ni    Ni4+2 0.500000 0.131190 0.000000 0.251725
Ni2   Ni    Ni4+2 0.500000 0.868810 0.000000 0.265874
Ni3   Ni    Ni4+2 0.000000 0.631190 0.000000 0.251760
Ni4   Ni    Ni4+2 0.000000 0.368810 0.000000 0.265913
Ni5   Ni    Ni4+2 0.488650 0.000000 0.862740 0.290108
Ni6   Ni    Ni4+2 0.988650 0.500000 0.862740 0.290114
Ni7   Ni    Ni4+2 0.511350 0.000000 0.137260 0.266926
Ni8   Ni    Ni4+2 0.011350 0.500000 0.137260 0.266728

loop_
_geom_bond_atom_site_label_1
_geom_bond_atom_site_label_2
_ccdc_geom_bond_type
C42   H11   S    
C23   C69   A    
C44   H27   S    
N31   Ni3   S    
Br26  C25   S    
C17   C32   S    
N32   Ni5   S    
C44   H5    S    
C40   N28   A    
Br9   C36   S    
N7    N31   A    
C3    C77   A    
C75   N9    A    
C76   H41   S    
C8    C86   A    
N18   Ni5   S    
C13   H17   S    
C42   C73   A    
C15   C35   S    
C20   C29   S    
Br21  C61   S    
C33   C47   S    
C29   C74   S    
C87   N21   A    
N11   N26   A    
C31   C36   S    
Br18  C58   S    
C21   C37   S    
C47   H7    S    
C13   C30   S    
C18   C38   S    
C56   H54   S    
C81   H46   S    
C1    C66   A    
C65   N8    A    
N17   Ni3   S    
Br15  C50   S    
C78   N26   A    
C53   C70   S    
C49   C55   D    
C16   C31   S    
Br23  C39   S    
C11   C29   S    
C59   C66   A    
N24   Ni7   S    
N8    N30   A    
C9    H14   S    
C23   H20   S    
C61   N4    A    
N1    Ni1   S    
C9    C14   S    
C22   C44   S    
N16   Ni4   S    
C20   C36   S    
C12   N12   A    
C34   C70   A    
C15   H59   S    
C33   C38   S    
Br22  C38   S    
C53   H31   S    
C4    C79   A    
C18   C27   S    
C19   C39   S    
C7    C87   A    
N29   Ni1   S    
C8    C35   S    
Br11  C38   S    
C64   C74   A    
C31   C44   S    
C18   H22   S    
C2    C52   S    
C41   N29   A    
C43   N31   A    
C1    H18   S    
C48   H30   S    
C5    C31   S    
C1    N1    A    
C51   C88   S    
C21   H26   S    
C6    C32   S    
C85   N19   A    
C80   N14   A    
C25   C47   S    
C5    C80   A    
N12   Ni2   S    
Br8   C21   S    
C12   C68   A    
N22   Ni7   S    
C62   C72   A    
C3    C49   S    
C11   H23   S    
C25   C27   S    
Br24  C22   S    
C24   C30   S    
C12   H19   S    
C35   C39   S    
Br27  C26   S    
N19   Ni5   S    
Br6   C19   S    
C48   H8    S    
C6    C84   A    
C86   H51   S    
C62   H36   S    
C14   H58   S    
C65   C73   A    
C85   H50   S    
Br14  C49   S    
C2    C45   A    
Br28  C22   S    
C13   H34   S    
C16   H3    S    
N13   N25   A    
C64   N7    A    
Br17  C52   S    
C47   H29   S    
C21   C30   S    
C61   C69   A    
C19   H24   S    
N5    N29   A    
C57   H35   S    
N25   Ni8   S    
Br2   C24   S    
C43   H13   S    
N20   Ni6   S    
C57   C66   S    
C54   H32   S    
C77   H42   S    
C62   N5    A    
C65   H39   S    
N17   N20   A    
C45   N22   A    
C79   N13   A    
C8    C83   A    
C10   C28   S    
C7    C33   S    
C30   C73   S    
N16   N21   A    
C58   C68   A    
C10   H12   S    
C14   C33   S    
C84   N18   A    
C7    C82   A    
C23   N23   A    
N14   N19   A    
C83   N17   A    
C26   C48   S    
C17   H4    S    
C52   C54   D    
C46   H6    S    
C43   C74   A    
N11   Ni3   S    
C41   H10   S    
N10   Ni2   S    
N6    Ni7   S    
Br19  C59   S    
C54   C69   S    
N9    Ni1   S    
N27   Ni4   S    
C42   N30   A    
C16   H45   S    
C58   N32   A    
N15   Ni1   S    
Br1   C36   S    
N6    N28   A    
C50   C57   D    
C60   N3    A    
C51   C53   D    
Br13  C39   S    
Br10  C37   S    
N7    Ni8   S    
C46   H28   S    
N12   N32   A    
N2    Ni5   S    
Br4   C26   S    
C22   C29   S    
C5    C85   A    
C83   H48   S    
N3    N27   A    
N13   Ni4   S    
C32   C37   S    
C79   H43   S    
C82   H47   S    
N5    Ni7   S    
C26   C28   S    
C63   H37   S    
C11   C16   S    
C80   H44   S    
C27   C72   S    
C67   N25   A    
C76   N10   A    
Br12  C37   S    
C24   C46   S    
Br16  C51   S    
N26   Ni8   S    
C10   H15   S    
C77   N11   A    
N4    Ni6   S    
C75   C88   A    
N14   Ni2   S    
N15   N18   A    
C84   H49   S    
C17   H56   S    
N4    N23   A    
C14   H60   S    
Br7   C20   S    
C59   N2    A    
Br3   C25   S    
C67   H55   S    
C81   N15   A    
C55   C68   S    
Br20  C60   S    
N3    Ni6   S    
C32   C46   S    
C3    C78   A    
C78   H57   S    
C20   H25   S    
C86   N20   A    
N23   Ni3   S    
C56   N24   A    
N9    N24   A    
C34   H21   S    
C34   N27   A    
Br25  C24   S    
N28   Ni2   S    
N8    Ni8   S    
C15   H2    S    
C4    C50   S    
C9    C27   S    
C41   C72   A    
N30   Ni4   S    
C75   H40   S    
C10   C15   S    
C4    C67   A    
C9    H1    S    
C56   C88   A    
N1    N2    A    
C11   H16   S    
C63   N6    A    
C2    C76   A    
C6    C81   A    
C13   C17   S    
C35   C48   S    
N10   N22   A    
C55   H33   S    
C64   H38   S    
C82   N16   A    
C28   C71   S    
C63   C71   A    
C87   H52   S    
C45   H53   S    
C40   H9    S    
C60   C70   A    
N21   Ni6   S    
C19   C28   S    
Br5   C18   S    
C40   C71   A    
