data_mof_unit_16504.cif
_audit_creation_date              2013-03-05T16:35:36-0500
_audit_creation_method            fapswitch 2.2
_symmetry_space_group_name_H-M    P1
_symmetry_Int_Tables_number       1
_space_group_crystal_system       triclinic
_cell_length_a                    7.773797
_cell_length_b                    9.091325
_cell_length_c                    17.334624
_cell_angle_alpha                 89.804245
_cell_angle_beta                  87.29998
_cell_angle_gamma                 89.967318
_cell_volume                      1223.74192051

loop_
_atom_site_label
_atom_site_type_symbol
_atom_site_description
_atom_site_fract_x
_atom_site_fract_y
_atom_site_fract_z
_atom_type_partial_charge
O1    O     O_R   0.357240 0.711600 0.500000 -0.581620
O2    O     O_R   0.642760 0.288400 0.500000 -0.552654
O3    O     O_R   0.642760 0.711600 0.500000 -0.580015
O4    O     O_R   0.357240 0.288400 0.500000 -0.567882
C1    C     C_R   0.499971 0.780009 0.499969 0.839857
C2    C     C_R   0.500039 0.219992 0.499675 0.906602
O5    O     O_R   0.340660 0.500000 0.613590 -0.596895
O6    O     O_R   0.659340 0.500000 0.386410 -0.601398
O7    O     O_R   0.626230 0.500000 0.613600 -0.561800
O8    O     O_R   0.373770 0.500000 0.386400 -0.562283
C3    C     C_R   0.480099 0.489925 0.649918 0.865507
C4    C     C_R   0.519515 0.494162 0.349591 0.854317
Cu1   Cu    Cu3+1 0.330920 0.500000 0.500000 1.047933
Cu2   Cu    Cu3+1 0.669080 0.500000 0.500000 1.048464
N1    N     N_1   0.923170 0.500000 0.500010 -0.038652
N2    N     N_1   0.076830 0.500000 0.499990 -0.038322
C5    C     C_R   0.474507 0.463210 0.733275 -0.155048
C6    C     C_R   0.521750 0.491164 0.264766 -0.157660
C7    C     C_R   0.595769 0.369608 0.767502 -0.100101
C8    C     C_R   0.376742 0.441165 0.225425 -0.103374
C9    C     C_R   0.591721 0.354769 0.848120 0.451707
C10   C     C_R   0.371337 0.463512 0.145391 0.475548
C11   C     C_R   0.472612 0.436286 0.894015 -0.043668
C12   C     C_R   0.511363 0.531452 0.104721 -0.021269
C13   C     C_R   0.344023 0.521410 0.859765 -0.028869
C14   C     C_R   0.659171 0.574573 0.143112 -0.043961
C15   C     C_R   0.347529 0.534049 0.779307 -0.206462
C16   C     C_R   0.662205 0.553813 0.223088 -0.211523
C17   C     C_2   0.486091 0.427784 0.977789 -0.115574
C18   C     C_2   0.503805 0.547764 0.020761 -0.208868
C19   C     C_1   0.499959 0.934642 0.499857 -0.149223
C20   C     C_1   0.500030 0.065378 0.499749 -0.111755
H1    H     H_    0.772622 0.590889 0.253617 0.203338
H2    H     H_    0.252559 0.601616 0.752071 0.202984
H3    H     H_    0.514005 0.656317 0.994499 0.144170
H4    H     H_    0.494544 0.319961 0.004363 0.171581
C21   C     C_2   0.202489 0.593099 0.906658 0.372254
H5    H     H_    0.185071 0.571347 0.967999 0.146697
O9    O     O_2   0.101338 0.676511 0.877008 -0.552413
C22   C     C_2   0.811287 0.639908 0.100398 0.415153
H6    H     H_    0.812957 0.653855 0.038213 0.090209
O10   O     O_2   0.937816 0.678708 0.134226 -0.529248
O11   O     O_3   0.223588 0.430741 0.106633 -0.575162
C23   C     C_3   0.204243 0.276792 0.098211 -0.333594
H7    H     H_    0.093326 0.238183 0.135497 0.193489
H8    H     H_    0.320437 0.210811 0.111422 0.145704
H9    H     H_    0.173653 0.253565 0.037571 0.193314
O12   O     O_3   0.712392 0.267554 0.882963 -0.590886
C24   C     C_3   0.649268 0.122041 0.888015 -0.328486
H10   H     H_    0.642254 0.071707 0.829903 0.180173
H11   H     H_    0.520825 0.116159 0.919084 0.151048
H12   H     H_    0.739783 0.055007 0.921100 0.207319
C25   C     C_2   0.725838 0.282821 0.721577 0.398728
H13   H     H_    0.852997 0.265532 0.743314 0.117438
O13   O     O_2   0.689316 0.222362 0.661806 -0.555242
C26   C     C_2   0.228841 0.365442 0.265779 0.416967
H14   H     H_    0.098121 0.392452 0.251386 0.107102
O14   O     O_2   0.252179 0.267531 0.312556 -0.543696

loop_
_geom_bond_atom_site_label_1
_geom_bond_atom_site_label_2
_geom_bond_distance
_ccdc_geom_bond_type
C2    C20   1.405645 S    
O7    Cu2   1.981655 S    
C17   C18   1.333805 D    
C13   C15   1.398045 A    
C14   C16   1.399803 A    
C19   C20   1.188561 T    
C23   H9    1.109617 S    
O6    C4    1.287381 A    
C8    C26   1.485606 S    
C9    O12   1.386625 S    
C13   C21   1.488160 S    
C7    C25   1.485335 S    
C24   H11   1.113150 S    
C22   O10   1.221443 D    
C21   O9    1.221585 D    
C25   H13   1.085511 S    
C26   H14   1.085526 S    
O5    C3    1.282086 A    
O7    C3    1.275758 A    
C17   H4    1.084944 S    
C14   C22   1.488188 S    
C15   H2    1.084257 S    
O2    C2    1.272462 A    
O3    Cu2   1.934459 S    
O8    C4    1.275019 A    
C18   H3    1.086784 S    
O1    C1    1.272267 A    
C11   C17   1.462650 S    
C22   H6    1.084421 S    
C7    C9    1.402408 A    
C21   H5    1.083111 S    
C26   O14   1.221284 D    
C16   H1    1.083896 S    
C12   C18   1.466374 S    
C25   O13   1.219842 D    
O11   C23   1.416516 S    
O2    Cu2   1.934692 S    
C10   C12   1.410288 A    
O1    Cu1   1.934691 S    
C8    C10   1.404058 A    
N1    N2    1.194506 T    
C5    C15   1.398010 A    
O3    C1    1.272079 A    
O5    Cu1   1.974056 S    
C11   C13   1.415111 A    
C6    C16   1.400758 A    
C23   H7    1.109365 S    
C6    C8    1.420403 A    
O4    C2    1.271914 A    
C24   H10   1.111519 S    
Cu1   N2    1.975252 S    
C4    C6    1.470039 S    
O4    Cu1   1.934459 S    
Cu2   N1    1.975251 S    
O12   C24   1.412253 S    
O6    Cu2   1.974056 S    
C5    C7    1.418844 A    
Cu1   Cu2   2.628787 S    
C9    C11   1.404764 A    
O8    Cu1   1.981656 S    
C3    C5    1.463036 S    
C10   O11   1.390614 S    
C24   H12   1.109319 S    
C23   H8    1.116289 S    
C1    C19   1.405810 S    
C12   C14   1.411089 A    
