data_mof_unit_20638.cif
_audit_creation_date              2012-12-10T18:51:30-0500
_audit_creation_method            fapswitch 2.2
_symmetry_space_group_name_H-M    P1
_symmetry_Int_Tables_number       1
_space_group_crystal_system       triclinic
_cell_length_a                    10.805652
_cell_length_b                    9.892326
_cell_length_c                    10.502262
_cell_angle_alpha                 90.478968
_cell_angle_beta                  91.594369
_cell_angle_gamma                 90.727253
_cell_volume                      1122.05098686

loop_
_atom_site_label
_atom_site_type_symbol
_atom_type_description
_atom_site_fract_x
_atom_site_fract_y
_atom_site_fract_z
_atom_type_partial_charge
C1    C     C_R   0.872960 0.502482 0.479675 -0.157321
C2    C     C_R   0.127040 0.497518 0.520324 -0.157321
C3    C     C_R   0.260483 0.499144 0.510387 0.874509
C4    C     C_R   0.739517 0.500856 0.489613 0.874509
C5    C     C_R   0.499444 0.499362 0.257548 0.899410
C6    C     C_R   0.500556 0.500638 0.742452 0.899410
C7    C     C_3   0.398442 0.564315 0.040274 -0.190226
C8    C     C_3   0.601557 0.435685 0.959725 -0.190226
C9    C     C_3   0.501710 0.629945 0.960909 -0.124106
C10   C     C_3   0.498290 0.370055 0.039091 -0.124106
C11   C     C_3   0.398716 0.437438 0.954781 -0.007549
C12   C     C_3   0.601283 0.562562 0.045219 -0.007549
C13   C     C_3   0.500345 0.501878 0.877253 -0.061970
C14   C     C_3   0.499655 0.498122 0.122747 -0.061969
C15   C     C_R   0.574219 0.073538 0.584188 0.329573
C16   C     C_R   0.425781 0.926462 0.415812 0.329574
C17   C     C_R   0.426452 0.070100 0.415213 0.315417
C18   C     C_R   0.573548 0.929900 0.584787 0.315418
C19   C     C_R   0.060343 0.374722 0.503088 -0.063396
C20   C     C_R   0.939657 0.625278 0.496912 -0.063396
C21   C     C_R   0.935468 0.378517 0.471362 -0.054909
C22   C     C_R   0.064532 0.621483 0.528637 -0.054909
H1    H     H_    0.315520 0.615061 0.077221 0.198713
H2    H     H_    0.684480 0.384939 0.922779 0.198713
H3    H     H_    0.504029 0.735501 0.925847 0.206036
H4    H     H_    0.495971 0.264499 0.074153 0.206036
N1    N     N_R   0.500000 0.857200 0.500000 -0.193784
N2    N     N_R   0.500000 0.142800 0.500000 -0.193784
O1    O     O_R   0.316770 0.614620 0.499990 -0.582762
O2    O     O_R   0.683230 0.385380 0.500010 -0.582762
O3    O     O_R   0.683230 0.614620 0.500010 -0.590363
O4    O     O_R   0.316770 0.385380 0.499990 -0.590364
O5    O     O_R   0.499970 0.614650 0.313950 -0.579970
O6    O     O_R   0.500030 0.385350 0.686050 -0.579970
O7    O     O_R   0.500030 0.614650 0.686050 -0.588379
O8    O     O_R   0.499970 0.385350 0.313950 -0.588379
Zn1   Zn    Zn3+2 0.500000 0.653120 0.500000 1.057721
Zn2   Zn    Zn3+2 0.500000 0.346880 0.500000 1.057721
Cl1   Cl    Cl    0.673344 0.162777 0.691801 -0.521090
Cl2   Cl    Cl    0.326656 0.837222 0.308199 -0.521090
Cl3   Cl    Cl    0.332163 0.155039 0.303288 -0.526657
Cl4   Cl    Cl    0.667837 0.844961 0.696711 -0.526657
C23   C     C_1   0.287423 0.369462 0.900836 0.209763
N3    N     N_1   0.199739 0.315972 0.858107 -0.166774
C24   C     C_1   0.712577 0.630538 0.099164 0.209763
N4    N     N_1   0.800261 0.684028 0.141893 -0.166774
C25   C     C_1   0.114960 0.243701 0.528007 0.322338
N5    N     N_1   0.157321 0.139155 0.549095 -0.134945
C26   C     C_1   0.885040 0.756299 0.471993 0.322338
N6    N     N_1   0.842679 0.860844 0.450904 -0.134945
C27   C     C_1   0.875059 0.255878 0.421706 0.283596
N7    N     N_1   0.827117 0.158712 0.381483 -0.152876
C28   C     C_1   0.124941 0.744122 0.578293 0.283596
N8    N     N_1   0.172883 0.841288 0.618517 -0.152876

loop_
_geom_bond_atom_site_label_1
_geom_bond_atom_site_label_2
_ccdc_geom_bond_type
C2    C22   A    
C15   C18   A    
C23   N3    T    
C1    C21   A    
C8    C13   S    
O4    Zn2   S    
C25   N5    T    
N2    Zn2   S    
C8    C12   S    
C1    C4    S    
C10   H4    S    
C16   N1    A    
O8    Zn2   S    
C2    C3    S    
C15   N2    A    
C9    H3    S    
O7    Zn1   S    
C24   N4    T    
C6    C13   S    
C7    C11   S    
C11   C13   S    
C15   Cl1   S    
C5    C14   S    
C20   C26   S    
C16   Cl2   S    
C7    H1    S    
C8    H2    S    
N1    Zn1   S    
O5    Zn1   S    
C22   C28   S    
C17   Cl3   S    
C18   Cl4   S    
O3    Zn1   S    
C3    O4    A    
C9    C12   S    
C19   C25   S    
C11   C23   S    
C4    O3    A    
C10   C11   S    
C20   C22   A    
C27   N7    T    
C5    O8    A    
C7    C9    S    
C21   C27   S    
C6    O7    A    
O2    Zn2   S    
C8    C10   S    
C26   N6    T    
C10   C14   S    
O1    Zn1   S    
C3    O1    A    
C9    C13   S    
C12   C24   S    
C1    C20   A    
C19   C21   A    
C2    C19   A    
O6    Zn2   S    
C17   N2    A    
C7    C14   S    
C4    O2    A    
C18   N1    A    
C6    O6    A    
C28   N8    T    
C12   C14   S    
C16   C17   A    
C5    O5    A    
