data_mof_unit_25788.cif
_audit_creation_date              2012-12-10T18:16:24-0500
_audit_creation_method            fapswitch 2.2
_symmetry_space_group_name_H-M    P1
_symmetry_Int_Tables_number       1
_space_group_crystal_system       triclinic
_cell_length_a                    12.780047
_cell_length_b                    13.166774
_cell_length_c                    26.575716
_cell_angle_alpha                 94.600185
_cell_angle_beta                  102.304629
_cell_angle_gamma                 81.041279
_cell_volume                      4310.79519842

loop_
_atom_site_label
_atom_site_type_symbol
_atom_type_description
_atom_site_fract_x
_atom_site_fract_y
_atom_site_fract_z
_atom_type_partial_charge
C1    C     C_R   0.438599 0.691060 0.492626 0.845057
C2    C     C_R   0.447154 0.672173 0.711117 0.494317
C3    C     C_R   0.472290 0.599193 0.748947 -0.048397
C4    C     C_R   0.439117 0.691002 0.900694 -0.210423
C5    C     C_R   0.528351 0.713651 0.882322 -0.098485
C6    C     C_R   0.601273 0.774111 0.913724 0.364061
C7    C     C_R   0.356620 0.644537 0.867040 -0.153584
C8    C     C_R   0.495583 0.537542 0.648131 -0.370871
C9    C     C_R   0.486011 0.526629 0.350945 -0.157335
C10   C     C_R   0.529507 0.743993 0.041198 0.028614
C11   C     C_R   0.335738 0.727176 0.023007 -0.011603
C12   C     C_R   0.500679 0.504561 0.594561 0.895762
C13   C     C_R   0.433748 0.736022 0.058536 -0.077862
C14   C     C_R   0.629875 0.737757 0.077629 0.575438
C15   C     C_R   0.629414 0.734825 0.130608 -0.275882
C16   C     C_R   0.533701 0.731270 0.147333 -0.082837
C17   C     C_R   0.436111 0.732456 0.111499 -0.074666
C18   C     C_R   0.340230 0.732239 0.129254 -0.104598
C19   C     C_R   0.347719 0.716523 0.181595 0.631137
C20   C     C_R   0.533991 0.717611 0.199116 0.645257
C21   C     C_R   0.565334 0.576029 0.283015 0.476474
C22   C     C_R   0.576549 0.540727 0.332427 -0.348730
C23   C     C_R   0.561407 0.309077 0.507590 0.962623
C24   C     C_R   0.385112 0.537811 0.317516 -0.350311
C25   C     C_R   0.371499 0.577546 0.268259 0.530847
C26   C     C_R   0.460608 0.615751 0.255182 0.092987
C27   C     C_R   0.521636 0.750911 0.987307 0.019486
C28   C     C_R   0.433076 0.714401 0.952823 -0.085714
C29   C     C_R   0.341087 0.697451 0.970994 -0.026201
C30   C     C_R   0.598167 0.792649 0.966690 0.382316
C31   C     C_R   0.266382 0.624476 0.885539 0.398230
C32   C     C_R   0.237478 0.746868 0.041609 0.596378
C33   C     C_R   0.240783 0.746504 0.094510 -0.230759
C34   C     C_R   0.496876 0.503851 0.405314 0.899807
C35   C     C_R   0.262755 0.643818 0.938287 0.375589
C36   C     C_R   0.722280 0.049526 0.494300 0.375578
C37   C     C_R   0.600897 0.199391 0.516046 -0.344625
C38   C     C_R   0.308648 0.840281 0.513880 0.360870
C39   C     C_R   0.310748 0.929512 0.546423 0.441491
C40   C     C_R   0.396104 0.986246 0.550712 -0.266622
C41   C     C_R   0.471345 0.964109 0.517808 0.076213
C42   C     C_R   0.474085 0.869181 0.489491 -0.075317
C43   C     C_R   0.547448 0.029860 0.514100 -0.122764
C44   C     C_R   0.638017 0.990046 0.491203 -0.154323
C45   C     C_R   0.539033 0.678939 0.831995 0.660680
C46   C     C_R   0.639857 0.893825 0.463738 0.579572
C47   C     C_R   0.553081 0.839545 0.459638 -0.251789
C48   C     C_R   0.530019 0.136360 0.527074 0.434202
C49   C     C_R   0.704561 0.154808 0.508978 0.331539
C50   C     C_R   0.400508 0.802395 0.493206 -0.175135
C51   C     C_R   0.111940 0.315110 0.443765 0.355529
C52   C     C_R   0.796156 0.629575 0.562812 -0.150627
C53   C     C_R   0.901648 0.643723 0.584940 0.464639
C54   C     C_R   0.985292 0.580304 0.567374 -0.185102
C55   C     C_R   0.966063 0.513988 0.523201 -0.056493
C56   C     C_R   0.368773 0.616783 0.816002 0.646598
C57   C     C_R   0.858522 0.494149 0.505102 0.054785
C58   C     C_R   0.050223 0.461367 0.498993 -0.138474
C59   C     C_R   0.031812 0.371036 0.467984 -0.190385
C60   C     C_R   0.930507 0.341493 0.457638 -0.253885
C61   C     C_R   0.840996 0.408074 0.469033 0.577916
C62   C     C_R   0.148643 0.498990 0.500762 0.492528
C63   C     C_R   0.206029 0.356550 0.445810 0.502421
C64   C     C_R   0.512996 0.496568 0.737501 0.414473
C65   C     C_R   0.529805 0.466923 0.687383 0.329313
C66   C     C_R   0.459184 0.642227 0.660629 0.219913
H1    H     H_    0.317761 0.514777 0.329989 0.165075
H2    H     H_    0.165429 0.754327 0.107906 0.199195
H3    H     H_    0.404136 0.043538 0.581764 0.204532
H4    H     H_    0.549176 0.771710 0.433735 0.168943
H5    H     H_    0.919670 0.269380 0.436267 0.210724
H6    H     H_    0.729499 0.672229 0.578182 0.166394
H7    H     H_    0.062896 0.575855 0.592134 0.162196
H8    H     H_    0.656673 0.522598 0.355937 0.175475
H9    H     H_    0.704789 0.725899 0.158630 0.192713
N1    N     N_R   0.460204 0.631400 0.800444 -0.308735
N2    N     N_R   0.446981 0.683491 0.211866 -0.338031
N3    N     N_R   0.222180 0.444690 0.474320 -0.210416
N4    N     N_R   0.776980 0.554780 0.525420 -0.143840
O1    O     O_R   0.366730 0.627160 0.487740 -0.538397
O2    O     O_2   0.617063 0.743487 0.235959 -0.504817
O3    O     O_2   0.290885 0.574767 0.782065 -0.525026
O4    O     O_2   0.258784 0.740408 0.202096 -0.541657
O5    O     O_R   0.544830 0.662520 0.504140 -0.645097
O6    O     O_R   0.410970 0.482310 0.563040 -0.647299
O7    O     O_R   0.589070 0.517670 0.579450 -0.621779
O8    O     O_R   0.455170 0.337480 0.495860 -0.521335
O9    O     O_R   0.633270 0.372840 0.512260 -0.514491
O10   O     O_R   0.410930 0.482330 0.420550 -0.597242
O11   O     O_R   0.589030 0.517690 0.436960 -0.559866
O12   O     O_2   0.628341 0.690369 0.814809 -0.509628
Zn1   Zn    Zn3+2 0.381080 0.476390 0.489050 1.016258
Zn2   Zn    Zn3+2 0.618920 0.523610 0.510950 0.965678
O13   O     O_3   0.435156 0.717609 0.625065 -0.764489
H10   H     H_    0.474006 0.695608 0.596811 0.324310
O14   O     O_3   0.544838 0.428730 0.776938 -0.580927
C67   C     C_3   0.473564 0.354551 0.769576 -0.210244
H11   H     H_    0.491794 0.295121 0.739389 0.190215
H12   H     H_    0.387031 0.389503 0.759971 0.180154
H13   H     H_    0.485544 0.314908 0.806082 0.183245
O15   O     O_3   0.184956 0.578947 0.853071 -0.580013
C68   C     C_3   0.097192 0.656443 0.836966 -0.192733
H14   H     H_    0.121435 0.716115 0.816079 0.170216
H15   H     H_    0.062023 0.692901 0.870047 0.163581
H16   H     H_    0.032847 0.620731 0.809839 0.209352
O16   O     O_3   0.137338 0.767500 0.009174 -0.560345
C69   C     C_3   0.125296 0.868066 0.992031 -0.314827
H17   H     H_    0.183425 0.874439 0.967079 0.155216
H18   H     H_    0.134224 0.925976 0.025029 0.160985
H19   H     H_    0.042574 0.886403 0.968478 0.205198
O17   O     O_3   0.282652 0.561284 0.229284 -0.577572
C70   C     C_3   0.185236 0.568760 0.247309 -0.184831
H20   H     H_    0.176834 0.633794 0.276352 0.164757
H21   H     H_    0.178427 0.494648 0.262752 0.129929
H22   H     H_    0.116526 0.583795 0.214156 0.200015
O18   O     O_3   0.190836 0.601305 0.959722 -0.705915
H23   H     H_    0.150516 0.555279 0.934057 0.373935
O19   O     O_3   0.784728 0.214999 0.510840 -0.582217
C71   C     C_3   0.841215 0.223412 0.562370 -0.314257
H24   H     H_    0.879926 0.146649 0.576864 0.143465
H25   H     H_    0.787237 0.262820 0.587950 0.168556
H26   H     H_    0.906583 0.270775 0.564051 0.186029
O20   O     O_3   0.716199 0.861489 0.433655 -0.549099
C72   C     C_3   0.780900 0.770473 0.452879 -0.179202
H27   H     H_    0.847604 0.750687 0.431520 0.201591
H28   H     H_    0.734113 0.704523 0.446675 0.143052
H29   H     H_    0.818531 0.781422 0.494360 0.146695
O21   O     O_3   0.819176 0.003880 0.481747 -0.726714
H30   H     H_    0.868878 0.055453 0.484079 0.355822
O22   O     O_3   0.404314 0.771907 0.723882 -0.574531
C73   C     C_3   0.478261 0.840568 0.722467 -0.141294
H31   H     H_    0.460783 0.874338 0.684099 0.209278
H32   H     H_    0.564738 0.805056 0.732190 0.162734
H33   H     H_    0.466838 0.904846 0.751314 0.162447
O23   O     O_3   0.433955 0.180821 0.541052 -0.599148
C74   C     C_3   0.456856 0.224482 0.591849 -0.275124
H34   H     H_    0.494030 0.294965 0.592985 0.211071
H35   H     H_    0.510594 0.169466 0.619210 0.147805
H36   H     H_    0.379703 0.246443 0.605371 0.181312
O24   O     O_3   0.222076 0.785942 0.504312 -0.710572
H37   H     H_    0.162079 0.825251 0.519043 0.364972
O25   O     O_3   0.243312 0.948485 0.581536 -0.580231
C75   C     C_3   0.164705 0.033863 0.566610 -0.367516
H38   H     H_    0.116230 0.053182 0.596968 0.203540
H39   H     H_    0.108282 0.014251 0.530415 0.159204
H40   H     H_    0.201636 0.103243 0.562581 0.170969
O26   O     O_3   0.285602 0.306640 0.421039 -0.549393
C76   C     C_3   0.254232 0.324200 0.367880 -0.208114
H41   H     H_    0.327284 0.308104 0.350660 0.176725
H42   H     H_    0.217430 0.405341 0.360155 0.110731
H43   H     H_    0.197318 0.270956 0.348176 0.199722
O27   O     O_3   0.094303 0.226488 0.413463 -0.605394
C77   C     C_3   0.129105 0.141757 0.444991 -0.267464
H44   H     H_    0.118475 0.070107 0.420698 0.201781
H45   H     H_    0.078857 0.145158 0.474574 0.141519
H46   H     H_    0.216439 0.137230 0.463518 0.204316
O28   O     O_3   0.156568 0.601293 0.515626 -0.576837
C78   C     C_3   0.220682 0.612297 0.565544 -0.072197
H47   H     H_    0.296064 0.639147 0.563137 0.249711
H48   H     H_    0.237514 0.542153 0.588524 0.097433
H49   H     H_    0.179976 0.676585 0.587234 0.171116
O29   O     O_3   0.671247 0.817358 0.891541 -0.714853
H50   H     H_    0.677614 0.887345 0.907438 0.331847
O30   O     O_3   0.924265 0.709068 0.627903 -0.594416
C79   C     C_3   0.902507 0.811193 0.611977 -0.288709
H51   H     H_    0.814869 0.833757 0.595804 0.144075
H52   H     H_    0.951748 0.822614 0.583508 0.178211
H53   H     H_    0.925115 0.863499 0.646101 0.200939
O31   O     O_3   0.738047 0.385173 0.448706 -0.529865
C80   C     C_3   0.726037 0.327249 0.400953 -0.276307
H54   H     H_    0.751278 0.243851 0.407150 0.196176
H55   H     H_    0.769536 0.354919 0.373789 0.135344
H56   H     H_    0.639153 0.335243 0.382392 0.170173
O32   O     O_3   0.653827 0.562377 0.259747 -0.723555
H57   H     H_    0.718968 0.531190 0.283995 0.333039
O33   O     O_3   0.726201 0.712887 0.059778 -0.587158
C81   C     C_3   0.811996 0.759346 0.090817 -0.218143
H58   H     H_    0.853381 0.710614 0.123486 0.157429
H59   H     H_    0.784948 0.839159 0.104847 0.167954
H60   H     H_    0.872640 0.764481 0.067170 0.205899
O34   O     O_3   0.662060 0.858058 0.997737 -0.758752
H61   H     H_    0.731735 0.852202 0.986328 0.352138
O35   O     O_3   0.577359 0.368275 0.676664 -0.641078
C82   C     C_3   0.690572 0.365855 0.687877 -0.283436
H62   H     H_    0.721221 0.384063 0.729538 0.211888
H63   H     H_    0.716116 0.419166 0.663857 0.174210
H64   H     H_    0.728583 0.286855 0.678669 0.167085

loop_
_geom_bond_atom_site_label_1
_geom_bond_atom_site_label_2
_ccdc_geom_bond_type
C10   C27   A    
C58   C62   A    
C75   H40   S    
C15   H9    S    
C21   C26   A    
C8    C66   A    
C79   H51   S    
C56   N1    A    
C41   C43   A    
C41   C42   A    
C57   N4    A    
C48   O23   S    
O26   C76   S    
C76   H43   S    
O35   C82   S    
C73   H33   S    
O21   H30   S    
C70   H21   S    
C67   H11   S    
O23   C74   S    
C73   H32   S    
O34   H61   S    
O18   H23   S    
C1    O5    A    
O15   C68   S    
C20   N2    A    
C45   N1    A    
C31   O15   S    
C28   C29   A    
C76   H42   S    
N4    Zn2   S    
C74   H36   S    
C65   O35   S    
C5    C6    A    
C9    C22   A    
O16   C69   S    
C75   H38   S    
C82   H62   S    
C68   H16   S    
C18   C19   A    
O31   C80   S    
C19   N2    A    
O19   C71   S    
C14   O33   S    
C24   H1    S    
C4    C28   A    
O32   H57   S    
O28   C78   S    
C6    O29   S    
C16   C17   A    
C81   H59   S    
C69   H17   S    
O33   C81   S    
C77   H45   S    
C52   N4    A    
C1    C50   S    
C78   H49   S    
C8    C12   S    
C66   O13   S    
C30   O34   S    
C59   C60   A    
C79   H52   S    
C32   O16   S    
C21   C22   A    
C27   C30   A    
C78   H48   S    
C69   H18   S    
C36   O21   S    
C7    C56   A    
C4    C7    A    
C19   O4    S    
C63   O26   S    
C70   H20   S    
C67   H12   S    
O6    Zn1   S    
C44   C46   A    
C71   H25   S    
C26   N2    S    
C7    C31   A    
C40   H3    S    
C68   H14   S    
O20   C72   S    
C51   C63   A    
C24   C25   A    
C64   O14   S    
C74   H35   S    
C10   C14   A    
C39   C40   A    
O9    Zn2   S    
C74   H34   S    
C60   H5    S    
N3    Zn1   S    
C58   C59   A    
C53   C54   A    
C5    C45   A    
C60   C61   A    
C77   H46   S    
C78   H47   S    
O1    Zn1   S    
C43   C44   A    
C34   O11   A    
C47   H4    S    
C52   H6    S    
O7    Zn2   S    
C54   H7    S    
C37   C49   A    
C49   O19   S    
C39   O25   S    
C16   C20   A    
C81   H60   S    
O14   C67   S    
C17   C18   A    
C62   O28   S    
C35   O18   S    
C53   O30   S    
O24   H37   S    
O10   Zn1   S    
C68   H15   S    
C3    N1    S    
C56   O3    S    
C42   C50   A    
C72   H29   S    
C12   O6    A    
C40   C41   A    
C6    C30   A    
C11   C32   A    
C81   H58   S    
C79   H53   S    
C23   O9    A    
C55   C57   A    
C9    C34   S    
C69   H19   S    
C31   C35   A    
C46   O20   S    
C36   C44   A    
C61   O31   S    
C22   H8    S    
C73   H31   S    
C67   H13   S    
C52   C53   A    
O11   Zn2   S    
C72   H28   S    
O29   H50   S    
C43   C48   A    
C71   H26   S    
C54   C55   A    
C75   H39   S    
C46   C47   A    
O30   C79   S    
O17   C70   S    
C14   C15   A    
C62   N3    A    
C4    C5    A    
C2    C66   A    
C10   C13   A    
C51   O27   S    
C71   H24   S    
C9    C24   A    
C57   C61   A    
C38   C50   A    
C13   C17   A    
C29   C35   A    
C82   H64   S    
C12   O7    A    
C64   C65   A    
C2    C3    A    
C25   C26   A    
C34   O10   A    
C23   C37   S    
C32   C33   A    
C37   C48   A    
C11   C13   A    
C38   C39   A    
C80   H55   S    
C80   H56   S    
C2    O22   S    
C82   H63   S    
O22   C73   S    
O5    Zn2   S    
C3    C64   A    
O13   H10   S    
C45   O12   S    
C18   C33   A    
C25   O17   S    
C8    C65   A    
C42   C47   A    
C51   C59   A    
O27   C77   S    
C11   C29   A    
C21   O32   S    
C80   H54   S    
C55   C58   A    
C27   C28   A    
C1    O1    A    
C38   O24   S    
O25   C75   S    
C23   O8    A    
C77   H44   S    
O8    Zn1   S    
C76   H41   S    
C63   N3    A    
C70   H22   S    
C36   C49   A    
C15   C16   A    
C33   H2    S    
C72   H27   S    
C20   O2    S    
