data_mof_unit_19247.cif
_audit_creation_date              2012-12-10T18:04:03-0500
_audit_creation_method            fapswitch 2.2
_symmetry_space_group_name_H-M    P1
_symmetry_Int_Tables_number       1
_space_group_crystal_system       triclinic
_cell_length_a                    10.852174
_cell_length_b                    9.523031
_cell_length_c                    10.824659
_cell_angle_alpha                 89.95492
_cell_angle_beta                  90.603301
_cell_angle_gamma                 89.567764
_cell_volume                      1118.5864994

loop_
_atom_site_label
_atom_site_type_symbol
_atom_type_description
_atom_site_fract_x
_atom_site_fract_y
_atom_site_fract_z
_atom_type_partial_charge
C1    C     C_R   0.262102 0.500788 0.496375 0.800504
C2    C     C_R   0.737545 0.499694 0.496123 0.790293
C3    C     C_R   0.442655 0.074942 0.407501 -0.012824
C4    C     C_R   0.559034 0.073800 0.591539 -0.012324
C5    C     C_R   0.443912 0.926313 0.406909 0.011998
C6    C     C_R   0.559035 0.925060 0.591515 -0.030797
C7    C     C_R   0.501019 0.500029 0.262312 0.835102
C8    C     C_R   0.501431 0.500082 0.737678 0.800390
C9    C     C_R   0.477606 0.621935 0.063250 0.082451
C10   C     C_R   0.479651 0.623163 0.935740 0.120272
C11   C     C_R   0.509225 0.500816 0.129218 -0.092593
C12   C     C_R   0.510139 0.501384 0.870866 -0.129067
C13   C     C_R   0.553136 0.382743 0.065067 -0.218771
C14   C     C_R   0.553275 0.382877 0.936130 -0.207467
C15   C     C_3   0.364886 0.711084 0.926009 -0.122046
C16   C     C_3   0.361547 0.708327 0.066770 -0.048951
C17   C     C_R   0.064794 0.390341 0.542375 -0.191230
C18   C     C_R   0.937459 0.389477 0.542254 -0.187070
C19   C     C_R   0.871053 0.500121 0.488037 -0.074830
C20   C     C_R   0.127925 0.502835 0.489896 -0.081076
C21   C     C_R   0.932903 0.610848 0.428725 -0.072729
C22   C     C_R   0.061823 0.613956 0.431982 -0.061643
Cu1   Cu    Cu3+1 0.500000 0.640660 0.500000 0.966696
Cu2   Cu    Cu3+1 0.500000 0.359340 0.500000 0.948890
H1    H     H_    0.583413 0.289240 0.114065 0.168534
H2    H     H_    0.583334 0.289297 0.887870 0.160680
H3    H     H_    0.286788 0.658345 0.877625 0.141391
H4    H     H_    0.374381 0.811836 0.112403 0.177802
H5    H     H_    0.114107 0.304411 0.586782 0.158258
H6    H     H_    0.890735 0.303449 0.587077 0.152785
H7    H     H_    0.396306 0.131102 0.333388 0.129409
H8    H     H_    0.606660 0.129153 0.664769 0.117740
H9    H     H_    0.400989 0.871038 0.331259 0.144030
H10   H     H_    0.606678 0.868762 0.664738 0.134221
N1    N     N_R   0.500000 0.852070 0.500000 -0.166746
N2    N     N_R   0.500000 0.147940 0.500000 -0.163709
O1    O     O_R   0.319640 0.618740 0.499990 -0.575467
O2    O     O_R   0.680360 0.618740 0.500010 -0.573747
O3    O     O_R   0.319620 0.381170 0.499990 -0.581047
O4    O     O_R   0.680380 0.381170 0.500010 -0.583592
O5    O     O_R   0.499990 0.618810 0.319660 -0.575187
O6    O     O_R   0.500010 0.618810 0.680340 -0.590041
O7    O     O_R   0.499960 0.381240 0.319650 -0.596844
O8    O     O_R   0.500040 0.381240 0.680350 -0.590531
N3    N     N_3   0.390687 0.851112 0.878401 -0.586246
H11   H     H_    0.314054 0.914655 0.896758 0.221628
H12   H     H_    0.395278 0.843757 0.782307 0.244623
N4    N     N_3   0.256575 0.630156 0.114936 -0.591267
H13   H     H_    0.176631 0.687641 0.093855 0.234394
H14   H     H_    0.248656 0.533391 0.069805 0.220547
C23   C     C_1   0.865213 0.718865 0.360638 0.259475
N5    N     N_1   0.811450 0.804799 0.306364 -0.273858
C24   C     C_1   0.123367 0.731202 0.374314 0.285890
N6    N     N_1   0.169887 0.826317 0.328109 -0.316300

loop_
_geom_bond_atom_site_label_1
_geom_bond_atom_site_label_2
_ccdc_geom_bond_type
C16   H4    S    
C3    H7    S    
Cu1   Cu2   S    
C4    N2    A    
C18   H6    S    
C7    O7    A    
Cu1   O2    S    
C17   H5    S    
C9    C10   A    
C2    O2    A    
C15   H3    S    
Cu1   O5    S    
C1    O1    A    
C8    C12   S    
C6    H10   S    
C16   N4    S    
N4    H14   S    
C17   C18   A    
C20   C22   A    
C4    H8    S    
C24   N6    T    
C14   H2    S    
C7    C11   S    
C17   C20   A    
C11   C13   A    
C13   H1    S    
Cu2   N2    S    
Cu1   O6    S    
C10   C12   A    
C3    N2    A    
C9    C11   A    
C21   C22   A    
N4    H13   S    
C19   C21   A    
C9    C16   S    
C12   C14   A    
C22   C24   S    
Cu1   N1    S    
C10   C15   S    
C7    O5    A    
C8    O8    A    
Cu2   O8    S    
N3    H11   S    
C1    O3    A    
C15   C16   S    
C2    O4    A    
C21   C23   S    
Cu2   O3    S    
C6    N1    A    
C4    C6    A    
C18   C19   A    
N3    H12   S    
Cu2   O7    S    
C15   N3    S    
C1    C20   S    
Cu1   O1    S    
Cu2   O4    S    
C2    C19   S    
C13   C14   A    
C5    N1    A    
C23   N5    T    
C8    O6    A    
C3    C5    A    
C5    H9    S    
