data_mof_unit_5053.cif
_audit_creation_date              2012-12-10T20:55:44-0500
_audit_creation_method            fapswitch 2.2
_symmetry_space_group_name_H-M    P1
_symmetry_Int_Tables_number       1
_space_group_crystal_system       triclinic
_cell_length_a                    15.795245
_cell_length_b                    15.047418
_cell_length_c                    10.821263
_cell_angle_alpha                 89.938775
_cell_angle_beta                  90.421709
_cell_angle_gamma                 91.747875
_cell_volume                      2570.70517287

loop_
_atom_site_label
_atom_site_type_symbol
_atom_type_description
_atom_site_fract_x
_atom_site_fract_y
_atom_site_fract_z
_atom_type_partial_charge
C1    C     C_1   0.250606 0.494420 0.512831 -0.129108
C2    C     C_1   0.749779 0.502180 0.511579 -0.130294
C3    C     C_R   0.501019 0.500101 0.872780 -0.157475
C4    C     C_R   0.501136 0.500499 0.126393 -0.158230
C5    C     C_R   0.498352 0.905125 0.504105 -0.256560
C6    C     C_R   0.497668 0.094981 0.502162 -0.273066
C7    C     C_R   0.434289 0.950333 0.440371 0.302678
C8    C     C_R   0.559728 0.049912 0.569986 0.317961
C9    C     C_R   0.561258 0.955258 0.569043 0.328616
C10   C     C_R   0.435050 0.044818 0.437133 0.311290
C11   C     C_R   0.960122 0.557257 0.601696 0.365358
C12   C     C_R   0.040203 0.416079 0.482681 0.356461
C13   C     C_R   0.048223 0.553298 0.604918 0.354026
C14   C     C_R   0.951996 0.418394 0.482978 0.358339
C15   C     C_R   0.338717 0.498585 0.500253 0.977846
C16   C     C_R   0.661349 0.501064 0.500229 0.981388
C17   C     C_R   0.500202 0.500128 0.259146 0.987720
C18   C     C_R   0.500270 0.499993 0.740540 0.999958
C19   C     C_R   0.912914 0.491296 0.537305 -0.262806
C20   C     C_R   0.087423 0.485165 0.540489 -0.253545
C21   C     C_1   0.499459 0.807149 0.502024 0.208450
C22   C     C_1   0.498664 0.192876 0.500293 0.203678
C23   C     C_1   0.824325 0.498728 0.523829 0.102222
C24   C     C_1   0.176190 0.489574 0.526194 0.120525
C25   C     C_R   0.461853 0.663566 0.104025 0.040347
C26   C     C_R   0.441637 0.341322 0.892457 0.047014
C27   C     C_R   0.562057 0.658454 0.891653 0.037288
C28   C     C_R   0.542935 0.338373 0.105999 0.043293
C29   C     C_R   0.490642 0.742787 0.047830 -0.246421
C30   C     C_R   0.460456 0.260257 0.948449 -0.251562
C31   C     C_R   0.545113 0.740035 0.947241 -0.235465
C32   C     C_R   0.515713 0.258709 0.049333 -0.261013
C33   C     C_R   0.521210 0.579741 0.938688 0.044717
C34   C     C_R   0.511062 0.419796 0.060174 0.046496
C35   C     C_R   0.492171 0.581341 0.059296 0.050039
C36   C     C_R   0.481664 0.420658 0.939219 0.045703
H1    H     H_    0.537561 0.195447 0.082524 0.119120
H2    H     H_    0.572795 0.801551 0.911520 0.159062
H3    H     H_    0.433835 0.198220 0.912614 0.118736
H4    H     H_    0.471267 0.806639 0.082057 0.146712
N1    N     N_1   0.500000 0.270550 0.500000 -0.121264
N2    N     N_1   0.500000 0.729450 0.500000 -0.122578
O1    O     O_R   0.378020 0.573650 0.500040 -0.610001
O2    O     O_R   0.621980 0.426350 0.499960 -0.607220
O3    O     O_R   0.621980 0.573650 0.499960 -0.622597
O4    O     O_R   0.378020 0.426350 0.500040 -0.616189
O5    O     O_R   0.499990 0.573670 0.316780 -0.625895
O6    O     O_R   0.500010 0.426330 0.683220 -0.632200
O7    O     O_R   0.500010 0.573670 0.683220 -0.627108
O8    O     O_R   0.499990 0.426330 0.316780 -0.628013
Zn1   Zn    Zn3+2 0.500000 0.598370 0.500000 0.993722
Zn2   Zn    Zn3+2 0.500000 0.401630 0.500000 0.991392
O9    O     O_3   0.094939 0.611102 0.680264 -0.540578
C37   C     C_3   0.124201 0.685378 0.611093 0.141372
H5    H     H_    0.072350 0.716079 0.557661 0.121919
H6    H     H_    0.174481 0.666548 0.545710 0.140953
C38   C     C_3   0.161735 0.754688 0.699725 -0.801011
H7    H     H_    0.218134 0.728124 0.747379 0.264517
H8    H     H_    0.181000 0.815778 0.648510 0.183470
H9    H     H_    0.114097 0.772203 0.769894 0.264721
O10   O     O_3   0.904867 0.353955 0.419267 -0.542418
C39   C     C_3   0.869727 0.292331 0.504926 0.128865
H10   H     H_    0.831923 0.325364 0.577105 0.141775
H11   H     H_    0.920383 0.254644 0.551267 0.111896
C40   C     C_3   0.810954 0.226684 0.437001 -0.773002
H12   H     H_    0.846620 0.190886 0.365420 0.250262
H13   H     H_    0.783567 0.177513 0.503365 0.223439
H14   H     H_    0.758556 0.262572 0.392105 0.267151
O11   O     O_3   0.921171 0.624054 0.665949 -0.540141
C41   C     C_3   0.893302 0.689721 0.582511 0.140965
H15   H     H_    0.825274 0.677126 0.560081 0.160507
H16   H     H_    0.929358 0.692752 0.494084 0.094285
C42   C     C_3   0.902076 0.780152 0.643933 -0.839477
H17   H     H_    0.968676 0.794284 0.672498 0.259424
H18   H     H_    0.882774 0.832046 0.577481 0.195162
H19   H     H_    0.861317 0.781614 0.726935 0.267483
O12   O     O_3   0.079694 0.352002 0.413766 -0.548440
C43   C     C_3   0.112978 0.286867 0.493400 0.091772
H20   H     H_    0.062692 0.236467 0.515954 0.137277
H21   H     H_    0.139412 0.314726 0.581560 0.138008
C44   C     C_3   0.184003 0.240372 0.427686 -0.747479
H22   H     H_    0.235874 0.289132 0.405338 0.261217
H23   H     H_    0.209679 0.187780 0.488158 0.214158
H24   H     H_    0.159658 0.209357 0.340858 0.257279
O13   O     O_3   0.370733 0.088154 0.376938 -0.599689
C45   C     C_3   0.390984 0.095428 0.250588 0.137359
H25   H     H_    0.393352 0.028643 0.206758 0.168771
H26   H     H_    0.452937 0.131391 0.238221 0.116862
C46   C     C_3   0.323019 0.147586 0.184984 -0.805904
H27   H     H_    0.322871 0.216634 0.221138 0.264346
H28   H     H_    0.335643 0.149776 0.084313 0.204383
H29   H     H_    0.259851 0.115063 0.199887 0.254876
O14   O     O_3   0.618631 0.910893 0.642234 -0.620000
C47   C     C_3   0.702085 0.923056 0.597213 0.159483
H30   H     H_    0.709939 0.974961 0.524025 0.144197
H31   H     H_    0.722020 0.859274 0.556689 0.132536
C48   C     C_3   0.761097 0.947087 0.704806 -0.828532
H32   H     H_    0.759881 0.892690 0.774205 0.242421
H33   H     H_    0.826690 0.958603 0.671199 0.204519
H34   H     H_    0.740997 0.008706 0.750283 0.276909
O15   O     O_3   0.623738 0.098648 0.628796 -0.603752
C49   C     C_3   0.597431 0.120893 0.748853 0.113825
H35   H     H_    0.596862 0.060925 0.809161 0.159760
H36   H     H_    0.533280 0.149704 0.748832 0.124761
C50   C     C_3   0.659757 0.190142 0.802115 -0.809688
H37   H     H_    0.655581 0.253304 0.749459 0.265688
H38   H     H_    0.645084 0.202821 0.900373 0.217499
H39   H     H_    0.725464 0.166367 0.796574 0.245452
O16   O     O_3   0.373640 0.902079 0.373761 -0.611442
C51   C     C_3   0.299887 0.892393 0.445934 0.132606
H40   H     H_    0.274168 0.958285 0.469689 0.172603
H41   H     H_    0.313211 0.855100 0.532579 0.129967
C52   C     C_3   0.232392 0.840539 0.372482 -0.843938
H42   H     H_    0.252407 0.771314 0.357526 0.257771
H43   H     H_    0.171745 0.838676 0.423682 0.197375
H44   H     H_    0.222052 0.872976 0.281592 0.267224
C53   C     C_2   0.389704 0.669307 0.190213 0.436081
H45   H     H_    0.377081 0.731947 0.235011 0.087114
O17   O     O_2   0.341983 0.605309 0.208372 -0.582689
C54   C     C_2   0.371048 0.341295 0.801409 0.441569
H46   H     H_    0.351798 0.280231 0.754253 0.034697
O18   O     O_2   0.331553 0.408454 0.781906 -0.582765
C55   C     C_2   0.631825 0.657203 0.800744 0.441358
H47   H     H_    0.651695 0.717957 0.753503 0.072697
O19   O     O_2   0.670086 0.589339 0.781584 -0.582783
C56   C     C_2   0.614974 0.334316 0.194277 0.455127
H48   H     H_    0.629140 0.271942 0.239304 0.027114
O20   O     O_2   0.661023 0.399510 0.213970 -0.572644

loop_
_geom_bond_atom_site_label_1
_geom_bond_atom_site_label_2
_ccdc_geom_bond_type
C7    C10   A    
C10   O13   S    
O15   C49   S    
C42   H17   S    
C44   H24   S    
C48   H32   S    
C55   H47   S    
O12   C43   S    
C27   C33   A    
C50   H38   S    
C11   C19   A    
O14   C47   S    
C3    C18   S    
C26   C54   S    
O11   C41   S    
C53   O17   D    
C49   H36   S    
C43   H21   S    
C38   H8    S    
C22   N1    T    
C3    C33   A    
C6    C22   S    
O4    Zn2   S    
C49   C50   S    
C51   H40   S    
C39   H11   S    
C44   H23   S    
C20   C24   S    
C54   O18   D    
C8    C9    A    
C40   H13   S    
O8    Zn2   S    
C41   H15   S    
C1    C15   S    
C46   H28   S    
C2    C16   S    
C8    O15   S    
C16   O2    A    
N1    Zn2   S    
C13   O9    S    
C13   C20   A    
N2    Zn1   S    
C52   H44   S    
O2    Zn2   S    
C4    C35   A    
C28   C34   A    
C42   H18   S    
C47   H30   S    
C48   H33   S    
C28   C56   S    
C44   H22   S    
C4    C34   A    
C25   C29   A    
C50   H39   S    
C37   H6    S    
C45   H26   S    
C27   C31   A    
C49   H35   S    
C28   C32   A    
C5    C7    A    
C27   C55   S    
C45   H25   S    
C38   H9    S    
C6    C8    A    
C47   C48   S    
O7    Zn1   S    
O13   C45   S    
C14   O10   S    
C7    O16   S    
C18   O6    A    
C16   O3    A    
C19   C23   S    
C5    C9    A    
C39   H10   S    
C40   H14   S    
C12   O12   S    
C12   C20   A    
C41   C42   S    
C32   H1    S    
C46   H29   S    
C47   H31   S    
C51   C52   S    
C25   C35   A    
C4    C17   S    
C26   C36   A    
C12   C14   A    
C26   C30   A    
C42   H19   S    
C9    O14   S    
C48   H34   S    
C54   H46   S    
C52   H42   S    
C37   H5    S    
C56   O20   D    
C39   C40   S    
C43   H20   S    
C14   C19   A    
C17   O5    A    
C45   C46   S    
C25   C53   S    
C17   O8    A    
C6    C10   A    
O5    Zn1   S    
C11   O11   S    
O9    C37   S    
C50   H37   S    
C31   H2    S    
C15   O1    A    
C29   C31   A    
C53   H45   S    
C30   C32   A    
C11   C13   A    
C43   C44   S    
O1    Zn1   S    
C38   H7    S    
C3    C36   A    
C56   H48   S    
C29   H4    S    
C33   C35   A    
C30   H3    S    
C34   C36   A    
O10   C39   S    
C51   H41   S    
C55   O19   D    
C21   N2    T    
O6    Zn2   S    
C5    C21   S    
C1    C24   T    
C40   H12   S    
C2    C23   T    
O3    Zn1   S    
C41   H16   S    
C15   O4    A    
C46   H27   S    
O16   C51   S    
C18   O7    A    
C52   H43   S    
C37   C38   S    
