data_mof_unit_38103.cif
_audit_creation_date              2012-12-10T20:43:23-0500
_audit_creation_method            fapswitch 2.2
_symmetry_space_group_name_H-M    P1
_symmetry_Int_Tables_number       1
_space_group_crystal_system       triclinic
_cell_length_a                    15.811755
_cell_length_b                    10.684859
_cell_length_c                    9.921604
_cell_angle_alpha                 89.569984
_cell_angle_beta                  88.937284
_cell_angle_gamma                 90.111807
_cell_volume                      1675.87982111

loop_
_atom_site_label
_atom_site_type_symbol
_atom_type_description
_atom_site_fract_x
_atom_site_fract_y
_atom_site_fract_z
_atom_type_partial_charge
C1    C     C_R   0.501519 0.260289 0.500619 0.900212
C2    C     C_R   0.543774 0.936600 0.389848 -0.220671
C3    C     C_R   0.510302 0.871448 0.501660 -0.121576
C4    C     C_R   0.339526 0.499745 0.500919 0.910379
C5    C     C_R   0.490441 0.934576 0.620039 0.109643
C6    C     C_3   0.413596 0.923869 0.710473 -0.094872
C7    C     C_3   0.411951 0.066867 0.710473 -0.004224
C8    C     C_R   0.426556 0.489251 0.073037 0.123485
C9    C     C_R   0.572830 0.519626 0.067943 0.228254
C10   C     C_R   0.572437 0.517708 0.924731 -0.199964
C11   C     C_R   0.425508 0.494822 0.931178 0.160345
C12   C     C_R   0.043096 0.504664 0.619807 -0.236055
C13   C     C_3   0.357409 0.396241 0.925710 -0.116632
C14   C     C_3   0.362610 0.385810 0.079472 -0.039410
C15   C     C_R   0.501422 0.739710 0.499740 0.867622
C16   C     C_R   0.660481 0.500377 0.498954 0.902541
C17   C     C_R   0.955371 0.507739 0.622539 0.235829
C18   C     C_R   0.912883 0.503618 0.499586 0.039176
C19   C     C_R   0.956702 0.495623 0.376591 -0.217574
C20   C     C_R   0.045166 0.492319 0.372987 0.175148
C21   C     C_R   0.087127 0.497526 0.496998 0.046830
C22   C     C_3   0.676048 0.666976 0.142465 -0.761577
C23   C     C_1   0.823817 0.502927 0.497446 -0.072571
C24   C     C_3   0.269418 0.440167 0.878671 -0.385067
C25   C     C_3   0.249651 0.578473 0.903290 -0.869006
C26   C     C_3   0.476113 0.218393 0.082429 -0.751985
C27   C     C_3   0.909622 0.403913 0.828457 -0.810217
C28   C     C_3   0.096141 0.483537 0.241241 -0.386704
C29   C     C_3   0.044328 0.474738 0.112948 -0.912268
C30   C     C_3   0.428872 0.863062 0.849966 -0.364023
C31   C     C_3   0.516575 0.885970 0.908436 -0.851186
C32   C     C_3   0.261164 0.117639 0.722177 -0.828529
C33   C     C_1   0.176217 0.497790 0.500700 -0.078907
C34   C     C_1   0.251104 0.498708 0.502177 -0.208257
C35   C     C_1   0.748907 0.501751 0.496957 -0.185858
C36   C     C_R   0.489342 0.062316 0.620349 0.011178
C37   C     C_R   0.510791 0.128597 0.503345 -0.098839
C38   C     C_R   0.545336 0.066067 0.391707 -0.213418
H1    H     H_    0.077069 0.509110 0.713620 0.158994
H2    H     H_    0.699039 0.483106 0.091927 0.200465
H3    H     H_    0.688229 0.707922 0.040583 0.212765
H4    H     H_    0.734724 0.673676 0.201808 0.234381
H5    H     H_    0.625779 0.721048 0.194738 0.249964
H6    H     H_    0.255877 0.601787 0.011491 0.248540
H7    H     H_    0.292612 0.638729 0.841410 0.258893
H8    H     H_    0.183814 0.598653 0.873129 0.244467
H9    H     H_    0.263494 0.420852 0.769876 0.243084
H10   H     H_    0.220158 0.381904 0.930226 0.191470
H11   H     H_    0.347294 0.196504 0.125114 0.215113
H12   H     H_    0.424334 0.110848 0.808944 0.158930
H13   H     H_    0.480775 0.117030 0.106431 0.220186
H14   H     H_    0.527162 0.266717 0.136176 0.261163
H15   H     H_    0.487270 0.230930 0.972852 0.208935
H16   H     H_    0.853125 0.560838 0.745094 0.231371
H17   H     H_    0.878450 0.422281 0.927557 0.236265
H18   H     H_    0.974881 0.370273 0.846672 0.249103
H19   H     H_    0.873416 0.330173 0.775948 0.244970
H20   H     H_    0.003354 0.390184 0.116478 0.259744
H21   H     H_    0.005285 0.560088 0.099617 0.269655
H22   H     H_    0.087541 0.466903 0.024170 0.258062
H23   H     H_    0.631120 0.530225 0.868563 0.165339
H24   H     H_    0.137931 0.567042 0.231688 0.209544
H25   H     H_    0.137284 0.399414 0.246001 0.205148
H26   H     H_    0.566001 0.838987 0.846109 0.268973
H27   H     H_    0.530883 0.987429 0.913344 0.245648
H28   H     H_    0.518632 0.846108 0.012030 0.239392
H29   H     H_    0.379850 0.897322 0.922358 0.199567
H30   H     H_    0.419998 0.760485 0.841187 0.223539
H31   H     H_    0.330974 0.089788 0.545166 0.233143
H32   H     H_    0.213139 0.175973 0.671144 0.245444
H33   H     H_    0.271448 0.156514 0.824028 0.238729
H34   H     H_    0.378427 0.312158 0.870005 0.165946
H35   H     H_    0.236706 0.020441 0.732454 0.240876
H36   H     H_    0.304273 0.414388 0.135527 0.141640
H37   H     H_    0.920759 0.491828 0.284939 0.166272
H38   H     H_    0.569859 0.116548 0.304580 0.162655
H39   H     H_    0.565198 0.888742 0.300035 0.154644
H40   H     H_    0.359127 0.880748 0.658329 0.131027
N1    N     N_R   0.499440 0.499140 0.142800 -0.117367
N2    N     N_R   0.499440 0.499180 0.857150 -0.129451
N3    N     N_2   0.651065 0.537319 0.132219 -0.257802
N4    N     N_2   0.393655 0.264499 0.126239 -0.268014
N5    N     N_2   0.911332 0.517742 0.748701 -0.305643
N6    N     N_2   0.338913 0.118954 0.643112 -0.297285
O1    O     O_R   0.500010 0.316790 0.614690 -0.617146
O2    O     O_R   0.500000 0.316760 0.385350 -0.607028
O3    O     O_R   0.378030 0.499990 0.614640 -0.611969
O4    O     O_R   0.378020 0.499950 0.385300 -0.613990
O5    O     O_R   0.500000 0.683240 0.614650 -0.614041
O6    O     O_R   0.499990 0.683210 0.385310 -0.624086
O7    O     O_R   0.621980 0.500050 0.614700 -0.628685
O8    O     O_R   0.621970 0.500010 0.385360 -0.581316
Zn1   Zn    Zn3+2 0.500010 0.500020 0.653130 0.937711
Zn2   Zn    Zn3+2 0.499990 0.499980 0.346870 0.960814

loop_
_geom_bond_atom_site_label_1
_geom_bond_atom_site_label_2
_ccdc_geom_bond_type
C31   H28   S    
C7    C36   S    
C19   C20   A    
C4    O3    A    
C38   H38   S    
C14   H36   S    
C36   C37   A    
C16   C35   S    
C30   C31   S    
C27   H17   S    
C6    H40   S    
C22   H3    S    
C21   C33   S    
C5    C36   A    
C18   C19   A    
C9    N1    A    
O2    Zn2   S    
O1    Zn1   S    
C29   H21   S    
C12   C17   A    
C22   H4    S    
C8    N1    A    
C9    C10   A    
C30   H29   S    
C1    C37   S    
C7    N6    S    
C26   N4    S    
C13   C14   S    
H2    N3    S    
C25   H6    S    
H16   N5    S    
O6    Zn2   S    
C32   H33   S    
O4    Zn2   S    
C1    O1    A    
C32   N6    S    
C4    C34   S    
C18   C23   S    
C24   H10   S    
C22   N3    S    
C24   C25   S    
N1    Zn2   S    
C27   H19   S    
C32   H35   S    
C10   N2    A    
C27   H18   S    
C32   H32   S    
C20   C28   S    
O7    Zn1   S    
C13   C24   S    
C17   N5    S    
H11   N4    S    
C37   C38   A    
C26   H14   S    
C15   O5    A    
C2    C38   A    
C22   H5    S    
C29   H22   S    
O8    Zn2   S    
C17   C18   A    
C29   H20   S    
C6    C30   S    
C16   O8    A    
C23   C35   T    
C10   H23   S    
C14   N4    S    
C26   H15   S    
C25   H7    S    
C3    C15   S    
C1    O2    A    
C31   H27   S    
C28   C29   S    
C8    C14   S    
C24   H9    S    
C31   H26   S    
C7    H12   S    
C3    C5    A    
C6    C7    S    
C4    O4    A    
C13   H34   S    
C12   H1    S    
C27   N5    S    
C2    C3    A    
H31   N6    S    
C26   H13   S    
C15   O6    A    
C11   C13   S    
C5    C6    S    
C8    C11   A    
O3    Zn1   S    
C19   H37   S    
C33   C34   T    
O5    Zn1   S    
C11   N2    A    
C12   C21   A    
C28   H25   S    
C20   C21   A    
C16   O7    A    
C2    H39   S    
N2    Zn1   S    
C25   H8    S    
C30   H30   S    
C9    N3    S    
C28   H24   S    
