data_mof_unit_48166.cif
_audit_creation_date              2012-12-10T17:22:11-0500
_audit_creation_method            fapswitch 2.2
_symmetry_space_group_name_H-M    P1
_symmetry_Int_Tables_number       1
_space_group_crystal_system       triclinic
_cell_length_a                    10.270074
_cell_length_b                    10.513031
_cell_length_c                    15.746052
_cell_angle_alpha                 90.802127
_cell_angle_beta                  81.438065
_cell_angle_gamma                 94.937105
_cell_volume                      1674.90968016

loop_
_atom_site_label
_atom_site_type_symbol
_atom_type_description
_atom_site_fract_x
_atom_site_fract_y
_atom_site_fract_z
_atom_type_partial_charge
C1    C     C_R   0.554871 0.734149 0.490201 0.868801
C2    C     C_2   0.503463 0.933763 0.431628 -0.061477
C3    C     C_2   0.417853 0.130111 0.489040 -0.300400
C4    C     C_R   0.500166 0.500285 0.661253 0.917486
C5    C     C_2   0.507007 0.071645 0.434988 -0.125588
C6    C     C_2   0.923410 0.491366 0.518804 0.034955
C7    C     C_2   0.068436 0.471344 0.505729 -0.046401
C8    C     C_R   0.445135 0.265803 0.502385 0.905182
C9    C     C_R   0.499318 0.497101 0.338817 0.936159
C10   C     C_3   0.409410 0.608420 0.963152 -0.105844
C11   C     C_3   0.645967 0.526760 0.936290 -0.257389
C12   C     C_3   0.414195 0.599099 0.062198 -0.459972
C13   C     C_3   0.646888 0.522594 0.035456 -0.172741
C14   C     C_1   0.499046 0.494393 0.250226 -0.092897
C15   C     C_3   0.499367 0.502882 0.917036 -0.009570
C16   C     C_2   0.264167 0.589330 0.948974 0.911339
C17   C     C_2   0.493312 0.244061 0.084573 0.509499
C18   C     C_2   0.409570 0.869255 0.378300 0.990830
C19   C     C_2   0.695041 0.934602 0.515561 0.511324
C20   C     C_2   0.107667 0.349518 0.466221 0.496664
C21   C     C_2   0.871652 0.547221 0.602179 0.498411
C22   C     C_2   0.134534 0.682080 0.549576 0.605736
C23   C     C_3   0.502426 0.494125 0.083043 0.180671
C24   C     C_2   0.455232 0.743095 0.928405 0.912335
C25   C     C_2   0.892910 0.422554 0.378250 1.056968
C26   C     C_2   0.727821 0.639309 0.889682 0.481412
C27   C     C_2   0.722021 0.636139 0.072365 0.508146
C28   C     C_2   0.504446 0.255027 0.904068 0.890156
C29   C     C_3   0.440262 0.362950 0.052880 -0.287142
C30   C     C_3   0.441841 0.366441 0.953374 -0.241817
C31   C     C_1   0.500238 0.493266 0.174968 -0.025762
C32   C     C_1   0.500015 0.502443 0.825037 -0.009571
C33   C     C_1   0.500530 0.501356 0.749820 -0.055673
C34   C     C_2   0.584444 0.870859 0.474654 -0.273307
H1    H     H_    0.446687 0.691074 0.090788 0.269413
H2    H     H_    0.443644 0.151268 0.073494 0.095066
H3    H     H_    0.379001 0.738722 0.287089 0.350832
H4    H     H_    0.739640 0.881398 0.560602 0.125537
H5    H     H_    0.193605 0.348390 0.417336 0.110949
H6    H     H_    0.889889 0.504665 0.661221 0.042793
H7    H     H_    0.184463 0.735332 0.596554 0.060699
H8    H     H_    0.526453 0.924250 0.949291 0.364941
H9    H     H_    0.026586 0.468353 0.273327 0.338450
H10   H     H_    0.686071 0.701030 0.848460 0.109971
H11   H     H_    0.806193 0.620522 0.104056 0.079083
H12   H     H_    0.313326 0.575932 0.098404 0.188054
H13   H     H_    0.660472 0.149291 0.876792 0.360833
H14   H     H_    0.591430 0.124917 0.397757 0.235744
H15   H     H_    0.330630 0.078140 0.523957 0.194945
H16   H     H_    0.699761 0.445519 0.908410 0.211518
H17   H     H_    0.703004 0.440343 0.047105 0.181532
H18   H     H_    0.336552 0.352758 0.944026 0.186983
H19   H     H_    0.334483 0.354633 0.082973 0.121842
H20   H     H_    0.078385 0.640217 0.983879 0.379695
N1    N     N_2   0.842720 0.448890 0.465540 -0.175569
N2    N     N_2   0.157250 0.551040 0.534500 -0.222867
O1    O     O_R   0.431050 0.692470 0.506940 -0.629141
O2    O     O_R   0.170448 0.658214 0.999554 -0.774134
O3    O     O_2   0.588988 0.249364 0.122539 -0.530893
O4    O     O_2   0.299819 0.906846 0.379686 -0.562767
O5    O     O_R   0.449770 0.771190 0.322509 -0.802811
O6    O     O_2   0.739758 0.044174 0.498628 -0.498975
O7    O     O_2   0.040729 0.249639 0.485683 -0.532533
O8    O     O_2   0.818234 0.646791 0.605425 -0.546019
O9    O     O_2   0.068782 0.738210 0.505933 -0.507088
O10   O     O_2   0.448296 0.767625 0.853485 -0.621792
O11   O     O_R   0.500882 0.840347 0.980896 -0.737823
O12   O     O_R   0.651130 0.659650 0.484820 -0.559450
O13   O     O_2   0.835519 0.338670 0.339854 -0.574461
O14   O     O_R   0.002430 0.496145 0.335174 -0.820553
O15   O     O_2   0.845766 0.657330 0.893898 -0.544106
O16   O     O_2   0.689844 0.744552 0.067770 -0.488971
O17   O     O_2   0.440753 0.189288 0.857389 -0.589948
O18   O     O_R   0.632142 0.225710 0.912666 -0.791721
O19   O     O_R   0.389910 0.516410 0.633920 -0.596765
O20   O     O_R   0.609990 0.483590 0.611800 -0.610278
O21   O     O_R   0.348870 0.340350 0.515180 -0.635265
O22   O     O_R   0.568950 0.307530 0.493060 -0.573761
O23   O     O_R   0.390010 0.516410 0.388200 -0.626691
O24   O     O_R   0.610090 0.483590 0.366080 -0.595062
O25   O     O_2   0.229982 0.521555 0.891060 -0.593856
Zn1   Zn    Zn3+2 0.353060 0.521920 0.514770 0.980382
Zn2   Zn    Zn3+2 0.646940 0.478080 0.485230 1.063520

loop_
_geom_bond_atom_site_label_1
_geom_bond_atom_site_label_2
_ccdc_geom_bond_type
C2    C18   S    
C17   C29   S    
C6    N1    D    
C28   O18   S    
C3    H15   S    
C26   H10   S    
C15   C32   S    
C12   C23   S    
C23   C29   S    
C10   C15   S    
C22   H7    S    
C19   O6    D    
C1    O12   A    
C13   C23   S    
C9    O23   A    
C21   O8    D    
C24   O11   S    
C13   H17   S    
C11   C15   S    
O22   Zn2   S    
C4    O19   A    
C17   H2    S    
C14   C31   T    
C24   O10   D    
C27   H11   S    
C8    O22   A    
C26   O15   D    
C7    N2    D    
O24   Zn2   S    
C28   O17   D    
O20   Zn2   S    
C1    C34   S    
C5    H14   S    
C12   H12   S    
C3    C8    S    
C20   H5    S    
C22   N2    S    
C11   C26   S    
C10   C24   S    
C6    C21   S    
C9    O24   A    
C23   C31   S    
C9    C14   S    
C22   O9    D    
C29   C30   S    
C19   H4    S    
C1    O1    A    
C18   O5    S    
C16   O2    S    
C12   H1    S    
C10   C12   S    
C17   O3    D    
C18   O4    D    
H9    O14   S    
C8    O21   A    
C2    C5    S    
C25   O13   D    
N1    Zn2   S    
C15   C30   S    
H20   O2    S    
C30   H18   S    
C4    C33   S    
O12   Zn2   S    
C25   N1    S    
H13   O18   S    
C3    C5    D    
C19   C34   S    
O23   Zn1   S    
H3    O5    S    
O19   Zn1   S    
N2    Zn1   S    
C6    C7    S    
C32   C33   T    
C20   O7    D    
C28   C30   S    
C11   H16   S    
C10   C16   S    
C11   C13   S    
C2    C34   D    
H8    O11   S    
C21   H6    S    
C29   H19   S    
O21   Zn1   S    
C16   O25   D    
C4    O20   A    
C7    C20   S    
O1    Zn1   S    
C13   C27   S    
C25   O14   S    
C27   O16   D    
