data_mof_unit_58947.cif
_audit_creation_date              2012-12-10T20:41:45-0500
_audit_creation_method            fapswitch 2.2
_symmetry_space_group_name_H-M    P1
_symmetry_Int_Tables_number       1
_space_group_crystal_system       triclinic
_cell_length_a                    14.97477
_cell_length_b                    15.24036
_cell_length_c                    9.903694
_cell_angle_alpha                 90.213761
_cell_angle_beta                  90.6287
_cell_angle_gamma                 89.924096
_cell_volume                      2260.07615527

loop_
_atom_site_label
_atom_site_type_symbol
_atom_type_description
_atom_site_fract_x
_atom_site_fract_y
_atom_site_fract_z
_atom_type_partial_charge
C1    C     C_R   0.379251 0.881089 0.499637 0.869878
C2    C     C_R   0.381303 0.121074 0.499962 0.871451
C3    C     C_R   0.879244 0.381097 0.499636 0.869885
C4    C     C_R   0.881305 0.621076 0.499961 0.871515
C5    C     C_3   0.222700 0.151377 0.705129 -0.481905
C6    C     C_3   0.364933 0.715992 0.692494 -0.544830
C7    C     C_3   0.722723 0.651395 0.705129 -0.483370
C8    C     C_3   0.864828 0.216127 0.692709 -0.544347
C9    C     C_R   0.422417 0.012049 0.069638 0.109556
C10   C     C_R   0.922424 0.512098 0.069639 0.109459
C11   C     C_R   0.577388 0.995618 0.075176 0.684773
C12   C     C_R   0.077386 0.495551 0.075168 0.684868
C13   C     C_R   0.578358 0.994794 0.930922 -0.176446
C14   C     C_R   0.078351 0.494716 0.930916 -0.176554
C15   C     C_R   0.422379 0.012253 0.927469 0.197213
C16   C     C_R   0.922386 0.512303 0.927469 0.197292
C17   C     C_3   0.341748 0.955052 0.920454 -0.469176
C18   C     C_3   0.841721 0.455147 0.920457 -0.469284
C19   C     C_3   0.341826 0.954964 0.073654 -0.485075
C20   C     C_3   0.841799 0.455058 0.073655 -0.485198
C21   C     C_R   0.619240 0.120414 0.500500 0.933103
C22   C     C_R   0.621157 0.881362 0.500389 0.909416
C23   C     C_R   0.119239 0.620413 0.500500 0.933232
C24   C     C_R   0.121151 0.381357 0.500388 0.909493
C25   C     C_R   0.276471 0.212127 0.620151 0.154634
C26   C     C_R   0.297532 0.768658 0.615321 0.107581
C27   C     C_R   0.776494 0.712145 0.620147 0.155079
C28   C     C_R   0.797455 0.268743 0.615372 0.107490
C29   C     C_R   0.322605 0.193870 0.502138 -0.126227
C30   C     C_R   0.308337 0.820155 0.501256 -0.077324
C31   C     C_R   0.822615 0.693879 0.502132 -0.126399
C32   C     C_R   0.808316 0.320180 0.501254 -0.077268
C33   C     C_R   0.314111 0.248864 0.389753 -0.225039
C34   C     C_R   0.247123 0.815162 0.393681 -0.219974
C35   C     C_R   0.814110 0.748864 0.389736 -0.225206
C36   C     C_R   0.747147 0.315138 0.393614 -0.219956
C37   C     C_R   0.749413 0.813770 0.390177 -0.108715
C38   C     C_R   0.682578 0.250131 0.394341 -0.191185
C39   C     C_R   0.249411 0.313766 0.390191 -0.108316
C40   C     C_R   0.182545 0.750163 0.394410 -0.191292
C41   C     C_R   0.694200 0.822455 0.502898 -0.156543
C42   C     C_R   0.680661 0.190756 0.502198 -0.038036
C43   C     C_R   0.194182 0.322436 0.502895 -0.156096
C44   C     C_R   0.180674 0.690740 0.502198 -0.038094
C45   C     C_R   0.712483 0.776071 0.620726 0.133993
C46   C     C_R   0.735549 0.203369 0.614789 0.097575
C47   C     C_R   0.212448 0.276040 0.620718 0.132298
C48   C     C_R   0.235627 0.703281 0.614725 0.097786
C49   C     C_3   0.650618 0.721817 0.704141 -0.255948
C50   C     C_3   0.796271 0.142663 0.693014 -0.220677
C51   C     C_3   0.150577 0.221794 0.704118 -0.256023
C52   C     C_3   0.296384 0.642519 0.692768 -0.220701
H1    H     H_    0.353884 0.239038 0.300211 0.186584
H2    H     H_    0.250961 0.859075 0.308295 0.160674
H3    H     H_    0.853872 0.739029 0.300186 0.186589
H4    H     H_    0.751017 0.359019 0.308180 0.160631
H5    H     H_    0.283418 0.989566 0.117318 0.208942
H6    H     H_    0.356231 0.889296 0.117340 0.214925
H7    H     H_    0.783411 0.489692 0.117321 0.208802
H8    H     H_    0.856166 0.389380 0.117337 0.214982
H9    H     H_    0.739718 0.853630 0.300857 0.238890
H10   H     H_    0.636808 0.244317 0.309285 0.167102
H11   H     H_    0.239726 0.353635 0.300878 0.238918
H12   H     H_    0.136729 0.744395 0.309410 0.167085
H13   H     H_    0.589246 0.702105 0.647643 0.113063
H14   H     H_    0.770792 0.129331 0.795736 0.152691
H15   H     H_    0.089220 0.202064 0.647594 0.113140
H16   H     H_    0.270971 0.629099 0.795500 0.152521
H17   H     H_    0.255227 0.139672 0.804839 0.233566
H18   H     H_    0.425769 0.702451 0.632361 0.189802
H19   H     H_    0.755239 0.639715 0.804855 0.233243
H20   H     H_    0.925696 0.202537 0.632655 0.189814
H21   H     H_    0.202678 0.090678 0.649980 0.174597
H22   H     H_    0.378386 0.743381 0.794743 0.190977
H23   H     H_    0.702691 0.590695 0.649992 0.174785
H24   H     H_    0.878240 0.243585 0.794942 0.190921
H25   H     H_    0.283020 0.989177 0.875651 0.198066
H26   H     H_    0.356017 0.889570 0.876242 0.211113
H27   H     H_    0.783014 0.489306 0.875659 0.197987
H28   H     H_    0.855945 0.389658 0.876243 0.211110
N1    N     N_R   0.499140 0.000000 0.142800 -0.184598
N2    N     N_R   0.999140 0.500000 0.142800 -0.184543
N3    N     N_R   0.499160 1.000000 0.857150 -0.183923
N4    N     N_R   0.999160 0.500000 0.857150 -0.183918
O1    O     O_R   0.408400 0.908380 0.614690 -0.623467
O2    O     O_R   0.408400 0.091620 0.614690 -0.609567
O3    O     O_R   0.908400 0.408380 0.614690 -0.623537
O4    O     O_R   0.908400 0.591620 0.614690 -0.609486
O5    O     O_R   0.408370 0.908370 0.385350 -0.625148
O6    O     O_R   0.408370 0.091630 0.385350 -0.627349
O7    O     O_R   0.908370 0.408370 0.385350 -0.625114
O8    O     O_R   0.908370 0.591630 0.385350 -0.627415
O9    O     O_R   0.591610 0.091610 0.614650 -0.666768
O10   O     O_R   0.591610 0.908390 0.614650 -0.665584
O11   O     O_R   0.091610 0.591610 0.614650 -0.666663
O12   O     O_R   0.091610 0.408390 0.614650 -0.665904
O13   O     O_R   0.591590 0.091600 0.385310 -0.569980
O14   O     O_R   0.591590 0.908400 0.385310 -0.559451
O15   O     O_R   0.091590 0.591600 0.385310 -0.569999
O16   O     O_R   0.091590 0.408400 0.385310 -0.559305
Zn1   Zn    Zn3+2 0.500010 1.000000 0.653130 0.927901
Zn2   Zn    Zn3+2 0.000010 0.500000 0.653130 0.927780
Zn3   Zn    Zn3+2 0.499980 0.000000 0.346870 1.010899
Zn4   Zn    Zn3+2 0.999980 0.500000 0.346870 1.010965
C53   C     C_2   0.631514 0.762443 0.839717 0.501050
H29   H     H_    0.564023 0.783660 0.862017 0.037818
O17   O     O_2   0.690774 0.773970 0.923685 -0.528809
C54   C     C_2   0.829315 0.061350 0.621181 0.423579
H30   H     H_    0.877666 0.019597 0.672083 0.089559
O18   O     O_2   0.803487 0.041502 0.507810 -0.558901
C55   C     C_2   0.131409 0.262548 0.839588 0.502129
H31   H     H_    0.064221 0.285004 0.860961 0.038357
O19   O     O_2   0.190318 0.272908 0.924428 -0.529345
C56   C     C_2   0.329392 0.561265 0.620756 0.423576
H32   H     H_    0.377890 0.519567 0.671413 0.089299
O20   O     O_2   0.303364 0.541396 0.507515 -0.559008
F1    F     F_    0.654418 0.991211 0.148242 -0.597136
F2    F     F_    0.154420 0.491102 0.148218 -0.597243
C57   C     C_2   0.665591 0.986842 0.862766 0.467553
H33   H     H_    0.672216 0.000080 0.757496 0.116262
O21   O     O_2   0.733143 0.965536 0.924615 -0.505462
C58   C     C_2   0.165568 0.486647 0.862751 0.466302
H34   H     H_    0.172246 0.500124 0.757552 0.116384
O22   O     O_2   0.233033 0.464950 0.924507 -0.505671

loop_
_geom_bond_atom_site_label_1
_geom_bond_atom_site_label_2
_ccdc_geom_bond_type
C23   O15   A    
C22   O14   A    
O12   Zn2   S    
N4    Zn2   S    
C55   H31   S    
C14   N4    A    
O7    Zn4   S    
C56   H32   S    
C11   N1    A    
C53   O17   D    
C28   C46   A    
C33   C39   A    
C49   H13   S    
C2    C29   S    
C14   C58   S    
C32   C36   A    
C35   C37   A    
C38   C42   A    
C24   O12   A    
C7    H19   S    
C22   C41   S    
O14   Zn3   S    
C29   C33   A    
O16   Zn4   S    
C7    C27   S    
C54   H30   S    
C3    O7    A    
C42   C46   A    
C2    O6    A    
C17   H26   S    
C5    H17   S    
C9    C19   S    
C47   C51   S    
O10   Zn1   S    
C10   C20   S    
C18   H27   S    
C51   C55   S    
C20   H8    S    
C25   C47   A    
C40   C44   A    
C18   C20   S    
C52   H16   S    
O11   Zn2   S    
C26   C48   A    
C27   C45   A    
O15   Zn4   S    
O5    Zn3   S    
C25   C29   A    
C22   O10   A    
C13   C57   S    
C6    H22   S    
C57   O21   D    
C19   H6    S    
C33   H1    S    
C8    H20   S    
C30   C34   A    
C3    O3    A    
C28   C32   A    
C7    C49   S    
O9    Zn1   S    
C7    H23   S    
C35   H3    S    
C10   N2    A    
C16   N4    A    
C19   H5    S    
C23   C44   S    
N2    Zn4   S    
C38   H10   S    
C36   H4    S    
O3    Zn2   S    
C21   O13   A    
C56   O20   D    
C45   C49   S    
C17   H25   S    
C12   N2    A    
C55   O19   D    
C51   H15   S    
C20   H7    S    
C50   H14   S    
O13   Zn3   S    
C5    C25   S    
C18   H28   S    
C12   F2    S    
C12   C14   A    
C34   H2    S    
C27   C31   A    
C8    C28   S    
C34   C40   A    
C1    O1    A    
C58   O22   D    
C11   F1    S    
C8    C50   S    
O1    Zn1   S    
C37   H9    S    
N1    Zn3   S    
C6    H18   S    
C46   C50   S    
C1    O5    A    
N3    Zn1   S    
C24   O16   A    
C50   C54   S    
C5    H21   S    
C49   C53   S    
O4    Zn2   S    
C57   H33   S    
C54   O18   D    
C26   C30   A    
C4    O4    A    
C52   C56   S    
C39   H11   S    
C53   H29   S    
C13   N3    A    
C40   H12   S    
C36   C38   A    
C9    C15   A    
C10   C16   A    
C11   C13   A    
C6    C26   S    
C21   O9    A    
C15   N3    A    
C1    C30   S    
C17   C19   S    
C23   O11   A    
C2    O2    A    
C31   C35   A    
C37   C41   A    
C3    C32   S    
O6    Zn3   S    
C4    C31   S    
O8    Zn4   S    
C21   C42   S    
C48   C52   S    
C39   C43   A    
C16   C18   S    
C8    H24   S    
C24   C43   S    
C41   C45   A    
C5    C51   S    
C6    C52   S    
C58   H34   S    
C15   C17   S    
O2    Zn1   S    
C43   C47   A    
C44   C48   A    
C9    N1    A    
C4    O8    A    
