data_mof_unit_39130.cif
_audit_creation_date              2012-12-10T18:28:09-0500
_audit_creation_method            fapswitch 2.2
_symmetry_space_group_name_H-M    P1
_symmetry_Int_Tables_number       1
_space_group_crystal_system       triclinic
_cell_length_a                    23.448353
_cell_length_b                    20.157055
_cell_length_c                    14.757917
_cell_angle_alpha                 89.956866
_cell_angle_beta                  100.668046
_cell_angle_gamma                 90.185031
_cell_volume                      6854.72961946

loop_
_atom_site_label
_atom_site_type_symbol
_atom_type_description
_atom_site_fract_x
_atom_site_fract_y
_atom_site_fract_z
_atom_type_partial_charge
C1    C     C_R   0.574379 0.089135 0.553659 0.852554
C2    C     C_R   0.424549 0.911716 0.445662 0.870432
C3    C     C_R   0.425796 0.089184 0.446302 0.851994
C4    C     C_R   0.575545 0.912087 0.554646 0.868890
C5    C     C_R   0.074380 0.589135 0.553659 0.852610
C6    C     C_R   0.924556 0.411708 0.445668 0.870405
C7    C     C_R   0.925795 0.589184 0.446300 0.851971
C8    C     C_R   0.075543 0.412084 0.554644 0.868848
C9    C     C_R   0.192558 0.167982 0.597843 -0.297902
C10   C     C_R   0.753927 0.781152 0.323565 -0.310823
C11   C     C_R   0.809091 0.165032 0.403305 -0.294178
C12   C     C_R   0.251154 0.775598 0.681477 -0.323693
C13   C     C_R   0.692585 0.668006 0.597872 -0.297914
C14   C     C_R   0.253929 0.281151 0.323578 -0.311011
C15   C     C_R   0.309066 0.665058 0.403269 -0.294155
C16   C     C_R   0.751145 0.275608 0.681462 -0.323683
C17   C     C_R   0.628717 0.980248 0.208758 -0.250949
C18   C     C_R   0.372606 0.972842 0.791186 -0.268717
C19   C     C_R   0.128731 0.480464 0.208711 -0.251302
C20   C     C_R   0.872626 0.472751 0.791188 -0.268634
C21   C     C_R   0.607159 0.996397 0.287289 -0.061104
C22   C     C_R   0.393189 0.991827 0.712784 -0.039147
C23   C     C_R   0.107162 0.496542 0.287258 -0.061094
C24   C     C_R   0.893195 0.491774 0.712787 -0.039123
C25   C     C_R   0.509911 0.988139 0.206080 0.618604
C26   C     C_R   0.490569 0.991216 0.794072 0.626643
C27   C     C_R   0.009919 0.488073 0.206092 0.618596
C28   C     C_R   0.990575 0.491246 0.794074 0.626655
C29   C     C_R   0.529230 0.966953 0.125117 -0.174861
C30   C     C_R   0.472639 0.966816 0.874700 -0.156495
C31   C     C_R   0.029256 0.466952 0.125113 -0.174891
C32   C     C_R   0.972661 0.466807 0.874697 -0.156429
C33   C     C_R   0.590081 0.965127 0.126792 0.047376
C34   C     C_R   0.412045 0.959030 0.872905 0.003921
C35   C     C_R   0.090109 0.465245 0.126769 0.047580
C36   C     C_R   0.912075 0.458955 0.872902 0.003871
C37   C     C_R   0.490689 0.952727 0.041278 0.028783
C38   C     C_R   0.512111 0.954689 0.958263 0.047080
C39   C     C_R   0.990725 0.452690 0.041273 0.028792
C40   C     C_R   0.012143 0.454701 0.958256 0.047099
C41   C     C_R   0.571922 0.944779 0.962426 -0.258485
C42   C     C_R   0.431877 0.936450 0.036854 -0.208313
C43   C     C_R   0.071959 0.444858 0.962411 -0.258607
C44   C     C_R   0.931929 0.436337 0.036843 -0.208366
C45   C     C_R   0.610962 0.949021 0.045992 0.218740
C46   C     C_R   0.392571 0.938419 0.953501 0.210713
C47   C     C_R   0.111002 0.449157 0.045967 0.218817
C48   C     C_R   0.892619 0.438291 0.953489 0.210713
C49   C     C_R   0.613876 0.855001 0.582125 -0.140611
C50   C     C_R   0.383194 0.140892 0.412727 -0.120301
C51   C     C_R   0.386985 0.853366 0.419768 -0.144275
C52   C     C_R   0.617878 0.140131 0.587452 -0.115214
C53   C     C_R   0.113865 0.354988 0.582114 -0.140666
C54   C     C_R   0.883193 0.640891 0.412718 -0.120408
C55   C     C_R   0.887012 0.353341 0.419792 -0.144235
C56   C     C_R   0.117882 0.640128 0.587455 -0.115175
C57   C     C_R   0.636520 0.750482 0.661602 -0.249753
C58   C     C_R   0.343849 0.229297 0.308730 -0.254509
C59   C     C_R   0.363503 0.749418 0.338707 -0.248664
C60   C     C_R   0.658468 0.227950 0.691725 -0.256901
C61   C     C_R   0.136492 0.250458 0.661573 -0.249734
C62   C     C_R   0.843836 0.729276 0.308689 -0.254458
C63   C     C_R   0.863562 0.249372 0.338768 -0.248670
C64   C     C_R   0.158473 0.727946 0.691730 -0.256911
C65   C     C_R   0.608738 0.812227 0.655700 0.220057
C66   C     C_R   0.388746 0.184805 0.340111 0.218579
C67   C     C_R   0.390479 0.811878 0.344229 0.223074
C68   C     C_R   0.612297 0.185211 0.658525 0.222241
C69   C     C_R   0.108718 0.312208 0.655678 0.220047
C70   C     C_R   0.888729 0.684779 0.340066 0.218547
C71   C     C_R   0.890537 0.311832 0.344286 0.223043
C72   C     C_R   0.112298 0.685215 0.658518 0.222285
C73   C     C_R   0.651841 0.838514 0.523258 -0.238453
C74   C     C_R   0.335290 0.145933 0.456187 -0.255239
C75   C     C_R   0.351550 0.834511 0.481825 -0.230880
C76   C     C_R   0.666801 0.143038 0.546023 -0.261674
C77   C     C_R   0.151830 0.338500 0.523249 -0.238218
C78   C     C_R   0.835302 0.645953 0.456201 -0.255163
C79   C     C_R   0.851569 0.334491 0.481841 -0.230930
C80   C     C_R   0.166810 0.643028 0.546037 -0.261723
C81   C     C_R   0.675227 0.774974 0.522379 0.093459
C82   C     C_R   0.290095 0.190180 0.425546 0.089862
C83   C     C_R   0.328601 0.770559 0.482084 0.099614
C84   C     C_R   0.712930 0.186247 0.577502 0.090365
C85   C     C_R   0.175208 0.274955 0.522361 0.093563
C86   C     C_R   0.790104 0.690194 0.425551 0.089857
C87   C     C_R   0.828620 0.270539 0.482103 0.099588
C88   C     C_R   0.212939 0.686239 0.577514 0.090375
C89   C     C_R   0.668040 0.730925 0.594084 0.050284
C90   C     C_R   0.295630 0.233105 0.351817 0.062472
C91   C     C_R   0.333976 0.728040 0.408013 0.046612
C92   C     C_R   0.707811 0.229466 0.651056 0.069830
C93   C     C_R   0.168015 0.230903 0.594058 0.050223
C94   C     C_R   0.795628 0.733104 0.351802 0.062346
C95   C     C_R   0.834009 0.228010 0.408052 0.046640
C96   C     C_R   0.207820 0.729457 0.651070 0.069863
C97   C     C_R   0.708615 0.755769 0.455700 -0.115329
C98   C     C_R   0.242570 0.197391 0.472198 -0.123712
C99   C     C_R   0.296295 0.750020 0.549698 -0.107300
C100  C     C_R   0.760942 0.192617 0.531560 -0.127017
C101  C     C_R   0.208599 0.255752 0.455685 -0.115225
C102  C     C_R   0.742586 0.697410 0.472213 -0.123655
C103  C     C_R   0.796298 0.250012 0.549701 -0.107337
C104  C     C_R   0.260945 0.692618 0.531563 -0.127034
C105  C     C_R   0.228153 0.149862 0.536269 0.528684
C106  C     C_R   0.709988 0.792276 0.373237 0.529660
C107  C     C_R   0.774079 0.145980 0.465547 0.528936
C108  C     C_R   0.296663 0.784749 0.633863 0.529742
C109  C     C_R   0.728174 0.649883 0.536291 0.528668
C110  C     C_R   0.209974 0.292260 0.373228 0.529664
C111  C     C_R   0.274076 0.645991 0.465534 0.528921
C112  C     C_R   0.796656 0.284750 0.633854 0.529741
H1    H     H_    0.184319 0.132418 0.649100 0.164956
H2    H     H_    0.756154 0.811784 0.263938 0.163362
H3    H     H_    0.816083 0.130436 0.350234 0.166789
H4    H     H_    0.249075 0.806373 0.741036 0.155145
H5    H     H_    0.684350 0.632444 0.649135 0.164955
H6    H     H_    0.256171 0.311795 0.263970 0.163262
H7    H     H_    0.316050 0.630469 0.350183 0.166792
H8    H     H_    0.749074 0.306377 0.741030 0.155191
H9    H     H_    0.588993 0.932624 0.901380 0.201661
H10   H     H_    0.415850 0.921027 0.097648 0.210321
H11   H     H_    0.089030 0.432714 0.901361 0.201604
H12   H     H_    0.915915 0.420868 0.097628 0.210306
H13   H     H_    0.335555 0.117097 0.517551 0.227282
H14   H     H_    0.662925 0.876848 0.478665 0.223134
H15   H     H_    0.666625 0.113264 0.485641 0.227486
H16   H     H_    0.341443 0.871482 0.529023 0.220329
H17   H     H_    0.835577 0.617138 0.517587 0.227278
H18   H     H_    0.162926 0.376839 0.478673 0.223126
H19   H     H_    0.166636 0.613249 0.485660 0.227454
H20   H     H_    0.841456 0.371463 0.529033 0.220297
H21   H     H_    0.632668 0.717460 0.718208 0.137745
H22   H     H_    0.347935 0.263209 0.253170 0.133107
H23   H     H_    0.365978 0.717500 0.280461 0.139545
H24   H     H_    0.654597 0.262418 0.746648 0.132159
H25   H     H_    0.132632 0.217433 0.718171 0.137743
H26   H     H_    0.847914 0.763171 0.253108 0.133104
H27   H     H_    0.866056 0.217442 0.280543 0.139532
H28   H     H_    0.154600 0.762416 0.746649 0.132151
H29   H     H_    0.363264 0.997755 0.648082 0.181662
H30   H     H_    0.636710 0.004052 0.352002 0.189027
H31   H     H_    0.863265 0.497681 0.648086 0.181657
H32   H     H_    0.136712 0.504275 0.351952 0.188982
H33   H     H_    0.675285 0.978759 0.212994 0.203177
H34   H     H_    0.326198 0.968274 0.786432 0.176991
H35   H     H_    0.175300 0.479119 0.212915 0.203032
H36   H     H_    0.826221 0.468136 0.786436 0.177010
N1    N     N_R   0.549130 0.000000 0.284090 -0.140903
N2    N     N_R   0.450870 0.000000 0.715910 -0.142513
N3    N     N_R   0.049130 0.500000 0.284090 -0.140839
N4    N     N_R   0.950870 0.500000 0.715910 -0.142527
O1    O     O_R   0.541320 0.066090 0.608930 -0.542235
O2    O     O_R   0.458680 0.933910 0.391070 -0.543059
O3    O     O_R   0.458680 0.066090 0.391070 -0.547618
O4    O     O_R   0.541320 0.933910 0.608930 -0.549068
O5    O     O_R   0.041320 0.566090 0.608930 -0.542184
O6    O     O_R   0.958680 0.433910 0.391070 -0.542941
O7    O     O_R   0.958680 0.566090 0.391070 -0.547728
O8    O     O_R   0.041320 0.433910 0.608930 -0.549130
O9    O     O_R   0.572880 0.066110 0.470280 -0.634889
O10   O     O_R   0.427120 0.933890 0.529720 -0.621143
O11   O     O_R   0.427120 0.066110 0.529720 -0.632956
O12   O     O_R   0.572880 0.933890 0.470280 -0.618766
O13   O     O_R   0.072880 0.566110 0.470280 -0.634918
O14   O     O_R   0.927120 0.433890 0.529720 -0.621181
O15   O     O_R   0.927120 0.566110 0.529720 -0.632908
O16   O     O_R   0.072880 0.433890 0.470280 -0.618660
Zn1   Zn    Zn3+2 0.478910 0.000000 0.592580 0.993484
Zn2   Zn    Zn3+2 0.521090 0.000000 0.407420 0.990917
Zn3   Zn    Zn3+2 0.978910 0.500000 0.592580 0.993493
Zn4   Zn    Zn3+2 0.021090 0.500000 0.407420 0.990954
N5    N     N_2   0.439555 0.186874 0.300206 -0.307478
H37   H     H_    0.432324 0.205396 0.233853 0.202049
C113  C     C_3   0.489598 0.217699 0.356707 -0.765631
H38   H     H_    0.526127 0.218836 0.318378 0.231299
H39   H     H_    0.503955 0.188817 0.420509 0.237327
H40   H     H_    0.479381 0.269379 0.374356 0.230744
N6    N     N_2   0.579188 0.832353 0.726697 -0.279831
H41   H     H_    0.603697 0.825547 0.791668 0.212810
C114  C     C_3   0.521695 0.804718 0.719620 -0.755192
H42   H     H_    0.523606 0.749716 0.724510 0.214060
H43   H     H_    0.493730 0.819502 0.653501 0.269681
H44   H     H_    0.502533 0.823974 0.777493 0.221641
N7    N     N_2   0.560317 0.190205 0.694977 -0.307042
H45   H     H_    0.566442 0.210692 0.760152 0.202089
C115  C     C_3   0.511862 0.220457 0.634266 -0.769903
H46   H     H_    0.523697 0.271033 0.613873 0.231704
H47   H     H_    0.474413 0.224283 0.670311 0.231752
H48   H     H_    0.497984 0.189630 0.572154 0.235261
N8    N     N_2   0.417346 0.834016 0.270968 -0.270031
H49   H     H_    0.391296 0.827315 0.207173 0.219287
C116  C     C_3   0.474848 0.808003 0.273351 -0.779745
H50   H     H_    0.473456 0.753081 0.266568 0.217133
H51   H     H_    0.503888 0.822093 0.338852 0.262505
H52   H     H_    0.492453 0.829088 0.214724 0.223586
N9    N     N_2   0.939522 0.686815 0.300120 -0.307515
H53   H     H_    0.932271 0.705282 0.233738 0.202047
C117  C     C_3   0.989568 0.717688 0.356545 -0.765534
H54   H     H_    0.026108 0.718715 0.318235 0.231320
H55   H     H_    0.003899 0.688910 0.420450 0.237281
H56   H     H_    0.979366 0.769413 0.374011 0.230720
N10   N     N_2   0.079158 0.332328 0.726665 -0.279883
H57   H     H_    0.103648 0.325492 0.791644 0.212824
C118  C     C_3   0.021651 0.304725 0.719528 -0.755197
H58   H     H_    0.023538 0.249722 0.724421 0.214023
H59   H     H_    0.993715 0.319517 0.653387 0.269679
H60   H     H_    0.002472 0.323999 0.777372 0.221692
N11   N     N_2   0.060309 0.690229 0.694942 -0.307025
H61   H     H_    0.066422 0.710734 0.760105 0.202088
C119  C     C_3   0.011863 0.720470 0.634196 -0.769926
H62   H     H_    0.023708 0.771033 0.613768 0.231712
H63   H     H_    0.974409 0.724323 0.670225 0.231752
H64   H     H_    0.997987 0.689619 0.572107 0.235230
N12   N     N_2   0.917443 0.333945 0.271055 -0.270000
H65   H     H_    0.891422 0.327221 0.207241 0.219272
C120  C     C_3   0.974956 0.307934 0.273526 -0.779457
H66   H     H_    0.973575 0.253009 0.266803 0.217068
H67   H     H_    0.003976 0.322061 0.339031 0.262610
H68   H     H_    0.992581 0.328986 0.214899 0.223510
O17   O     O_3   0.246790 0.084751 0.539204 -0.633639
C121  C     C_3   0.214122 0.050198 0.463945 -0.344202
H69   H     H_    0.222218 0.069911 0.397026 0.170286
H70   H     H_    0.166897 0.051590 0.465950 0.165640
H71   H     H_    0.227754 0.997462 0.468433 0.195352
O18   O     O_3   0.667878 0.837651 0.337506 -0.626107
C122  C     C_3   0.622453 0.803423 0.280591 -0.350187
H72   H     H_    0.599135 0.770557 0.322242 0.176491
H73   H     H_    0.638113 0.774157 0.226097 0.157157
H74   H     H_    0.591544 0.840574 0.245033 0.206043
O19   O     O_3   0.754370 0.081118 0.460604 -0.633542
C123  C     C_3   0.785829 0.045292 0.535515 -0.342214
H75   H     H_    0.777173 0.064044 0.602521 0.169688
H76   H     H_    0.833248 0.046452 0.534934 0.166043
H77   H     H_    0.771536 0.992706 0.529090 0.196532
O20   O     O_3   0.340956 0.827893 0.670169 -0.623571
C124  C     C_3   0.375363 0.798137 0.747976 -0.339642
H78   H     H_    0.398388 0.753988 0.727558 0.170216
H79   H     H_    0.349869 0.784506 0.801773 0.154746
H80   H     H_    0.408081 0.834726 0.780106 0.200412
O21   O     O_3   0.746811 0.584772 0.539226 -0.633626
C125  C     C_3   0.714136 0.550217 0.463978 -0.344195
H81   H     H_    0.722221 0.569928 0.397051 0.170277
H82   H     H_    0.666913 0.551606 0.466000 0.165636
H83   H     H_    0.727770 0.497481 0.468463 0.195345
O22   O     O_3   0.167864 0.337641 0.337516 -0.626068
C126  C     C_3   0.122563 0.303474 0.280234 -0.350225
H84   H     H_    0.099208 0.270400 0.321570 0.176424
H85   H     H_    0.138367 0.274435 0.225667 0.157261
H86   H     H_    0.091645 0.340653 0.244771 0.206044
O23   O     O_3   0.254379 0.581123 0.460594 -0.633565
C127  C     C_3   0.285845 0.545303 0.535505 -0.342195
H87   H     H_    0.277178 0.564045 0.602510 0.169696
H88   H     H_    0.333264 0.546484 0.534934 0.166039
H89   H     H_    0.271568 0.492712 0.529073 0.196536
O24   O     O_3   0.840958 0.327869 0.670196 -0.623560
C128  C     C_3   0.875408 0.298019 0.747885 -0.339869
H90   H     H_    0.898523 0.254010 0.727267 0.170375
H91   H     H_    0.849932 0.284139 0.801605 0.154725
H92   H     H_    0.908045 0.334630 0.780205 0.200408
N13   N     N_2   0.671414 0.941276 0.046927 -0.311803
H93   H     H_    0.684186 0.956313 0.986850 0.228708
C129  C     C_3   0.693383 0.876201 0.075764 -0.833957
H94   H     H_    0.741131 0.875291 0.079838 0.238572
H95   H     H_    0.673148 0.838071 0.025419 0.235392
H96   H     H_    0.684093 0.864137 0.144891 0.271129
N14   N     N_2   0.333715 0.920664 0.953283 -0.314721
H97   H     H_    0.312608 0.896900 0.894712 0.222979
C130  C     C_3   0.299669 0.971971 0.986100 -0.810424
H98   H     H_    0.255478 0.952678 0.987814 0.237168
H99   H     H_    0.295956 0.015658 0.939418 0.237608
H100  H     H_    0.319936 0.987409 0.057071 0.259102
N15   N     N_2   0.171458 0.441465 0.046876 -0.311724
H101  H     H_    0.184179 0.456304 0.986672 0.228717
C131  C     C_3   0.193542 0.376515 0.076155 -0.834225
H102  H     H_    0.241260 0.375598 0.079891 0.238551
H103  H     H_    0.173209 0.338155 0.026261 0.235469
H104  H     H_    0.184473 0.364780 0.145512 0.271263
N16   N     N_2   0.833780 0.420453 0.953261 -0.314714
H105  H     H_    0.812696 0.396689 0.894674 0.223041
C132  C     C_3   0.799684 0.471694 0.986112 -0.810497
H106  H     H_    0.755511 0.452338 0.987809 0.237179
H107  H     H_    0.795930 0.515401 0.939460 0.237615
H108  H     H_    0.819935 0.487123 0.057095 0.259095
O25   O     O_3   0.547230 0.008728 0.792315 -0.598565
C133  C     C_3   0.557132 0.072711 0.830826 -0.322770
H109  H     H_    0.522390 0.108090 0.800712 0.173451
H110  H     H_    0.599200 0.091293 0.816799 0.199571
H111  H     H_    0.560437 0.071782 0.906828 0.152053
O26   O     O_3   0.452230 0.999638 0.208298 -0.594953
C134  C     C_3   0.437504 0.063021 0.170572 -0.316248
H112  H     H_    0.429616 0.061735 0.094114 0.156650
H113  H     H_    0.471585 0.100796 0.195142 0.169220
H114  H     H_    0.396558 0.078952 0.191328 0.198468
O27   O     O_3   0.047223 0.508817 0.792323 -0.598569
C135  C     C_3   0.057075 0.572801 0.830850 -0.322781
H115  H     H_    0.022327 0.608159 0.800693 0.173466
H116  H     H_    0.099150 0.591410 0.816886 0.199569
H117  H     H_    0.060340 0.571866 0.906845 0.152067
O28   O     O_3   0.952225 0.499462 0.208329 -0.594975
C136  C     C_3   0.937410 0.562839 0.170648 -0.316120
H118  H     H_    0.929442 0.561559 0.094188 0.156664
H119  H     H_    0.971472 0.600651 0.195132 0.169157
H120  H     H_    0.896486 0.578717 0.191528 0.198474

loop_
_geom_bond_atom_site_label_1
_geom_bond_atom_site_label_2
_ccdc_geom_bond_type
C7    C54   S    
C129  H96   S    
C106  O18   S    
N10   H57   S    
C22   N2    A    
C22   H29   S    
N13   H93   S    
C107  O19   S    
C134  H112  S    
C33   C45   A    
C5    C56   S    
O12   Zn2   S    
C131  H102  S    
C71   N12   S    
C6    C55   S    
C49   C73   A    
C53   C69   A    
C6    O14   A    
C76   C84   A    
C88   C96   A    
C85   C101  A    
O23   C127  S    
C113  H39   S    
C48   N16   S    
C114  H42   S    
C58   H22   S    
C120  H68   S    
C99   C108  A    
N10   C118  S    
C62   C70   A    
C37   C38   A    
C98   C105  A    
C57   C89   A    
C32   C36   A    
C127  H88   S    
C134  H113  S    
C78   H17   S    
C51   C75   A    
C21   H30   S    
C128  H90   S    
C50   C74   A    
C62   C94   A    
C25   O26   S    
C133  H109  S    
C67   N8    S    
C112  O24   S    
C74   H13   S    
C7    O7    A    
C10   C94   A    
C24   H31   S    
C9    C105  A    
C73   H14   S    
C63   C95   A    
O4    Zn1   S    
C54   C78   A    
O20   C124  S    
O2    Zn2   S    
O25   C133  S    
C25   N1    A    
O21   C125  S    
C42   C46   A    
C7    O15   A    
C41   H9    S    
C37   C42   A    
N9    C117  S    
C14   C90   A    
C115  H48   S    
C13   C109  A    
C8    O16   A    
C59   C67   A    
C20   H36   S    
C85   C93   A    
C58   C66   A    
C40   C43   A    
O26   C134  S    
C122  H72   S    
C29   C33   A    
C15   H7    S    
C46   N14   S    
C56   C72   A    
N15   C131  S    
C87   C95   A    
C109  O21   S    
C117  H56   S    
C125  H82   S    
N16   H105  S    
C4    O12   A    
C66   N5    S    
C36   C48   A    
C75   H16   S    
C5    O13   A    
C126  H86   S    
C24   N4    A    
C60   H24   S    
C97   C102  A    
C10   H2    S    
C3    O11   A    
N5    H37   S    
C78   C86   A    
O13   Zn4   S    
C60   C92   A    
C110  O22   S    
C1    O9    A    
C117  H54   S    
C2    O2    A    
C80   H19   S    
C83   C99   A    
C130  H98   S    
C28   O27   S    
C25   C29   A    
C82   C98   A    
C2    O10   A    
N9    H53   S    
C17   C33   A    
C74   C82   A    
O16   Zn4   S    
C73   C81   A    
C88   C104  A    
C3    C50   S    
N15   H101  S    
C113  H40   S    
C136  H119  S    
C86   C94   A    
C125  H83   S    
O7    Zn4   S    
C30   C34   A    
C27   C31   A    
N8    H49   S    
C84   C100  A    
C75   C83   A    
C20   C24   A    
C129  H94   S    
C134  H114  S    
C61   H25   S    
C64   C96   A    
C38   C41   A    
N11   H61   S    
C114  H43   S    
O27   C135  S    
N13   C129  S    
N4    Zn3   S    
O15   Zn3   S    
C65   N6    S    
C121  H71   S    
C116  H51   S    
C120  H66   S    
C136  H118  S    
C9    C93   A    
C132  H106  S    
C44   H12   S    
C100  C103  A    
C19   H35   S    
N3    Zn4   S    
N1    Zn2   S    
C108  O20   S    
C128  H91   S    
C8    C53   S    
C116  H50   S    
C19   C23   A    
N12   H65   S    
N8    C116  S    
C119  H62   S    
O17   C121  S    
C15   C111  A    
C55   C79   A    
C123  H77   S    
C45   N13   S    
C113  H38   S    
C54   C70   A    
C16   C112  A    
C28   C32   A    
C47   N15   S    
C126  H84   S    
C26   N2    A    
O24   C128  S    
C131  H104  S    
C3    O3    A    
C125  H81   S    
C126  H85   S    
C8    O8    A    
C59   C91   A    
C82   C90   A    
C62   H26   S    
C1    O1    A    
C18   C34   A    
C79   C87   A    
N5    C113  S    
C49   C65   A    
C26   O25   S    
C127  H89   S    
C34   C46   A    
O9    Zn2   S    
C118  H58   S    
C135  H115  S    
C119  H63   S    
C63   C71   A    
C68   N7    S    
C28   N4    A    
C70   N9    S    
C21   N1    A    
C124  H79   S    
C130  H100  S    
C11   C107  A    
C53   C77   A    
C135  H117  S    
C87   C103  A    
C23   H32   S    
C10   C106  A    
C120  H67   S    
C97   C106  A    
C29   C37   A    
C4    O4    A    
C43   H11   S    
C39   C40   A    
C32   C40   A    
C11   H3    S    
O28   C136  S    
C42   H10   S    
C12   C108  A    
C64   H28   S    
C136  H120  S    
C61   C69   A    
C129  H95   S    
C23   N3    A    
O22   C126  S    
C121  H70   S    
C100  C107  A    
C27   N3    A    
C114  H44   S    
C133  H111  S    
C13   C89   A    
C123  H76   S    
C18   C22   A    
C57   H21   S    
C63   H27   S    
C27   O28   S    
C59   H23   S    
C12   C96   A    
C14   H6    S    
C57   C65   A    
C43   C47   A    
C18   H34   S    
C52   C68   A    
C17   H33   S    
C6    O6    A    
C104  C111  A    
C13   H5    S    
N14   H97   S    
C50   C66   A    
C16   C92   A    
C39   C44   A    
C130  H99   S    
C132  H107  S    
C98   C101  A    
C83   C91   A    
C4    C49   S    
C5    O5    A    
C56   C80   A    
C52   C76   A    
C58   C90   A    
C128  H92   S    
C9    H1    S    
C131  H103  S    
C16   H8    S    
C14   C110  A    
C101  C110  A    
C81   C89   A    
C115  H46   S    
C80   C88   A    
C122  H73   S    
C19   C35   A    
O5    Zn3   S    
C116  H52   S    
C133  H110  S    
C35   C47   A    
N14   C130  S    
O3    Zn2   S    
O6    Zn4   S    
N7    H45   S    
C51   C67   A    
O10   Zn1   S    
C81   C97   A    
C77   C85   A    
C72   N11   S    
C105  O17   S    
C79   H20   S    
C31   C35   A    
C135  H116  S    
C123  H75   S    
N11   C119  S    
O8    Zn3   S    
C31   C39   A    
C99   C104  A    
C61   C93   A    
C77   H18   S    
C64   C72   A    
C121  H69   S    
O11   Zn1   S    
C1    C52   S    
C17   C21   A    
C115  H47   S    
N12   C120  S    
N7    C115  S    
C2    C51   S    
C15   C91   A    
N6    H41   S    
C20   C36   A    
N16   C132  S    
O14   Zn3   S    
C122  H74   S    
C11   C95   A    
N2    Zn1   S    
C60   C68   A    
C69   N10   S    
O18   C122  S    
C124  H80   S    
O1    Zn1   S    
O19   C123  S    
C117  H55   S    
C76   H15   S    
C41   C45   A    
C103  C112  A    
C102  C109  A    
C118  H60   S    
C84   C92   A    
C30   C38   A    
N6    C114  S    
C119  H64   S    
C124  H78   S    
C118  H59   S    
C111  O23   S    
C55   C71   A    
C44   C48   A    
C132  H108  S    
C127  H87   S    
C12   H4    S    
C26   C30   A    
C86   C102  A    
