data_mof_unit_64830.cif
_audit_creation_date              2013-03-05T16:20:27-0500
_audit_creation_method            fapswitch 2.2
_symmetry_space_group_name_H-M    P1
_symmetry_Int_Tables_number       1
_space_group_crystal_system       triclinic
_cell_length_a                    26.170994
_cell_length_b                    43.277148
_cell_length_c                    43.190297
_cell_angle_alpha                 89.94682
_cell_angle_beta                  89.987743
_cell_angle_gamma                 90.025878
_cell_volume                      48917.5615038

loop_
_atom_site_label
_atom_site_type_symbol
_atom_site_description
_atom_site_fract_x
_atom_site_fract_y
_atom_site_fract_z
_atom_type_partial_charge
Zn1   Zn    Zn3+2 0.792890 0.275920 0.974000 1.009025
Zn2   Zn    Zn3+2 0.207110 0.724080 0.974000 1.004464
Zn3   Zn    Zn3+2 0.207110 0.275920 0.974000 1.006315
Zn4   Zn    Zn3+2 0.792890 0.724080 0.974000 1.008878
Zn5   Zn    Zn3+2 0.292890 0.775920 0.974000 0.997699
Zn6   Zn    Zn3+2 0.707110 0.224080 0.974000 0.999086
Zn7   Zn    Zn3+2 0.707110 0.775920 0.974000 1.002509
Zn8   Zn    Zn3+2 0.292890 0.224080 0.974000 1.001537
Zn9   Zn    Zn3+2 0.292890 0.275920 0.474000 1.008706
Zn10  Zn    Zn3+2 0.707110 0.724080 0.474000 1.008194
Zn11  Zn    Zn3+2 0.707110 0.275920 0.474000 1.010004
Zn12  Zn    Zn3+2 0.292890 0.724080 0.474000 1.010213
Zn13  Zn    Zn3+2 0.792890 0.775920 0.474000 1.001322
Zn14  Zn    Zn3+2 0.207110 0.224080 0.474000 1.001437
Zn15  Zn    Zn3+2 0.207110 0.775920 0.474000 1.003080
Zn16  Zn    Zn3+2 0.792890 0.224080 0.474000 1.003438
Zn17  Zn    Zn3+2 0.707080 0.275930 0.025920 0.999502
Zn18  Zn    Zn3+2 0.292920 0.724070 0.025920 1.001296
Zn19  Zn    Zn3+2 0.292920 0.275930 0.025920 0.999203
Zn20  Zn    Zn3+2 0.707080 0.724070 0.025920 1.000281
Zn21  Zn    Zn3+2 0.207080 0.775930 0.025920 1.004002
Zn22  Zn    Zn3+2 0.792920 0.224070 0.025920 1.003005
Zn23  Zn    Zn3+2 0.792920 0.775930 0.025920 1.000759
Zn24  Zn    Zn3+2 0.207080 0.224070 0.025920 1.004206
Zn25  Zn    Zn3+2 0.207080 0.275930 0.525920 0.999647
Zn26  Zn    Zn3+2 0.792920 0.724070 0.525920 0.999697
Zn27  Zn    Zn3+2 0.792920 0.275930 0.525920 0.999018
Zn28  Zn    Zn3+2 0.207080 0.724070 0.525920 0.998892
Zn29  Zn    Zn3+2 0.707080 0.775930 0.525920 1.002143
Zn30  Zn    Zn3+2 0.292920 0.224070 0.525920 1.001548
Zn31  Zn    Zn3+2 0.292920 0.775930 0.525920 1.000042
Zn32  Zn    Zn3+2 0.707080 0.224070 0.525920 1.000415
O1    O     O_3   0.750000 0.250000 0.999950 -0.501405
O2    O     O_3   0.250000 0.750000 0.999950 -0.499928
O3    O     O_3   0.250000 0.250000 0.999950 -0.500733
O4    O     O_3   0.750000 0.750000 0.999950 -0.501775
O5    O     O_3   0.250000 0.250000 0.499950 -0.501593
O6    O     O_3   0.750000 0.750000 0.499950 -0.501543
O7    O     O_3   0.750000 0.250000 0.499950 -0.502050
O8    O     O_3   0.250000 0.750000 0.499950 -0.502122
O9    O     O_R   0.635410 0.231810 0.981790 -0.637420
O10   O     O_R   0.364590 0.768190 0.981790 -0.637632
O11   O     O_R   0.364590 0.231810 0.981790 -0.638430
O12   O     O_R   0.635410 0.768190 0.981790 -0.637056
O13   O     O_R   0.135410 0.731810 0.981790 -0.632841
O14   O     O_R   0.864590 0.268190 0.981790 -0.629860
O15   O     O_R   0.864590 0.731810 0.981790 -0.634832
O16   O     O_R   0.135410 0.268190 0.981790 -0.631942
O17   O     O_R   0.135410 0.231810 0.481790 -0.637603
O18   O     O_R   0.864590 0.768190 0.481790 -0.637885
O19   O     O_R   0.864590 0.231810 0.481790 -0.637043
O20   O     O_R   0.135410 0.768190 0.481790 -0.637008
O21   O     O_R   0.635410 0.731810 0.481790 -0.630718
O22   O     O_R   0.364590 0.268190 0.481790 -0.630736
O23   O     O_R   0.364590 0.731810 0.481790 -0.634286
O24   O     O_R   0.635410 0.268190 0.481790 -0.634443
O25   O     O_R   0.719950 0.319270 0.018140 -0.636094
O26   O     O_R   0.280050 0.680730 0.018140 -0.638616
O27   O     O_R   0.280050 0.319270 0.018140 -0.639261
O28   O     O_R   0.719950 0.680730 0.018140 -0.634959
O29   O     O_R   0.219950 0.819270 0.018140 -0.635538
O30   O     O_R   0.780050 0.180730 0.018140 -0.637845
O31   O     O_R   0.780050 0.819270 0.018140 -0.638899
O32   O     O_R   0.219950 0.180730 0.018140 -0.639136
O33   O     O_R   0.219950 0.319270 0.518140 -0.636523
O34   O     O_R   0.780050 0.680730 0.518140 -0.636594
O35   O     O_R   0.780050 0.319270 0.518140 -0.635295
O36   O     O_R   0.219950 0.680730 0.518140 -0.635104
O37   O     O_R   0.719950 0.819270 0.518140 -0.635990
O38   O     O_R   0.280050 0.180730 0.518140 -0.637977
O39   O     O_R   0.280050 0.819270 0.518140 -0.638543
O40   O     O_R   0.719950 0.180730 0.518140 -0.638386
O41   O     O_R   0.719970 0.268150 0.069250 -0.639828
O42   O     O_R   0.280030 0.731850 0.069250 -0.639568
O43   O     O_R   0.280030 0.268150 0.069250 -0.639446
O44   O     O_R   0.719970 0.731850 0.069250 -0.639046
O45   O     O_R   0.219970 0.768150 0.069250 -0.639410
O46   O     O_R   0.780030 0.231850 0.069250 -0.639081
O47   O     O_R   0.780030 0.768150 0.069250 -0.639578
O48   O     O_R   0.219970 0.231850 0.069250 -0.639956
O49   O     O_R   0.219970 0.268150 0.569250 -0.640655
O50   O     O_R   0.780030 0.731850 0.569250 -0.640693
O51   O     O_R   0.780030 0.268150 0.569250 -0.639324
O52   O     O_R   0.219970 0.731850 0.569250 -0.639424
O53   O     O_R   0.719970 0.768150 0.569250 -0.639111
O54   O     O_R   0.280030 0.231850 0.569250 -0.639532
O55   O     O_R   0.280030 0.768150 0.569250 -0.639800
O56   O     O_R   0.719970 0.231850 0.569250 -0.639775
O57   O     O_R   0.719930 0.231800 0.930660 -0.638405
O58   O     O_R   0.280070 0.768200 0.930660 -0.639136
O59   O     O_R   0.280070 0.231800 0.930660 -0.636772
O60   O     O_R   0.719930 0.768200 0.930660 -0.637946
O61   O     O_R   0.219930 0.731800 0.930660 -0.640235
O62   O     O_R   0.780070 0.268200 0.930660 -0.640851
O63   O     O_R   0.780070 0.731800 0.930660 -0.636390
O64   O     O_R   0.219930 0.268200 0.930660 -0.640675
O65   O     O_R   0.219930 0.231800 0.430660 -0.637431
O66   O     O_R   0.780070 0.768200 0.430660 -0.637265
O67   O     O_R   0.780070 0.231800 0.430660 -0.637071
O68   O     O_R   0.219930 0.768200 0.430660 -0.637698
O69   O     O_R   0.719930 0.731800 0.430660 -0.640480
O70   O     O_R   0.280070 0.268200 0.430660 -0.640383
O71   O     O_R   0.280070 0.731800 0.430660 -0.635704
O72   O     O_R   0.719930 0.268200 0.430660 -0.635921
O73   O     O_R   0.780020 0.319260 0.981800 -0.631354
O74   O     O_R   0.219980 0.680740 0.981800 -0.639189
O75   O     O_R   0.219980 0.319260 0.981800 -0.638839
O76   O     O_R   0.780020 0.680740 0.981800 -0.631386
O77   O     O_R   0.280020 0.819260 0.981800 -0.643535
O78   O     O_R   0.719980 0.180740 0.981800 -0.639389
O79   O     O_R   0.719980 0.819260 0.981800 -0.637836
O80   O     O_R   0.280020 0.180740 0.981800 -0.638577
O81   O     O_R   0.280020 0.319260 0.481800 -0.632966
O82   O     O_R   0.719980 0.680740 0.481800 -0.633062
O83   O     O_R   0.719980 0.319260 0.481800 -0.630853
O84   O     O_R   0.280020 0.680740 0.481800 -0.629510
O85   O     O_R   0.780020 0.819260 0.481800 -0.636708
O86   O     O_R   0.219980 0.180740 0.481800 -0.637311
O87   O     O_R   0.219980 0.819260 0.481800 -0.637481
O88   O     O_R   0.780020 0.180740 0.481800 -0.636521
O89   O     O_R   0.635420 0.268150 0.018130 -0.636533
O90   O     O_R   0.364580 0.731850 0.018130 -0.636643
O91   O     O_R   0.364580 0.268150 0.018130 -0.637051
O92   O     O_R   0.635420 0.731850 0.018130 -0.637473
O93   O     O_R   0.135420 0.768150 0.018130 -0.636459
O94   O     O_R   0.864580 0.231850 0.018130 -0.637283
O95   O     O_R   0.864580 0.768150 0.018130 -0.636798
O96   O     O_R   0.135420 0.231850 0.018130 -0.636139
O97   O     O_R   0.135420 0.268150 0.518130 -0.635858
O98   O     O_R   0.864580 0.731850 0.518130 -0.635864
O99   O     O_R   0.864580 0.268150 0.518130 -0.637457
O100  O     O_R   0.135420 0.731850 0.518130 -0.637324
O101  O     O_R   0.635420 0.768150 0.518130 -0.637195
O102  O     O_R   0.364580 0.231850 0.518130 -0.637523
O103  O     O_R   0.364580 0.768150 0.518130 -0.636921
O104  O     O_R   0.635420 0.231850 0.518130 -0.636826
C1    C     C_R   0.611453 0.249951 0.999941 0.859578
C2    C     C_R   0.388561 0.750048 0.999939 0.861684
C3    C     C_R   0.388547 0.249954 0.999943 0.858790
C4    C     C_R   0.611440 0.750042 0.999941 0.861036
C5    C     C_R   0.111452 0.749953 0.999939 0.865778
C6    C     C_R   0.888561 0.250047 0.999938 0.866604
C7    C     C_R   0.888547 0.749956 0.999941 0.862574
C8    C     C_R   0.111440 0.250043 0.999942 0.867820
C9    C     C_R   0.111452 0.249952 0.499939 0.860315
C10   C     C_R   0.888561 0.750048 0.499939 0.860524
C11   C     C_R   0.888547 0.249957 0.499941 0.860190
C12   C     C_R   0.111440 0.750042 0.499941 0.860871
C13   C     C_R   0.611453 0.749954 0.499938 0.865114
C14   C     C_R   0.388561 0.250046 0.499937 0.865815
C15   C     C_R   0.388547 0.749956 0.499941 0.861988
C16   C     C_R   0.611440 0.250042 0.499941 0.862856
C17   C     C_R   0.749902 0.333956 0.999913 0.821805
C18   C     C_R   0.249881 0.665910 0.000069 0.829194
C19   C     C_R   0.249758 0.334075 0.000128 0.828850
C20   C     C_R   0.749919 0.666036 0.999945 0.821966
C21   C     C_R   0.249975 0.834093 0.999749 0.827157
C22   C     C_R   0.750307 0.165908 0.999724 0.827443
C23   C     C_R   0.750179 0.834048 0.999915 0.827356
C24   C     C_R   0.250531 0.166010 0.000339 0.830964
C25   C     C_R   0.249995 0.333955 0.500000 0.824270
C26   C     C_R   0.750077 0.666052 0.499979 0.824274
C27   C     C_R   0.750093 0.333946 0.499927 0.821335
C28   C     C_R   0.249976 0.666098 0.499997 0.819743
C29   C     C_R   0.750047 0.834141 0.499883 0.822892
C30   C     C_R   0.250172 0.165938 0.499874 0.825547
C31   C     C_R   0.250176 0.834048 0.499900 0.827111
C32   C     C_R   0.749862 0.165962 0.499950 0.825849
C33   C     C_R   0.749841 0.249902 0.084082 0.847950
C34   C     C_R   0.250145 0.750084 0.084057 0.849872
C35   C     C_R   0.250153 0.249901 0.084079 0.848654
C36   C     C_R   0.749987 0.749994 0.084086 0.846635
C37   C     C_R   0.250116 0.250055 0.584062 0.846895
C38   C     C_R   0.750140 0.750066 0.584068 0.846748
C39   C     C_R   0.749988 0.249993 0.584083 0.845813
C40   C     C_R   0.250222 0.749871 0.584085 0.845608
C41   C     C_R   0.750010 0.250007 0.915849 0.845482
C42   C     C_R   0.250165 0.749925 0.915840 0.846902
C43   C     C_R   0.250014 0.250017 0.915847 0.847568
C44   C     C_R   0.750103 0.750063 0.915854 0.849653
C45   C     C_R   0.250157 0.249923 0.415855 0.847487
C46   C     C_R   0.750013 0.750005 0.415847 0.847032
C47   C     C_R   0.749722 0.249860 0.415838 0.849793
C48   C     C_R   0.249949 0.749981 0.415848 0.849988
C49   C     C_R   0.782137 0.270066 0.634500 -0.219653
C50   C     C_R   0.220945 0.728221 0.634543 -0.220894
C51   C     C_R   0.218202 0.270176 0.634516 -0.218480
C52   C     C_R   0.783611 0.730739 0.634477 -0.217003
C53   C     C_R   0.285328 0.768335 0.634411 -0.218399
C54   C     C_R   0.717819 0.229906 0.634540 -0.219584
C55   C     C_R   0.720561 0.771586 0.634421 -0.218627
C56   C     C_R   0.284604 0.231289 0.634461 -0.218080
C57   C     C_R   0.284127 0.268888 0.134487 -0.214925
C58   C     C_R   0.716105 0.730965 0.134547 -0.218379
C59   C     C_R   0.715771 0.268862 0.134488 -0.215462
C60   C     C_R   0.284237 0.731131 0.134466 -0.210116
C61   C     C_R   0.783832 0.769021 0.134509 -0.218432
C62   C     C_R   0.221024 0.228034 0.134440 -0.217501
C63   C     C_R   0.220401 0.771574 0.134431 -0.221262
C64   C     C_R   0.778834 0.228022 0.134488 -0.217777
C65   C     C_R   0.781876 0.270730 0.666874 0.283277
C66   C     C_R   0.223412 0.726361 0.666845 0.282158
C67   C     C_R   0.219243 0.271228 0.666856 0.284204
C68   C     C_R   0.784926 0.730995 0.666847 0.285261
C69   C     C_R   0.287201 0.767852 0.666774 0.284494
C70   C     C_R   0.718075 0.229227 0.666918 0.282778
C71   C     C_R   0.722410 0.773134 0.666722 0.283178
C72   C     C_R   0.285305 0.231143 0.666805 0.285680
C73   C     C_R   0.285744 0.268423 0.166856 0.284374
C74   C     C_R   0.716246 0.730309 0.166930 0.283266
C75   C     C_R   0.713911 0.268311 0.166847 0.285300
C76   C     C_R   0.285881 0.731775 0.166714 0.297089
C77   C     C_R   0.783682 0.769664 0.166887 0.282957
C78   C     C_R   0.223361 0.226152 0.166736 0.281883
C79   C     C_R   0.222080 0.773028 0.166790 0.285716
C80   C     C_R   0.776446 0.226192 0.166793 0.283198
C81   C     C_R   0.749981 0.249978 0.683373 -0.160706
C82   C     C_R   0.256086 0.746691 0.683296 -0.159367
C83   C     C_R   0.252460 0.251262 0.683336 -0.159149
C84   C     C_R   0.754423 0.752506 0.683284 -0.158014
C85   C     C_R   0.255435 0.246757 0.183270 -0.159278
C86   C     C_R   0.749972 0.749984 0.183382 -0.161032
C87   C     C_R   0.744233 0.246714 0.183304 -0.158717
C88   C     C_R   0.254420 0.752512 0.183262 -0.158369
C89   C     C_R   0.749977 0.249984 0.618181 -0.129370
C90   C     C_R   0.251889 0.748954 0.618164 -0.129456
C91   C     C_R   0.250844 0.250430 0.618150 -0.129085
C92   C     C_R   0.751275 0.750699 0.618131 -0.129543
C93   C     C_R   0.251541 0.249068 0.118151 -0.129731
C94   C     C_R   0.749971 0.749988 0.118188 -0.129385
C95   C     C_R   0.748401 0.249064 0.118164 -0.129487
C96   C     C_R   0.251320 0.750784 0.118120 -0.129327
C97   C     C_R   0.704386 0.255129 0.733856 -0.058733
C98   C     C_R   0.301930 0.741903 0.733959 -0.055923
C99   C     C_R   0.297673 0.256499 0.733994 -0.056348
C100  C     C_R   0.708789 0.749521 0.733851 -0.059923
C101  C     C_R   0.210414 0.751011 0.733705 -0.064080
C102  C     C_R   0.795580 0.244856 0.733853 -0.059880
C103  C     C_R   0.800881 0.756155 0.733836 -0.060315
C104  C     C_R   0.206630 0.245731 0.733668 -0.064347
C105  C     C_R   0.209953 0.250386 0.233756 -0.059802
C106  C     C_R   0.794970 0.743121 0.233846 -0.057799
C107  C     C_R   0.789214 0.249944 0.234034 -0.059221
C108  C     C_R   0.207271 0.747365 0.233215 -0.064951
C109  C     C_R   0.705020 0.756847 0.233862 -0.058698
C110  C     C_R   0.301668 0.242116 0.233814 -0.058338
C111  C     C_R   0.298950 0.755710 0.234370 -0.065682
C112  C     C_R   0.697373 0.242129 0.233671 -0.058460
H1    H     H_    0.668874 0.259055 0.721569 0.159241
H2    H     H_    0.337696 0.738464 0.721788 0.160360
H3    H     H_    0.333259 0.260688 0.721865 0.161876
H4    H     H_    0.672902 0.746952 0.721620 0.162517
H5    H     H_    0.174850 0.754499 0.721344 0.159190
H6    H     H_    0.831094 0.240917 0.721567 0.158973
H7    H     H_    0.836803 0.758601 0.721583 0.161386
H8    H     H_    0.171275 0.241626 0.721279 0.160043
H9    H     H_    0.174249 0.253585 0.221470 0.161440
H10   H     H_    0.829994 0.737841 0.221550 0.159375
H11   H     H_    0.825127 0.253045 0.221932 0.162062
H12   H     H_    0.171896 0.744439 0.220514 0.163040
H13   H     H_    0.669987 0.762121 0.221575 0.159417
H14   H     H_    0.337475 0.239127 0.221560 0.160808
H15   H     H_    0.335019 0.759403 0.222634 0.177111
H16   H     H_    0.661712 0.239254 0.221252 0.161304
C113  C     C_R   0.704385 0.255129 0.766114 -0.061454
C114  C     C_R   0.301654 0.742026 0.766263 -0.059117
C115  C     C_R   0.297357 0.256339 0.766266 -0.062358
C116  C     C_R   0.708749 0.749466 0.766065 -0.061580
C117  C     C_R   0.210129 0.751092 0.765925 -0.059975
C118  C     C_R   0.795591 0.244904 0.766110 -0.057332
C119  C     C_R   0.800850 0.756041 0.766136 -0.057228
C120  C     C_R   0.206301 0.245618 0.765921 -0.056447
C121  C     C_R   0.209845 0.250443 0.265962 -0.062280
C122  C     C_R   0.794998 0.743160 0.266104 -0.059974
C123  C     C_R   0.788900 0.249824 0.266254 -0.062970
C124  C     C_R   0.206208 0.746868 0.265469 -0.056666
C125  C     C_R   0.705031 0.756838 0.266120 -0.056897
C126  C     C_R   0.301528 0.242024 0.266125 -0.055513
C127  C     C_R   0.297901 0.755187 0.266629 -0.061434
C128  C     C_R   0.697048 0.242056 0.265984 -0.053159
C129  C     C_R   0.749990 0.250029 0.782417 0.154607
C130  C     C_R   0.255719 0.746676 0.782415 0.155247
C131  C     C_R   0.251656 0.250907 0.782400 0.156328
C132  C     C_R   0.754727 0.752693 0.782431 0.152608
C133  C     C_R   0.255572 0.246286 0.282408 0.147703
C134  C     C_R   0.750025 0.750008 0.282415 0.153415
C135  C     C_R   0.742856 0.245951 0.282447 0.153347
C136  C     C_R   0.251530 0.750765 0.282369 0.153918
C137  C     C_R   0.749982 0.249980 0.717542 0.156258
C138  C     C_R   0.256275 0.746457 0.717497 0.154776
C139  C     C_R   0.252306 0.251177 0.717511 0.151654
C140  C     C_R   0.754801 0.752854 0.717496 0.150273
C141  C     C_R   0.255816 0.246306 0.217458 0.152754
C142  C     C_R   0.749986 0.749977 0.217546 0.155907
C143  C     C_R   0.743497 0.246146 0.217512 0.150856
C144  C     C_R   0.253645 0.751794 0.217455 0.131964
C145  C     C_R   0.781734 0.270859 0.833022 0.284240
C146  C     C_R   0.222825 0.726690 0.833124 0.283750
C147  C     C_R   0.219044 0.271269 0.833007 0.283847
C148  C     C_R   0.784022 0.730447 0.833091 0.284116
C149  C     C_R   0.285629 0.768729 0.833016 0.284347
C150  C     C_R   0.718265 0.229203 0.833068 0.284264
C151  C     C_R   0.723022 0.773417 0.833126 0.283215
C152  C     C_R   0.282930 0.229842 0.833054 0.283182
C153  C     C_R   0.286974 0.267628 0.333054 0.285656
C154  C     C_R   0.716346 0.730343 0.333059 0.284421
C155  C     C_R   0.713496 0.268253 0.333051 0.284554
C156  C     C_R   0.281237 0.728907 0.333056 0.282514
C157  C     C_R   0.783744 0.769672 0.333015 0.284908
C158  C     C_R   0.221306 0.227259 0.333241 0.284593
C159  C     C_R   0.219190 0.771338 0.333011 0.284454
C160  C     C_R   0.774370 0.225224 0.333182 0.282080
C161  C     C_R   0.781963 0.270224 0.865395 -0.220105
C162  C     C_R   0.220712 0.728348 0.865430 -0.220771
C163  C     C_R   0.218286 0.270330 0.865383 -0.220325
C164  C     C_R   0.782817 0.730298 0.865459 -0.212437
C165  C     C_R   0.284051 0.769066 0.865403 -0.217150
C166  C     C_R   0.718050 0.229819 0.865438 -0.216131
C167  C     C_R   0.721046 0.771857 0.865452 -0.213990
C168  C     C_R   0.282712 0.230263 0.865431 -0.214379
C169  C     C_R   0.285349 0.268137 0.365421 -0.216674
C170  C     C_R   0.716234 0.730931 0.365431 -0.218550
C171  C     C_R   0.715608 0.268892 0.365416 -0.210710
C172  C     C_R   0.281285 0.729460 0.365431 -0.211906
C173  C     C_R   0.783839 0.769077 0.365391 -0.214767
C174  C     C_R   0.219311 0.229029 0.365522 -0.213038
C175  C     C_R   0.218580 0.770503 0.365389 -0.212574
C176  C     C_R   0.777182 0.227231 0.365468 -0.213704
H17   H     H_    0.806334 0.286228 0.877805 0.211317
H18   H     H_    0.195898 0.712585 0.877871 0.210109
H19   H     H_    0.193482 0.286073 0.877805 0.210901
H20   H     H_    0.805774 0.713546 0.877883 0.213490
H21   H     H_    0.307563 0.785527 0.877811 0.211369
H22   H     H_    0.693680 0.213811 0.877877 0.211486
H23   H     H_    0.696917 0.787975 0.877883 0.212464
H24   H     H_    0.307148 0.214324 0.877891 0.212987
H25   H     H_    0.309912 0.284070 0.377774 0.211231
H26   H     H_    0.690354 0.715810 0.377863 0.211380
H27   H     H_    0.692895 0.285784 0.377784 0.213476
H28   H     H_    0.305080 0.713173 0.377897 0.214659
H29   H     H_    0.809717 0.784196 0.377796 0.211771
H30   H     H_    0.193367 0.213948 0.377964 0.211367
H31   H     H_    0.194539 0.786672 0.377812 0.212476
H32   H     H_    0.801384 0.211172 0.377945 0.213444
C177  C     C_R   0.750014 0.250021 0.881757 -0.128431
C178  C     C_R   0.251445 0.749229 0.881745 -0.128304
C179  C     C_R   0.250283 0.250179 0.881747 -0.129019
C180  C     C_R   0.751138 0.750647 0.881778 -0.130288
C181  C     C_R   0.251429 0.249159 0.381789 -0.129399
C182  C     C_R   0.750033 0.750010 0.381754 -0.128594
C183  C     C_R   0.747817 0.248827 0.381755 -0.130471
C184  C     C_R   0.249914 0.749975 0.381750 -0.130584
C185  C     C_R   0.749992 0.250032 0.816580 -0.160622
C186  C     C_R   0.255081 0.747215 0.816599 -0.159994
C187  C     C_R   0.251259 0.250698 0.816561 -0.160879
C188  C     C_R   0.754268 0.752332 0.816624 -0.159083
C189  C     C_R   0.255021 0.246859 0.316638 -0.156615
C190  C     C_R   0.750039 0.750007 0.316576 -0.160615
C191  C     C_R   0.743055 0.246256 0.316643 -0.159728
C192  C     C_R   0.250521 0.750280 0.316549 -0.159675
C193  C     C_2   0.528091 0.232149 0.517801 -0.131212
C194  C     C_2   0.471898 0.767827 0.517784 -0.131436
C195  C     C_2   0.471881 0.232154 0.517796 -0.131936
C196  C     C_2   0.528114 0.767827 0.517781 -0.132434
C197  C     C_2   0.028091 0.732164 0.517814 -0.135367
C198  C     C_2   0.971898 0.267815 0.517795 -0.134889
C199  C     C_2   0.971882 0.732168 0.517808 -0.134373
C200  C     C_2   0.028114 0.267814 0.517792 -0.134364
C201  C     C_2   0.028090 0.232161 0.017812 -0.130875
C202  C     C_2   0.971898 0.767820 0.017791 -0.131432
C203  C     C_2   0.971881 0.232161 0.017802 -0.131483
C204  C     C_2   0.028114 0.767817 0.017789 -0.131810
C205  C     C_2   0.528091 0.732161 0.017812 -0.134064
C206  C     C_2   0.471899 0.267789 0.017820 -0.137190
C207  C     C_2   0.471882 0.732166 0.017807 -0.133735
C208  C     C_2   0.528114 0.267790 0.017815 -0.137156
C209  C     C_2   0.556142 0.250531 0.499459 -0.280221
C210  C     C_2   0.443857 0.749462 0.499454 -0.280177
C211  C     C_2   0.443867 0.250543 0.499448 -0.278822
C212  C     C_2   0.556143 0.749459 0.499452 -0.278880
C213  C     C_2   0.056142 0.750529 0.499456 -0.284293
C214  C     C_2   0.943856 0.249464 0.499452 -0.284354
C215  C     C_2   0.943867 0.750551 0.499454 -0.284864
C216  C     C_2   0.056143 0.249452 0.499457 -0.284779
C217  C     C_2   0.056141 0.250529 0.999456 -0.277252
C218  C     C_2   0.943856 0.749459 0.999456 -0.280281
C219  C     C_2   0.943867 0.250549 0.999454 -0.276733
C220  C     C_2   0.056143 0.749456 0.999454 -0.279530
C221  C     C_2   0.556142 0.750531 0.999458 -0.284791
C222  C     C_2   0.443856 0.249455 0.999459 -0.284963
C223  C     C_2   0.443867 0.750548 0.999452 -0.285363
C224  C     C_2   0.556143 0.249448 0.999461 -0.284980
H33   H     H_    0.546797 0.216262 0.533652 0.194145
H34   H     H_    0.453192 0.783700 0.533624 0.194100
H35   H     H_    0.453150 0.216264 0.533647 0.194009
H36   H     H_    0.546835 0.783701 0.533617 0.194020
H37   H     H_    0.046797 0.716290 0.533679 0.192976
H38   H     H_    0.953192 0.283677 0.533646 0.193106
H39   H     H_    0.953151 0.716282 0.533663 0.193329
H40   H     H_    0.046834 0.283683 0.533633 0.193319
H41   H     H_    0.046796 0.216288 0.033678 0.193576
H42   H     H_    0.953192 0.783690 0.033633 0.193907
H43   H     H_    0.953150 0.216268 0.033650 0.193535
H44   H     H_    0.046834 0.783685 0.033632 0.193817
H45   H     H_    0.546797 0.716282 0.033673 0.193470
H46   H     H_    0.453193 0.283637 0.033684 0.192788
H47   H     H_    0.453151 0.716281 0.033663 0.193365
H48   H     H_    0.546834 0.283645 0.033671 0.192848
H49   H     H_    0.539381 0.266692 0.483326 0.162695
H50   H     H_    0.460625 0.733319 0.483336 0.162735
H51   H     H_    0.460654 0.266704 0.483318 0.163111
H52   H     H_    0.539363 0.733311 0.483337 0.163132
H53   H     H_    0.039381 0.766676 0.483309 0.159959
H54   H     H_    0.960625 0.233332 0.483322 0.159822
H55   H     H_    0.960653 0.766713 0.483326 0.159862
H56   H     H_    0.039364 0.233305 0.483342 0.159768
H57   H     H_    0.039381 0.266673 0.983306 0.162969
H58   H     H_    0.960625 0.733317 0.983337 0.161927
H59   H     H_    0.960653 0.266719 0.983332 0.163475
H60   H     H_    0.039363 0.733314 0.983334 0.161947
H61   H     H_    0.539381 0.766683 0.983316 0.159719
H62   H     H_    0.460625 0.233334 0.983319 0.159788
H63   H     H_    0.460654 0.766708 0.983322 0.159599
H64   H     H_    0.539364 0.233314 0.983332 0.159803
C225  C     C_R   0.793777 0.883622 0.012421 -0.223449
C226  C     C_R   0.217295 0.115253 0.018931 -0.211860
C227  C     C_R   0.214429 0.886016 0.014557 -0.225249
C228  C     C_R   0.792865 0.115881 0.012054 -0.215840
C229  C     C_R   0.274047 0.383989 0.024903 -0.224847
C230  C     C_R   0.702067 0.616648 0.002891 -0.221794
C231  C     C_R   0.739769 0.384299 0.026664 -0.220865
C232  C     C_R   0.275264 0.615858 0.024232 -0.222309
C233  C     C_R   0.293726 0.883743 0.512024 -0.222462
C234  C     C_R   0.705535 0.116233 0.510855 -0.222399
C235  C     C_R   0.706347 0.884360 0.509335 -0.221611
C236  C     C_R   0.294405 0.116156 0.510816 -0.222778
C237  C     C_R   0.797719 0.383286 0.502956 -0.222256
C238  C     C_R   0.203640 0.616126 0.502409 -0.222513
C239  C     C_R   0.238244 0.383505 0.527803 -0.218861
C240  C     C_R   0.763907 0.616146 0.526771 -0.217880
H65   H     H_    0.822963 0.870751 0.024663 0.205963
H66   H     H_    0.186387 0.126955 0.030854 0.197730
H67   H     H_    0.184905 0.874838 0.028592 0.204893
H68   H     H_    0.820988 0.128247 0.025687 0.199794
H69   H     H_    0.297410 0.371339 0.041330 0.207527
H70   H     H_    0.667425 0.629681 0.007313 0.193054
H71   H     H_    0.733092 0.372030 0.048208 0.196480
H72   H     H_    0.298607 0.628463 0.040669 0.208067
H73   H     H_    0.323521 0.870922 0.523774 0.205407
H74   H     H_    0.674341 0.129022 0.521164 0.204588
H75   H     H_    0.674457 0.871821 0.519442 0.201327
H76   H     H_    0.324872 0.128876 0.522028 0.203048
H77   H     H_    0.832509 0.370290 0.506980 0.192673
H78   H     H_    0.168008 0.628831 0.504578 0.189405
H79   H     H_    0.228581 0.370679 0.548596 0.197062
H80   H     H_    0.773349 0.628612 0.547779 0.195904
C241  C     C_R   0.799215 0.915658 0.009238 0.315822
C242  C     C_R   0.219789 0.082982 0.020021 0.341799
C243  C     C_R   0.214782 0.918430 0.011906 0.308845
C244  C     C_R   0.797960 0.083867 0.008521 0.327813
C245  C     C_R   0.269560 0.416103 0.028004 0.312949
C246  C     C_R   0.699184 0.584534 0.999288 0.326059
C247  C     C_R   0.741588 0.416668 0.026844 0.324880
C248  C     C_R   0.271053 0.583726 0.027166 0.313567
C249  C     C_R   0.298592 0.915841 0.509007 0.314844
C250  C     C_R   0.701419 0.084056 0.507953 0.316297
C251  C     C_R   0.703011 0.916475 0.506069 0.318658
C252  C     C_R   0.298914 0.084054 0.507637 0.317331
C253  C     C_R   0.800287 0.415480 0.499950 0.325444
C254  C     C_R   0.202566 0.583868 0.500467 0.328507
C255  C     C_R   0.240917 0.415793 0.529213 0.325755
C256  C     C_R   0.763256 0.583795 0.527406 0.329170
C257  C     C_R   0.761199 0.932685 0.993175 0.031916
C258  C     C_R   0.259398 0.067375 0.004082 0.014793
C259  C     C_R   0.254225 0.933532 0.994292 0.022046
C260  C     C_R   0.761112 0.067002 0.991224 0.014016
C261  C     C_R   0.239138 0.432864 0.006615 0.032663
C262  C     C_R   0.744671 0.567290 0.993861 0.031602
C263  C     C_R   0.750121 0.432875 0.998547 0.028746
C264  C     C_R   0.240617 0.567022 0.005707 0.030096
C265  C     C_R   0.259588 0.932869 0.493781 0.031494
C266  C     C_R   0.742199 0.067215 0.494364 0.031356
C267  C     C_R   0.744552 0.933120 0.492840 0.017797
C268  C     C_R   0.259197 0.067087 0.493028 0.023046
C269  C     C_R   0.754497 0.432675 0.495184 0.031614
C270  C     C_R   0.249363 0.567199 0.497980 0.030075
C271  C     C_R   0.253567 0.432806 0.502022 0.028821
C272  C     C_R   0.750776 0.567174 0.499947 0.026771
C273  C     C_R   0.718873 0.916849 0.980872 -0.122889
C274  C     C_R   0.298283 0.084848 0.990034 -0.119481
C275  C     C_R   0.290473 0.914931 0.978015 -0.138785
C276  C     C_R   0.720594 0.083444 0.977572 -0.133406
C277  C     C_R   0.213867 0.416746 0.982863 -0.116195
C278  C     C_R   0.791373 0.583438 0.991866 -0.102853
C279  C     C_R   0.755908 0.415660 0.971145 -0.108389
C280  C     C_R   0.215262 0.583251 0.982043 -0.118945
C281  C     C_R   0.217103 0.916839 0.481924 -0.122813
C282  C     C_R   0.785754 0.083317 0.484141 -0.124206
C283  C     C_R   0.788056 0.916605 0.483278 -0.138022
C284  C     C_R   0.216250 0.083204 0.481961 -0.133532
C285  C     C_R   0.707894 0.416396 0.493342 -0.105206
C286  C     C_R   0.295508 0.584010 0.497580 -0.103992
C287  C     C_R   0.262003 0.416473 0.474321 -0.101578
C288  C     C_R   0.741442 0.584028 0.472631 -0.102633
H81   H     H_    0.688123 0.929316 0.969725 0.188541
H82   H     H_    0.330854 0.073624 0.979440 0.186298
H83   H     H_    0.323090 0.924408 0.964716 0.205312
H84   H     H_    0.690210 0.071574 0.965577 0.201425
H85   H     H_    0.192016 0.428885 0.965425 0.195046
H86   H     H_    0.827283 0.571332 0.989674 0.194894
H87   H     H_    0.758997 0.426924 0.948852 0.192635
H88   H     H_    0.193520 0.571110 0.964551 0.194840
H89   H     H_    0.185547 0.929135 0.471484 0.189691
H90   H     H_    0.818380 0.071048 0.474931 0.185893
H91   H     H_    0.821726 0.928493 0.474803 0.197506
H92   H     H_    0.184000 0.070993 0.472310 0.195653
H93   H     H_    0.671796 0.428370 0.491861 0.194222
H94   H     H_    0.332043 0.572380 0.497755 0.192276
H95   H     H_    0.268127 0.428455 0.452630 0.193976
H96   H     H_    0.735960 0.572505 0.450674 0.194252
C289  C     C_R   0.715379 0.884843 0.982845 -0.155294
C290  C     C_R   0.294829 0.116803 0.988410 -0.146886
C291  C     C_R   0.287837 0.882967 0.979459 -0.163057
C292  C     C_R   0.717348 0.115482 0.980054 -0.162051
C293  C     C_R   0.217006 0.384672 0.980838 -0.155990
C294  C     C_R   0.792879 0.615530 0.993045 -0.155244
C295  C     C_R   0.757554 0.383563 0.971763 -0.155144
C296  C     C_R   0.217833 0.615314 0.980350 -0.155206
C297  C     C_R   0.214315 0.884782 0.483520 -0.155883
C298  C     C_R   0.788004 0.115355 0.485616 -0.153671
C299  C     C_R   0.789659 0.884401 0.485429 -0.158676
C300  C     C_R   0.213456 0.115256 0.483942 -0.158412
C301  C     C_R   0.706693 0.384334 0.493882 -0.156100
C302  C     C_R   0.295558 0.616175 0.497243 -0.155103
C303  C     C_R   0.262494 0.384356 0.473815 -0.154914
C304  C     C_R   0.739363 0.616110 0.472860 -0.154636
C305  C     C_R   0.752728 0.867979 0.998665 -0.076622
C306  C     C_R   0.253770 0.132227 0.002262 -0.075667
C307  C     C_R   0.250596 0.868151 0.998319 -0.072441
C308  C     C_R   0.753104 0.131958 0.997613 -0.079009
C309  C     C_R   0.247324 0.368038 0.001722 -0.080071
C310  C     C_R   0.748391 0.632238 0.998917 -0.067837
C311  C     C_R   0.749228 0.367744 0.999502 -0.068832
C312  C     C_R   0.248023 0.631899 0.001332 -0.080129
C313  C     C_R   0.252419 0.867989 0.498725 -0.076813
C314  C     C_R   0.748039 0.132050 0.499056 -0.074586
C315  C     C_R   0.748923 0.868137 0.498503 -0.073751
C316  C     C_R   0.252392 0.131988 0.498482 -0.074603
C317  C     C_R   0.751436 0.367668 0.499078 -0.066380
C318  C     C_R   0.249732 0.632292 0.499887 -0.062308
C319  C     C_R   0.250388 0.367736 0.500548 -0.072210
C320  C     C_R   0.750659 0.632302 0.499938 -0.072099
C321  C     C_R   0.751352 0.982774 0.963036 0.238115
C322  C     C_R   0.269891 0.019215 0.971608 0.246983
C323  C     C_R   0.272723 0.986716 0.969143 0.240296
C324  C     C_R   0.749779 0.015483 0.962617 0.234309
C325  C     C_R   0.190472 0.483808 0.002990 0.231655
C326  C     C_R   0.779026 0.516051 0.973248 0.217032
C327  C     C_R   0.784064 0.483704 0.976778 0.221751
C328  C     C_R   0.190964 0.516363 0.002760 0.231530
C329  C     C_R   0.245917 0.983467 0.464799 0.232008
C330  C     C_R   0.758319 0.017133 0.465367 0.235741
C331  C     C_R   0.761078 0.984495 0.465321 0.235825
C332  C     C_R   0.244806 0.016084 0.464818 0.231107
C333  C     C_R   0.718639 0.484145 0.475958 0.216300
C334  C     C_R   0.287345 0.516104 0.479752 0.218198
C335  C     C_R   0.291678 0.483703 0.483245 0.219547
C336  C     C_R   0.713841 0.516421 0.479943 0.218698
C337  C     C_R   0.761576 0.032449 0.989890 -0.059534
C338  C     C_R   0.260887 0.967943 0.995424 -0.050419
C339  C     C_R   0.260147 0.033222 0.000637 -0.061136
C340  C     C_R   0.762722 0.966965 0.990940 -0.037599
C341  C     C_R   0.237851 0.532584 0.006189 -0.034135
C342  C     C_R   0.750294 0.467363 0.996703 -0.041568
C343  C     C_R   0.745221 0.532733 0.992828 -0.038508
C344  C     C_R   0.236980 0.467217 0.006871 -0.034463
C345  C     C_R   0.259535 0.032661 0.491686 -0.044577
C346  C     C_R   0.745047 0.967519 0.491758 -0.052121
C347  C     C_R   0.741944 0.032919 0.492370 -0.037989
C348  C     C_R   0.260358 0.967256 0.492013 -0.038144
C349  C     C_R   0.749571 0.532631 0.498689 -0.046017
C350  C     C_R   0.255415 0.467337 0.501472 -0.042826
C351  C     C_R   0.251408 0.532698 0.497906 -0.042401
C352  C     C_R   0.753535 0.467241 0.494654 -0.039999
C353  C     C_R   0.771131 0.016070 0.017355 -0.127428
C354  C     C_R   0.254766 0.982526 0.024249 -0.118784
C355  C     C_R   0.254725 0.014537 0.026851 -0.126763
C356  C     C_R   0.771593 0.984030 0.017912 -0.123437
C357  C     C_R   0.283328 0.515878 0.008478 -0.119921
C358  C     C_R   0.714255 0.484153 0.013794 -0.110624
C359  C     C_R   0.714459 0.516168 0.013631 -0.102709
C360  C     C_R   0.282923 0.483752 0.008917 -0.121449
C361  C     C_R   0.272338 0.016142 0.518551 -0.115797
C362  C     C_R   0.730196 0.983760 0.518436 -0.116135
C363  C     C_R   0.729026 0.015814 0.518766 -0.120024
C364  C     C_R   0.272385 0.984074 0.518769 -0.120569
C365  C     C_R   0.786417 0.515580 0.514879 -0.106394
C366  C     C_R   0.218335 0.484178 0.517670 -0.104095
C367  C     C_R   0.219048 0.516213 0.517811 -0.104794
C368  C     C_R   0.785318 0.483612 0.514995 -0.105812
H97   H     H_    0.776728 0.028080 0.039047 0.202675
H98   H     H_    0.250071 0.968967 0.045211 0.188065
H99   H     H_    0.250816 0.024556 0.049646 0.206619
H100  H     H_    0.778089 0.972551 0.039813 0.189216
H101  H     H_    0.319802 0.527493 0.009849 0.186027
H102  H     H_    0.686137 0.472601 0.028067 0.199082
H103  H     H_    0.690081 0.527857 0.030078 0.201270
H104  H     H_    0.319029 0.471689 0.010554 0.185194
H105  H     H_    0.281690 0.028082 0.539851 0.190142
H106  H     H_    0.719976 0.971496 0.539402 0.189383
H107  H     H_    0.718281 0.027259 0.540091 0.187258
H108  H     H_    0.281448 0.972403 0.540252 0.188857
H109  H     H_    0.816336 0.526761 0.527980 0.207554
H110  H     H_    0.188357 0.472761 0.530592 0.203224
H111  H     H_    0.193178 0.527959 0.533351 0.201920
H112  H     H_    0.810260 0.471799 0.531049 0.203557
H113  H     H_    0.806703 0.285949 0.622039 0.211976
H114  H     H_    0.195673 0.712722 0.622146 0.212118
H115  H     H_    0.192628 0.285494 0.622122 0.211554
H116  H     H_    0.807030 0.714208 0.622105 0.211434
H117  H     H_    0.309279 0.784560 0.621955 0.211606
H118  H     H_    0.693255 0.214025 0.622108 0.212118
H119  H     H_    0.695934 0.787433 0.621973 0.211446
H120  H     H_    0.309795 0.215772 0.622033 0.210477
H121  H     H_    0.307511 0.285458 0.122090 0.212136
H122  H     H_    0.690146 0.715921 0.122111 0.212100
H123  H     H_    0.692458 0.285452 0.122095 0.211544
H124  H     H_    0.308412 0.714913 0.122205 0.204427
H125  H     H_    0.809790 0.784069 0.122044 0.212237
H126  H     H_    0.196223 0.212306 0.121980 0.212448
H127  H     H_    0.195695 0.787355 0.121996 0.212548
H128  H     H_    0.803581 0.212240 0.122071 0.211416
N1    N     N_R   0.843999 0.930234 0.021770 0.202905
O105  O     O_R   0.869632 0.950166 0.005386 -0.288277
O106  O     O_R   0.862575 0.920942 0.048136 -0.328686
N2    N     N_R   0.182056 0.066624 0.037463 0.198226
O107  O     O_R   0.137884 0.060256 0.024381 -0.274509
O108  O     O_R   0.186385 0.065850 0.067701 -0.340145
N3    N     N_R   0.174500 0.935529 0.026775 0.202868
O109  O     O_R   0.159789 0.927954 0.054716 -0.326217
O110  O     O_R   0.148480 0.955990 0.011179 -0.287728
N4    N     N_R   0.841232 0.069195 0.022412 0.201399
O111  O     O_R   0.844502 0.068376 0.052420 -0.341397
O112  O     O_R   0.882264 0.064912 0.005930 -0.281822
N5    N     N_R   0.295594 0.430977 0.053259 0.203959
O113  O     O_R   0.341388 0.422171 0.061058 -0.335922
O114  O     O_R   0.271824 0.451070 0.070376 -0.282662
N6    N     N_R   0.649758 0.570271 0.000746 0.189798
O115  O     O_R   0.634475 0.552059 0.978643 -0.333341
O116  O     O_R   0.618112 0.577764 0.022714 -0.345286
N7    N     N_R   0.735495 0.432240 0.055912 0.193193
O117  O     O_R   0.768918 0.452751 0.064768 -0.320677
O118  O     O_R   0.698785 0.424251 0.074605 -0.334462
N8    N     N_R   0.296840 0.568743 0.052478 0.204118
O119  O     O_R   0.273158 0.548207 0.069196 -0.284376
O120  O     O_R   0.341917 0.578167 0.061077 -0.329952
N9    N     N_R   0.343774 0.930448 0.520911 0.200945
O121  O     O_R   0.368897 0.950270 0.504122 -0.280511
O122  O     O_R   0.362929 0.921465 0.547239 -0.330888
N10   N     N_R   0.655198 0.069225 0.518100 0.203047
O123  O     O_R   0.632988 0.048657 0.500786 -0.280346
O124  O     O_R   0.631864 0.079030 0.542841 -0.328172
N11   N     N_R   0.657165 0.931570 0.516284 0.201025
O125  O     O_R   0.636878 0.923937 0.542695 -0.330402
O126  O     O_R   0.632245 0.949760 0.497634 -0.280919
N12   N     N_R   0.344191 0.069296 0.519119 0.200644
O127  O     O_R   0.362325 0.076953 0.546114 -0.331109
O128  O     O_R   0.369939 0.050431 0.501661 -0.280420
N13   N     N_R   0.849614 0.429839 0.501633 0.190186
O129  O     O_R   0.864508 0.449006 0.480298 -0.327021
O130  O     O_R   0.881111 0.422138 0.523680 -0.345249
N14   N     N_R   0.153730 0.568772 0.501152 0.191284
O131  O     O_R   0.141657 0.548588 0.479950 -0.327489
O132  O     O_R   0.120296 0.576330 0.522014 -0.345336
N15   N     N_R   0.231297 0.430376 0.558413 0.190124
O133  O     O_R   0.265835 0.448287 0.570746 -0.324423
O134  O     O_R   0.190153 0.423536 0.573935 -0.335664
N16   N     N_R   0.775599 0.568783 0.555999 0.187866
O135  O     O_R   0.742002 0.551247 0.569689 -0.323551
O136  O     O_R   0.818882 0.574829 0.569663 -0.336492
H129  H     H_    0.683156 0.873314 0.972205 0.183172
H130  H     H_    0.324413 0.129437 0.976272 0.183469
H131  H     H_    0.316250 0.869830 0.965974 0.187059
H132  H     H_    0.686230 0.127337 0.968539 0.186534
H133  H     H_    0.196064 0.372984 0.962653 0.187648
H134  H     H_    0.829164 0.627251 0.990163 0.176684
H135  H     H_    0.763910 0.371059 0.950378 0.176841
H136  H     H_    0.196404 0.627096 0.962415 0.187323
H137  H     H_    0.181916 0.873155 0.473176 0.183128
H138  H     H_    0.821370 0.127091 0.476569 0.180805
H139  H     H_    0.823473 0.872413 0.477213 0.180993
H140  H     H_    0.180301 0.126926 0.474543 0.182728
H141  H     H_    0.670423 0.372528 0.491164 0.175979
H142  H     H_    0.331654 0.628309 0.495836 0.172638
H143  H     H_    0.271032 0.372530 0.452336 0.180328
H144  H     H_    0.730351 0.628289 0.451621 0.180339
N17   N     N_R   0.742322 0.965903 0.934901 0.226224
O137  O     O_R   0.698457 0.968003 0.920892 -0.290589
O138  O     O_R   0.775816 0.945960 0.925095 -0.303303
N18   N     N_R   0.276766 0.037649 0.944196 0.226037
O139  O     O_R   0.319473 0.036399 0.928731 -0.282431
O140  O     O_R   0.241310 0.056993 0.935573 -0.308524
N19   N     N_R   0.290575 0.973859 0.940438 0.205599
O141  O     O_R   0.260396 0.974227 0.916003 -0.266441
O142  O     O_R   0.340751 0.973074 0.936155 -0.327559
N20   N     N_R   0.737085 0.030898 0.934248 0.215464
O143  O     O_R   0.773292 0.038429 0.915012 -0.278374
O144  O     O_R   0.689766 0.031124 0.924845 -0.314609
N21   N     N_R   0.142893 0.467636 0.000139 0.222771
O145  O     O_R   0.129158 0.447666 0.021244 -0.307976
O146  O     O_R   0.117553 0.469059 0.974425 -0.296504
N22   N     N_R   0.808071 0.531633 0.949693 0.220685
O147  O     O_R   0.857581 0.528873 0.948631 -0.279814
O148  O     O_R   0.785062 0.549096 0.929513 -0.307569
N23   N     N_R   0.823852 0.467752 0.960367 0.223666
O149  O     O_R   0.826462 0.469311 0.930319 -0.288258
O150  O     O_R   0.856808 0.450999 0.975436 -0.300318
N24   N     N_R   0.143637 0.532926 0.000151 0.221458
O151  O     O_R   0.117980 0.531970 0.974261 -0.299190
O152  O     O_R   0.129271 0.551808 0.021825 -0.310360
N25   N     N_R   0.233928 0.967114 0.436788 0.222805
O153  O     O_R   0.188643 0.969424 0.424543 -0.294367
O154  O     O_R   0.266790 0.947923 0.424910 -0.299355
N26   N     N_R   0.770972 0.033962 0.437670 0.225879
O155  O     O_R   0.816249 0.031481 0.425455 -0.288169
O156  O     O_R   0.738697 0.053680 0.426048 -0.299610
N27   N     N_R   0.778910 0.969005 0.438062 0.218450
O157  O     O_R   0.746825 0.962760 0.415913 -0.271345
O158  O     O_R   0.827807 0.968374 0.432296 -0.318250
N28   N     N_R   0.230581 0.032072 0.437034 0.220797
O159  O     O_R   0.265642 0.043975 0.419297 -0.281149
O160  O     O_R   0.183070 0.032415 0.428084 -0.309831
N29   N     N_R   0.688352 0.468886 0.452803 0.220841
O161  O     O_R   0.638758 0.471320 0.452998 -0.281787
O162  O     O_R   0.710316 0.451966 0.431770 -0.304029
N30   N     N_R   0.319255 0.531703 0.457629 0.221956
O163  O     O_R   0.368766 0.529103 0.458993 -0.282517
O164  O     O_R   0.298865 0.549093 0.436369 -0.303679
N31   N     N_R   0.333007 0.467688 0.468298 0.223223
O165  O     O_R   0.339562 0.470002 0.438551 -0.283206
O166  O     O_R   0.362959 0.449814 0.484361 -0.313164
N32   N     N_R   0.672250 0.532444 0.465280 0.222867
O167  O     O_R   0.666292 0.531145 0.435410 -0.283990
O168  O     O_R   0.641087 0.549082 0.481783 -0.311904
N33   N     N_R   0.813102 0.293187 0.682525 0.213331
O169  O     O_R   0.857865 0.300393 0.671529 -0.331150
O170  O     O_R   0.794478 0.309300 0.705316 -0.311310
N34   N     N_R   0.193635 0.703151 0.682464 0.213318
O171  O     O_R   0.148466 0.695825 0.672198 -0.331547
O172  O     O_R   0.213907 0.686601 0.704434 -0.312875
N35   N     N_R   0.187611 0.293383 0.682560 0.213762
O173  O     O_R   0.206805 0.310764 0.704217 -0.306911
O174  O     O_R   0.141549 0.298934 0.672651 -0.330088
N36   N     N_R   0.816008 0.708557 0.682577 0.211828
O175  O     O_R   0.796932 0.692146 0.705052 -0.306156
O176  O     O_R   0.860999 0.701564 0.671808 -0.330534
N37   N     N_R   0.319723 0.789629 0.682396 0.211587
O177  O     O_R   0.364465 0.796298 0.671031 -0.330476
O178  O     O_R   0.302274 0.805809 0.705474 -0.310164
N38   N     N_R   0.686844 0.206777 0.682616 0.213310
O179  O     O_R   0.642104 0.199547 0.671621 -0.328037
O180  O     O_R   0.705442 0.190674 0.705443 -0.310584
N39   N     N_R   0.692545 0.796293 0.682240 0.211257
O181  O     O_R   0.713253 0.813615 0.703422 -0.310117
O182  O     O_R   0.646552 0.802612 0.672662 -0.328921
N40   N     N_R   0.318593 0.209854 0.682492 0.211115
O183  O     O_R   0.300916 0.192137 0.704375 -0.308754
O184  O     O_R   0.364978 0.205585 0.672463 -0.330631
N41   N     N_R   0.316988 0.290787 0.182606 0.214114
O185  O     O_R   0.361191 0.298594 0.171202 -0.325959
O186  O     O_R   0.298591 0.306441 0.205781 -0.304814
N42   N     N_R   0.682932 0.708974 0.182629 0.214203
O187  O     O_R   0.637722 0.703138 0.171508 -0.328289
O188  O     O_R   0.699838 0.692430 0.205622 -0.308550
N43   N     N_R   0.682292 0.290461 0.182568 0.212986
O189  O     O_R   0.700662 0.306604 0.205407 -0.303332
O190  O     O_R   0.637466 0.297429 0.171535 -0.327449
N44   N     N_R   0.318910 0.710581 0.182437 0.208919
O191  O     O_R   0.300782 0.684087 0.191903 -0.292232
O192  O     O_R   0.368182 0.714947 0.181494 -0.337727
N45   N     N_R   0.816978 0.791013 0.182542 0.214001
O193  O     O_R   0.862191 0.796854 0.171410 -0.328284
O194  O     O_R   0.800047 0.807548 0.205512 -0.309035
N46   N     N_R   0.193975 0.202692 0.182255 0.214080
O195  O     O_R   0.148936 0.195134 0.171946 -0.325420
O196  O     O_R   0.214505 0.186186 0.204168 -0.309746
N47   N     N_R   0.191982 0.795987 0.182439 0.214409
O197  O     O_R   0.211962 0.812430 0.204571 -0.305041
O198  O     O_R   0.146740 0.803111 0.172166 -0.326171
N48   N     N_R   0.805814 0.202808 0.182353 0.212524
O199  O     O_R   0.784697 0.185607 0.203535 -0.308773
O200  O     O_R   0.851692 0.196143 0.172809 -0.327169
H145  H     H_    0.668868 0.259045 0.778403 0.159041
H146  H     H_    0.337209 0.738706 0.778688 0.159144
H147  H     H_    0.332703 0.260360 0.778697 0.158526
H148  H     H_    0.672834 0.746909 0.778287 0.161010
H149  H     H_    0.174357 0.754632 0.778052 0.160736
H150  H     H_    0.831107 0.241000 0.778401 0.160612
H151  H     H_    0.836732 0.758385 0.778439 0.161633
H152  H     H_    0.170712 0.241465 0.778068 0.160409
H153  H     H_    0.174047 0.253785 0.278108 0.163301
H154  H     H_    0.830038 0.737902 0.278393 0.159767
H155  H     H_    0.824570 0.252795 0.278635 0.160104
H156  H     H_    0.170066 0.743567 0.277278 0.161496
H157  H     H_    0.670001 0.762102 0.278417 0.161117
H158  H     H_    0.337249 0.238908 0.278430 0.163657
H159  H     H_    0.333214 0.758224 0.279372 0.163183
H160  H     H_    0.661150 0.239150 0.278159 0.162108
N49   N     N_R   0.812804 0.293343 0.817294 0.212785
O201  O     O_R   0.793751 0.309796 0.794860 -0.311859
O202  O     O_R   0.858007 0.300151 0.827863 -0.327445
N50   N     N_R   0.193009 0.703511 0.817554 0.211959
O203  O     O_R   0.213489 0.686613 0.795949 -0.314799
O204  O     O_R   0.147350 0.696742 0.827427 -0.331331
N51   N     N_R   0.187986 0.293797 0.817318 0.212655
O205  O     O_R   0.143108 0.300928 0.828169 -0.329868
O206  O     O_R   0.206838 0.310034 0.794647 -0.314455
N52   N     N_R   0.814281 0.707575 0.817397 0.213121
O207  O     O_R   0.858478 0.699453 0.828565 -0.326167
O208  O     O_R   0.794973 0.691856 0.794543 -0.307580
N53   N     N_R   0.317224 0.790968 0.817277 0.213525
O209  O     O_R   0.299548 0.806269 0.793646 -0.308920
O210  O     O_R   0.361104 0.798952 0.828991 -0.331459
N54   N     N_R   0.687187 0.206721 0.817390 0.214197
O211  O     O_R   0.706255 0.190247 0.794996 -0.306053
O212  O     O_R   0.641952 0.199954 0.827954 -0.329891
N55   N     N_R   0.694203 0.797070 0.817553 0.214104
O213  O     O_R   0.649290 0.804963 0.827806 -0.327945
O214  O     O_R   0.715184 0.813401 0.795646 -0.306957
N56   N     N_R   0.314384 0.207526 0.817383 0.215213
O215  O     O_R   0.358895 0.200159 0.828620 -0.328750
O216  O     O_R   0.296126 0.191623 0.794341 -0.307036
N57   N     N_R   0.319927 0.289075 0.317306 0.210471
O217  O     O_R   0.302387 0.305871 0.294676 -0.306463
O218  O     O_R   0.365296 0.294874 0.328208 -0.326648
N58   N     N_R   0.683059 0.709062 0.317370 0.213332
O219  O     O_R   0.700471 0.691852 0.295037 -0.308429
O220  O     O_R   0.637119 0.704111 0.327827 -0.325945
N59   N     N_R   0.682367 0.290682 0.317302 0.213608
O221  O     O_R   0.638158 0.298479 0.328684 -0.321755
O222  O     O_R   0.700734 0.306268 0.294039 -0.305427
N60   N     N_R   0.311480 0.705974 0.317400 0.215369
O223  O     O_R   0.355530 0.697698 0.328665 -0.320506
O224  O     O_R   0.292411 0.690477 0.294320 -0.312383
N61   N     N_R   0.817051 0.790940 0.317279 0.214397
O225  O     O_R   0.799693 0.808110 0.294878 -0.304665
O226  O     O_R   0.862943 0.795945 0.327771 -0.329117
N62   N     N_R   0.189786 0.204876 0.317788 0.211738
O227  O     O_R   0.209554 0.186400 0.297267 -0.302742
O228  O     O_R   0.142875 0.200459 0.326818 -0.331200
N63   N     N_R   0.189036 0.794322 0.317356 0.214176
O229  O     O_R   0.144217 0.801832 0.328036 -0.326052
O230  O     O_R   0.208788 0.810628 0.295018 -0.304559
N64   N     N_R   0.802386 0.201181 0.317675 0.216204
O231  O     O_R   0.846703 0.192439 0.328176 -0.325190
O232  O     O_R   0.781079 0.185332 0.295566 -0.306043

loop_
_geom_bond_atom_site_label_1
_geom_bond_atom_site_label_2
_geom_bond_distance
_ccdc_geom_bond_type
O99   C11   1.277453 A    
Zn29  O101  1.934852 S    
Zn4   O4    1.943541 S    
N13   O129  1.298935 A    
Zn10  O6    1.943234 S    
C299  H139  1.085710 S    
O98   C10   1.276576 A    
C54   C89   1.400172 A    
C121  C133  1.403315 A    
C58   C94   1.400202 A    
N20   O144  1.303388 A    
C275  H83   1.107175 S    
C123  C135  1.403033 A    
N30   O163  1.302012 A    
C98   H2    1.083828 S    
C35   C93   1.472436 S    
C273  H81   1.081945 S    
C12   C213  1.447525 S    
C167  H23   1.083776 S    
C61   C94   1.400489 A    
N25   O154  1.301518 A    
C293  H133  1.083444 S    
O55   C40   1.281870 A    
N23   O150  1.301173 A    
C172  C184  1.400257 A    
O56   C39   1.282470 A    
N60   O224  1.301396 A    
C292  C308  1.399981 A    
C47   C183  1.473646 S    
C226  C306  1.402597 A    
C259  C338  1.500142 S    
C100  H4    1.083401 S    
C149  C186  1.417631 A    
C146  C186  1.417326 A    
C231  H71   1.084967 S    
Zn12  O23   1.935494 S    
Zn24  O96   1.935038 S    
N24   O152  1.298814 A    
Zn1   O14   1.935679 S    
C194  H34   1.086549 S    
C304  H144  1.083647 S    
Zn28  O8    1.942958 S    
C265  C281  1.407134 A    
C302  C318  1.392376 A    
C235  C251  1.399603 A    
Zn3   O16   1.935246 S    
C73   C85   1.417321 A    
O16   C8    1.274010 A    
Zn7   O4    1.942615 S    
C72   N40   1.437606 S    
C233  C249  1.400853 A    
C206  H46   1.086548 S    
C154  N58   1.437703 S    
O60   C44   1.284472 A    
C352  C368  1.402356 A    
C84   C140  1.477787 S    
C175  H31   1.083685 S    
C176  C183  1.400198 A    
C289  H129  1.082373 S    
C54   C70   1.398735 A    
C51   H115  1.083459 S    
C103  C140  1.404690 A    
O50   C38   1.282278 A    
C50   H114  1.083739 S    
C87   C143  1.477752 S    
C167  C180  1.399869 A    
N52   O208  1.301350 A    
C88   C144  1.477260 S    
Zn11  O83   1.935350 S    
N12   O128  1.300230 A    
Zn26  O98   1.934604 S    
C170  C182  1.400667 A    
C64   H128  1.083729 S    
N53   O210  1.301664 A    
C157  C173  1.398549 A    
N55   O213  1.301815 A    
Zn2   O13   1.935647 S    
C251  C267  1.423230 A    
N45   O193  1.301727 A    
C99   C115  1.393888 A    
C344  C360  1.401779 A    
C146  C162  1.398311 A    
C249  C265  1.420418 A    
C226  C242  1.398917 A    
C176  H32   1.083727 S    
C102  C137  1.403506 A    
N38   O180  1.301435 A    
C237  H77   1.084368 S    
Zn29  O37   1.934570 S    
C4    C221  1.447524 S    
N61   O226  1.301898 A    
C217  H57   1.080089 S    
C271  C287  1.407603 A    
O14   C6    1.274341 A    
C104  H8    1.083616 S    
C289  C305  1.398188 A    
N19   O141  1.318389 A    
C348  C364  1.402055 A    
N43   O189  1.301294 A    
C202  H42   1.086550 S    
C292  H132  1.083467 S    
Zn10  O82   1.935039 S    
N16   O136  1.303928 A    
C366  C367  1.386498 A    
C108  C144  1.404346 A    
C203  C219  1.341047 D    
C224  H64   1.079988 S    
C340  C356  1.399257 A    
C207  C223  1.341052 D    
C151  C188  1.418075 A    
C33   C95   1.472899 S    
C208  C224  1.340912 D    
Zn8   O3    1.943541 S    
C135  C191  1.477009 S    
C264  C341  1.492232 S    
Zn12  O8    1.943541 S    
C70   N38   1.438601 S    
C220  H60   1.079983 S    
C32   C314  1.468913 S    
N40   O183  1.301282 A    
C221  H61   1.080092 S    
C229  H69   1.084762 S    
C193  C195  1.471061 S    
C77   C86   1.417452 A    
C213  H53   1.080093 S    
C160  N64   1.438943 S    
N63   O229  1.301779 A    
C219  H59   1.079889 S    
C324  C337  1.422502 A    
C75   C87   1.417135 A    
C86   C142  1.475566 S    
C20   C310  1.463899 S    
C330  C331  1.414355 A    
C193  C209  1.340681 D    
N46   O196  1.301547 A    
C283  H91   1.083628 S    
C365  H109  1.080619 S    
N32   O168  1.301105 A    
C355  H99   1.080992 S    
C162  C178  1.400290 A    
C267  C346  1.489422 S    
O86   C30   1.282107 A    
N1    O105  1.301136 A    
N9    O122  1.301955 A    
C153  C169  1.398789 A    
O79   C23   1.283393 A    
C82   C138  1.477195 S    
C351  C367  1.401190 A    
C61   H125  1.083604 S    
C236  C316  1.400887 A    
C154  C190  1.416508 A    
C15   C210  1.447824 S    
C212  H52   1.079983 S    
C103  H7    1.083854 S    
N5    O113  1.302090 A    
C353  C356  1.386857 A    
N8    O120  1.302317 A    
C120  H152  1.083767 S    
C117  H149  1.083670 S    
N3    O109  1.308032 A    
C62   C78   1.398499 A    
O87   C31   1.282936 A    
N50   O203  1.301643 A    
O88   C32   1.282493 A    
C202  C218  1.340878 D    
C357  C360  1.390490 A    
C297  H137  1.082533 S    
N43   O190  1.301776 A    
C326  C327  1.414222 A    
C156  C192  1.417647 A    
O27   C19   1.282174 A    
O80   C24   1.281201 A    
C260  C276  1.406614 A    
N62   O227  1.301550 A    
C255  N15   1.433105 S    
N7    O117  1.303632 A    
C287  C303  1.390181 A    
O23   C15   1.274888 A    
C227  H67   1.094272 S    
C40   C90   1.473006 S    
Zn23  O95   1.935007 S    
C332  N28   1.433962 S    
C30   C316  1.471717 S    
O96   C8    1.276862 A    
Zn6   O1    1.943234 S    
C243  C259  1.438620 A    
C29   C315  1.472735 S    
Zn3   O75   1.935350 S    
C354  H98   1.085351 S    
C205  C207  1.471056 S    
N4    O111  1.299330 A    
C128  C135  1.404143 A    
C225  H65   1.083144 S    
C294  H134  1.083492 S    
Zn19  O3    1.944433 S    
C267  C283  1.406701 A    
C280  C296  1.391029 A    
Zn22  O46   1.931440 S    
C358  H102  1.081853 S    
Zn7   O60   1.931079 S    
C149  C165  1.399478 A    
N34   O172  1.301597 A    
C201  C217  1.340679 D    
C225  C305  1.402075 A    
N11   O126  1.301308 A    
O83   C27   1.280127 A    
C288  C304  1.389522 A    
C232  H72   1.084143 S    
C238  C318  1.398390 A    
C151  N55   1.438309 S    
C60   C76   1.393762 A    
O72   C47   1.284128 A    
C125  H157  1.083833 S    
N26   O155  1.301505 A    
N22   O148  1.301069 A    
C362  C363  1.387636 A    
O33   C25   1.278403 A    
C276  C292  1.393383 A    
C299  C315  1.396118 A    
O10   C2    1.274340 A    
C353  H97   1.081780 S    
C272  C288  1.407912 A    
C155  C191  1.417243 A    
C111  H15   1.083067 S    
Zn11  O24   1.935246 S    
O49   C37   1.282508 A    
C112  H16   1.083714 S    
C126  H158  1.083874 S    
O73   C17   1.280200 A    
C347  C363  1.400027 A    
C74   C86   1.417640 A    
C126  C133  1.405418 A    
O15   C7    1.274881 A    
N15   O133  1.304556 A    
C284  H92   1.079614 S    
Zn16  O19   1.935494 S    
C231  C247  1.401659 A    
O77   C21   1.277667 A    
C240  C320  1.396787 A    
C327  C342  1.421204 A    
O22   C14   1.274345 A    
C235  H75   1.086541 S    
C239  C319  1.397818 A    
C304  C320  1.395581 A    
O101  C13   1.277428 A    
C301  H141  1.084240 S    
Zn28  O52   1.931526 S    
C50   C66   1.398885 A    
C79   N47   1.437459 S    
C295  H135  1.083750 S    
C278  H86   1.080372 S    
C63   C79   1.399780 A    
C16   C209  1.447529 S    
Zn28  O36   1.935469 S    
C148  C164  1.398332 A    
C243  N3    1.439671 S    
C69   N37   1.438245 S    
C6    C219  1.447707 S    
N27   O158  1.303925 A    
C165  H21   1.083408 S    
N17   O138  1.301489 A    
C170  H26   1.083550 S    
C244  C260  1.421796 A    
C161  H17   1.083613 S    
Zn32  O56   1.931526 S    
O91   C3    1.277464 A    
O94   C6    1.276568 A    
C228  C244  1.400387 A    
N41   O185  1.301615 A    
C357  H101  1.080301 S    
O44   C36   1.282532 A    
N56   O216  1.301380 A    
C42   C178  1.473287 S    
C74   N42   1.438852 S    
C73   N41   1.438331 S    
C108  C124  1.393465 A    
C60   C96   1.401325 A    
O93   C5    1.277435 A    
N57   O218  1.301801 A    
C34   C96   1.471876 S    
Zn29  O6    1.944743 S    
C59   C95   1.400702 A    
C100  C140  1.403249 A    
C136  C192  1.476561 S    
C235  C315  1.398017 A    
C122  C134  1.403504 A    
Zn3   O3    1.942615 S    
C31   C313  1.470862 S    
O67   C47   1.285042 A    
C156  C172  1.398509 A    
C114  C130  1.404462 A    
C72   C83   1.417154 A    
Zn31  O39   1.934890 S    
C76   N44   1.431605 S    
O20   C12   1.274009 A    
O39   C31   1.280897 A    
Zn17  O41   1.930974 S    
O40   C32   1.280483 A    
C159  C175  1.398941 A    
C198  H38   1.086548 S    
C303  C319  1.396036 A    
C121  H153  1.083458 S    
C118  H150  1.083733 S    
C342  C358  1.401332 A    
C57   C73   1.398806 A    
C368  H112  1.080781 S    
Zn18  O26   1.935199 S    
O21   C13   1.274916 A    
O53   C38   1.282718 A    
C214  H54   1.079967 S    
C70   C81   1.417581 A    
C207  H47   1.086543 S    
C296  C312  1.400598 A    
Zn15  O8    1.942615 S    
N55   O214  1.301739 A    
N1    O106  1.301723 A    
C321  N17   1.437783 S    
Zn26  O34   1.935199 S    
N47   O197  1.301764 A    
N42   O188  1.301433 A    
C110  H14   1.083988 S    
C37   C91   1.472486 S    
O85   C29   1.281071 A    
N59   O222  1.301473 A    
N46   O195  1.301818 A    
C58   H122  1.083656 S    
O82   C26   1.280933 A    
Zn19  O27   1.934890 S    
C57   H121  1.083580 S    
C111  C144  1.403106 A    
C52   C68   1.398551 A    
C239  H79   1.085066 S    
C112  C143  1.404858 A    
C261  C277  1.406239 A    
N18   O139  1.303124 A    
Zn28  O100  1.935038 S    
C228  C308  1.398592 A    
Zn6   O78   1.935039 S    
C157  N61   1.437638 S    
Zn18  O90   1.934604 S    
N29   O161  1.302248 A    
N5    O114  1.300443 A    
C58   C74   1.398864 A    
C51   C91   1.400438 A    
C326  N22   1.437156 S    
C268  C284  1.406647 A    
C102  H6    1.083763 S    
C115  H147  1.083752 S    
C109  C142  1.403616 A    
C49   C89   1.400430 A    
C134  C190  1.475420 S    
C28   C318  1.463046 S    
N25   O153  1.301755 A    
C78   N46   1.438521 S    
C298  C314  1.397903 A    
C55   C71   1.397644 A    
C80   N48   1.437411 S    
N33   O170  1.301588 A    
Zn13  O6    1.941751 S    
N44   O192  1.303794 A    
C130  C186  1.476697 S    
C197  C213  1.340672 D    
N63   O230  1.301608 A    
C5    C220  1.447816 S    
C198  C214  1.340876 D    
C109  H13   1.083756 S    
Zn23  O4    1.944433 S    
C264  C280  1.406261 A    
C199  C215  1.341046 D    
C257  C340  1.487097 S    
N48   O200  1.301952 A    
O81   C25   1.280988 A    
Zn20  O28   1.935469 S    
C329  N25   1.436832 S    
C174  H30   1.083769 S    
C1    C224  1.447811 S    
C107  C123  1.391658 A    
C349  C365  1.401207 A    
C338  C354  1.405476 A    
N2    O108  1.311342 A    
C236  H76   1.083283 S    
C76   C88   1.412709 A    
C261  C344  1.487857 S    
C150  N54   1.437891 S    
C262  C343  1.496280 S    
O41   C33   1.282558 A    
C145  N49   1.437778 S    
C160  C191  1.417803 A    
C52   C92   1.400205 A    
C54   H118  1.083658 S    
C322  C339  1.416303 A    
C201  H41   1.086590 S    
C229  C245  1.401353 A    
C295  C311  1.396339 A    
Zn9   O22   1.935679 S    
C99   H3    1.083567 S    
C303  H143  1.083245 S    
C75   N43   1.437489 S    
C53   H117  1.083585 S    
C66   C82   1.418052 A    
C22   C308  1.473993 S    
C302  H142  1.082266 S    
C300  C316  1.399109 A    
C55   H119  1.083802 S    
N7    O118  1.301235 A    
C275  C291  1.386340 A    
C83   C139  1.476013 S    
C328  C341  1.421229 A    
C244  N4    1.430349 S    
C228  H68   1.084091 S    
C127  H159  1.083758 S    
C245  C261  1.418781 A    
C256  C272  1.425518 A    
Zn15  O87   1.935350 S    
O51   C39   1.282287 A    
C97   C137  1.403612 A    
O38   C30   1.282335 A    
C111  C127  1.393699 A    
O75   C19   1.282882 A    
C44   C180  1.472185 S    
C335  C350  1.421299 A    
Zn27  O35   1.934890 S    
Zn2   O74   1.935039 S    
Zn13  O18   1.935679 S    
O35   C27   1.279329 A    
O63   C44   1.283950 A    
Zn26  O50   1.931440 S    
C336  C349  1.422270 A    
C258  C339  1.485774 S    
Zn1   O73   1.935620 S    
C238  C254  1.398871 A    
C109  C125  1.393224 A    
C168  C179  1.400481 A    
N37   O177  1.301726 A    
C147  N51   1.438782 S    
C287  H95   1.082224 S    
Zn12  O84   1.934719 S    
C271  C350  1.495343 S    
C350  C366  1.401309 A    
Zn25  O49   1.930974 S    
Zn5   O10   1.935679 S    
O58   C42   1.283873 A    
C291  H131  1.102816 S    
C55   C92   1.399915 A    
C329  C348  1.419646 A    
C215  H55   1.079893 S    
C234  C314  1.401456 A    
C210  H50   1.079966 S    
C272  C349  1.496278 S    
C293  C309  1.400334 A    
C11   C214  1.447821 S    
C262  C278  1.410241 A    
N35   O173  1.301630 A    
Zn8   O11   1.935494 S    
C57   C93   1.400551 A    
Zn15  O68   1.931079 S    
C205  C221  1.340674 D    
C79   C88   1.417919 A    
C274  H82   1.082842 S    
C13   C212  1.447815 S    
N9    O121  1.300782 A    
O95   C7    1.277453 A    
C62   C93   1.399776 A    
C97   H1    1.083713 S    
N39   O181  1.301459 A    
N51   O206  1.301631 A    
N36   O175  1.301567 A    
N61   O225  1.301449 A    
C288  H96   1.081438 S    
C171  H27   1.083564 S    
Zn4   O76   1.934719 S    
C131  C187  1.475490 S    
C71   C84   1.417820 A    
C281  H89   1.081011 S    
C68   C84   1.417581 A    
C65   N33   1.438744 S    
C265  C348  1.490170 S    
C101  H5    1.083646 S    
N15   O134  1.302126 A    
C147  C187  1.417584 A    
C62   H126  1.083825 S    
C156  N60   1.438897 S    
Zn8   O80   1.934719 S    
C105  C141  1.402646 A    
C274  C290  1.387639 A    
C163  H19   1.083666 S    
C148  N52   1.438122 S    
C230  C310  1.397653 A    
C51   C67   1.397813 A    
Zn31  O8    1.944433 S    
C234  C250  1.402350 A    
O78   C22   1.281056 A    
Zn32  O7    1.942958 S    
C105  C121  1.391024 A    
N21   O146  1.295113 A    
Zn10  O21   1.935647 S    
C38   C92   1.471795 S    
N40   O184  1.302124 A    
O26   C18   1.282437 A    
C323  C338  1.429105 A    
O104  C16   1.276858 A    
C334  C335  1.414803 A    
C18   C312  1.473635 S    
C56   C91   1.401059 A    
C334  C351  1.419994 A    
C53   C69   1.398736 A    
O45   C34   1.282101 A    
C240  H80   1.084554 S    
C238  H78   1.086851 S    
N36   O176  1.301808 A    
N11   O125  1.300422 A    
O30   C22   1.284826 A    
Zn11  O72   1.931079 S    
O31   C23   1.280446 A    
O24   C16   1.274012 A    
C114  H146  1.083794 S    
Zn21  O29   1.934570 S    
C270  C286  1.409692 A    
C269  C285  1.410497 A    
O18   C10   1.274338 A    
Zn23  O31   1.934890 S    
N20   O143  1.301233 A    
C285  H93   1.079583 S    
C14   C211  1.447710 S    
Zn24  O32   1.935469 S    
C363  H107  1.083326 S    
C270  C351  1.494072 S    
O13   C5    1.274911 A    
C8    C217  1.447535 S    
C362  H106  1.082649 S    
Zn17  O1    1.944743 S    
C276  H84   1.079296 S    
C81   C137  1.475795 S    
Zn30  O38   1.935199 S    
C240  C256  1.400402 A    
N50   O204  1.301832 A    
C158  N62   1.436968 S    
C149  N53   1.438738 S    
C365  C368  1.383757 A    
C239  C255  1.400435 A    
C201  C203  1.471056 S    
C202  C204  1.471210 S    
N60   O223  1.301668 A    
Zn1   O1    1.941751 S    
O71   C48   1.284362 A    
C364  H108  1.082404 S    
C259  C275  1.429553 A    
C174  C181  1.399930 A    
Zn31  O55   1.930781 S    
O90   C2    1.276573 A    
Zn12  O71   1.930617 S    
N62   O228  1.302068 A    
C286  H94   1.080752 S    
C208  H48   1.086518 S    
C257  C273  1.406859 A    
N35   O174  1.301672 A    
Zn32  O104  1.935038 S    
N28   O160  1.302275 A    
N24   O151  1.305127 A    
N6    O115  1.301458 A    
C343  C359  1.402603 A    
Zn21  O2    1.944743 S    
C43   C179  1.472810 S    
C268  C345  1.491045 S    
O89   C1    1.277439 A    
C159  C192  1.417794 A    
C164  H20   1.083641 S    
Zn30  O5    1.943820 S    
N30   O164  1.301385 A    
O62   C41   1.283980 A    
C172  H28   1.083678 S    
O66   C46   1.284028 A    
C158  C189  1.417807 A    
N4    O112  1.301700 A    
N27   O157  1.301518 A    
N19   O142  1.326534 A    
C225  C241  1.400303 A    
C359  H103  1.080912 S    
C78   C85   1.417937 A    
O29   C21   1.287737 A    
C346  C362  1.405058 A    
Zn4   O63   1.930617 S    
C49   H113  1.083612 S    
N31   O165  1.299937 A    
C204  C220  1.340922 D    
C291  C307  1.422198 A    
C157  C190  1.416729 A    
C329  C332  1.411867 A    
Zn19  O91   1.935007 S    
C194  C210  1.340883 D    
C237  C317  1.397003 A    
N52   O207  1.301694 A    
N49   O202  1.301847 A    
C336  N32   1.437671 S    
N58   O219  1.301595 A    
Zn8   O59   1.930617 S    
C107  H11   1.083552 S    
Zn15  O20   1.935246 S    
C119  H151  1.083830 S    
C241  N1    1.436932 S    
C258  C274  1.404897 A    
N12   O127  1.301973 A    
Zn9   O70   1.931166 S    
C253  N13   1.434361 S    
C367  H111  1.080746 S    
C321  C324  1.416238 A    
Zn31  O103  1.935007 S    
C245  N5    1.438623 S    
C150  C166  1.398341 A    
N34   O171  1.301790 A    
C173  C182  1.400405 A    
N45   O194  1.301567 A    
C279  H87   1.081767 S    
C145  C185  1.416905 A    
C117  C130  1.402749 A    
C325  C328  1.408975 A    
O34   C26   1.278578 A    
C19   C309  1.472925 S    
C322  C323  1.412540 A    
Zn29  O53   1.930974 S    
C45   C181  1.472088 S    
C253  C269  1.425791 A    
N38   O179  1.301769 A    
C333  C336  1.413182 A    
C196  H36   1.086521 S    
C124  C136  1.403042 A    
C331  N27   1.433436 S    
C104  C139  1.403773 A    
O25   C17   1.279261 A    
N13   O130  1.302806 A    
C203  H43   1.086543 S    
Zn2   O2    1.943234 S    
C260  C337  1.496563 S    
O70   C45   1.283758 A    
C246  N6    1.434353 S    
O92   C4    1.276858 A    
Zn10  O69   1.930426 S    
Zn26  O6    1.943820 S    
C230  C246  1.400633 A    
C99   C139  1.403562 A    
C278  C294  1.390373 A    
C231  C311  1.397276 A    
Zn13  O85   1.935620 S    
C255  C271  1.424353 A    
C103  C119  1.395051 A    
C169  C181  1.400099 A    
C290  H130  1.082633 S    
C286  C302  1.392068 A    
C196  C212  1.340923 D    
C110  C141  1.404356 A    
C233  C313  1.401321 A    
C39   C89   1.472694 S    
C279  C295  1.390003 A    
O54   C37   1.282236 A    
Zn30  O102  1.934604 S    
C242  C258  1.416300 A    
Zn16  O88   1.934719 S    
C80   C87   1.417607 A    
Zn9   O81   1.935620 S    
N59   O221  1.301750 A    
C263  C279  1.407250 A    
C127  C136  1.403834 A    
Zn14  O5    1.943234 S    
C153  C189  1.417993 A    
C232  C248  1.400511 A    
N17   O137  1.300972 A    
C282  C298  1.389257 A    
Zn5   O77   1.935620 S    
C323  N19   1.437459 S    
O103  C15   1.277449 A    
Zn19  O43   1.930781 S    
C361  H105  1.083539 S    
C128  H160  1.083773 S    
Zn7   O79   1.935350 S    
C132  C188  1.476933 S    
C98   C138  1.404417 A    
O64   C43   1.284413 A    
C195  H35   1.086549 S    
N32   O167  1.300753 A    
O68   C48   1.284307 A    
C206  C208  1.471202 S    
C108  H12   1.083662 S    
C56   H120  1.083780 S    
C98   C114  1.395239 A    
Zn16  O7    1.943541 S    
C66   N34   1.438460 S    
Zn27  O51   1.930781 S    
C124  H156  1.083851 S    
C229  C309  1.403289 A    
N57   O217  1.301360 A    
C77   N45   1.439014 S    
C242  N2    1.428923 S    
C100  C116  1.391315 A    
N58   O220  1.301855 A    
C223  H63   1.079891 S    
N8    O119  1.301313 A    
C49   C65   1.398610 A    
C277  C293  1.393347 A    
O48   C35   1.282595 A    
O52   C40   1.283041 A    
C333  C352  1.421650 A    
C107  C143  1.402917 A    
C331  C346  1.420413 A    
C332  C345  1.418236 A    
Zn17  O25   1.934570 S    
N39   O182  1.301947 A    
N14   O132  1.298066 A    
O47   C36   1.282337 A    
N23   O149  1.301233 A    
C9    C216  1.447816 S    
C247  C263  1.426067 A    
C194  C196  1.471216 S    
C48   C184  1.472703 S    
Zn27  O99   1.935007 S    
N49   O201  1.301447 A    
C250  N10   1.437305 S    
C52   H116  1.083490 S    
C256  N16   1.431910 S    
C195  C211  1.341050 D    
C63   C96   1.400775 A    
Zn25  O97   1.934852 S    
O28   C20   1.279945 A    
N28   O159  1.301038 A    
C269  C352  1.496330 S    
C113  H145  1.083780 S    
C300  H140  1.083025 S    
C366  H110  1.081731 S    
C211  H51   1.079892 S    
N53   O209  1.301316 A    
N54   O211  1.301602 A    
C345  C361  1.403037 A    
C234  H74   1.082487 S    
C266  C282  1.406537 A    
C296  H136  1.083657 S    
C209  H49   1.080090 S    
C116  C132  1.402671 A    
C277  H85   1.081655 S    
N47   O198  1.301595 A    
C152  C168  1.398518 A    
C251  N11   1.435975 S    
C101  C138  1.403396 A    
C197  C199  1.471053 S    
C151  C167  1.398676 A    
C200  C216  1.340921 D    
C26   C320  1.460714 S    
Zn22  O94   1.934604 S    
Zn14  O17   1.935647 S    
C281  C297  1.390865 A    
O102  C14   1.276566 A    
C166  C177  1.400584 A    
C101  C117  1.391600 A    
Zn13  O66   1.931166 S    
C2    C223  1.447713 S    
Zn20  O44   1.931526 S    
C236  C252  1.401193 A    
C282  H90   1.081624 S    
C3    C222  1.447825 S    
C335  N31   1.438129 S    
C67   N35   1.437494 S    
C110  C126  1.395515 A    
C64   C80   1.398811 A    
N18   O140  1.304152 A    
C153  N57   1.437235 S    
C334  N30   1.436687 S    
Zn24  O48   1.931526 S    
C166  H22   1.083567 S    
N51   O205  1.301771 A    
C341  C357  1.396308 A    
Zn1   O62   1.931166 S    
Zn14  O86   1.935039 S    
C53   C90   1.400872 A    
O76   C20   1.279869 A    
C222  H62   1.079968 S    
C216  H56   1.079983 S    
O11   C3    1.274870 A    
Zn3   O64   1.931079 S    
C64   C95   1.400143 A    
C115  C131  1.403726 A    
Zn30  O54   1.931440 S    
O74   C18   1.283219 A    
C330  C347  1.418504 A    
C106  H10   1.083804 S    
Zn5   O58   1.931166 S    
C206  C222  1.340873 D    
C199  H39   1.086544 S    
Zn25  O5    1.944743 S    
C290  C306  1.399740 A    
C120  C131  1.402947 A    
C330  N26   1.438428 S    
Zn18  O42   1.931440 S    
Zn21  O93   1.934852 S    
C171  C183  1.400833 A    
C168  H24   1.083627 S    
O32   C24   1.280064 A    
C155  N59   1.438140 S    
C60   H124  1.083644 S    
C227  C307  1.409578 A    
C23   C305  1.470854 S    
C205  H45   1.086595 S    
C266  C347  1.486817 S    
C106  C142  1.403530 A    
O37   C29   1.286362 A    
C164  C180  1.400460 A    
C248  N8    1.438937 S    
C327  N23   1.436834 S    
C69   C82   1.417341 A    
C280  H88   1.082283 S    
Zn24  O3    1.942958 S    
Zn20  O92   1.935038 S    
C354  C355  1.390005 A    
N64   O232  1.301641 A    
O17   C9    1.274909 A    
O100  C12   1.276861 A    
C301  C317  1.393680 A    
Zn25  O33   1.934570 S    
N10   O123  1.300134 A    
C106  C122  1.393227 A    
N54   O212  1.301773 A    
Zn27  O7    1.944433 S    
C249  N9    1.436077 S    
C204  H44   1.086520 S    
C36   C94   1.472888 S    
C358  C359  1.385524 A    
N22   O147  1.302090 A    
Zn20  O4    1.942958 S    
C163  C179  1.400358 A    
C175  C184  1.400265 A    
C160  C176  1.399180 A    
C105  H9    1.083542 S    
C97   C113  1.393233 A    
Zn6   O9    1.935647 S    
O46   C33   1.283048 A    
C200  H40   1.086519 S    
O59   C43   1.284310 A    
N41   O186  1.301510 A    
N3    O110  1.304296 A    
C59   C75   1.398608 A    
N56   O215  1.301697 A    
Zn22  O30   1.935199 S    
C122  H154  1.083787 S    
C233  H73   1.083267 S    
C339  C355  1.397845 A    
C152  N56   1.438800 S    
C273  C289  1.390644 A    
C50   C90   1.399741 A    
O19   C11   1.274881 A    
C7    C218  1.447824 S    
Zn5   O2    1.941751 S    
C226  H66   1.084711 S    
Zn9   O5    1.941751 S    
C113  C129  1.403340 A    
C133  C189  1.478719 S    
C154  C170  1.398405 A    
C155  C171  1.399238 A    
Zn7   O12   1.935246 S    
C112  C128  1.395611 A    
Zn11  O7    1.942615 S    
C68   N36   1.437318 S    
Zn18  O2    1.943820 S    
C71   N39   1.437478 S    
C325  N21   1.433524 S    
C356  H100  1.081564 S    
C146  N50   1.438092 S    
C241  C257  1.419210 A    
C129  C185  1.475493 S    
N31   O166  1.301474 A    
C150  C185  1.416699 A    
C230  H70   1.084981 S    
N64   O231  1.301680 A    
C56   C72   1.397080 A    
C333  N29   1.437207 S    
O57   C41   1.283789 A    
O43   C35   1.282031 A    
N16   O135  1.302701 A    
C24   C306  1.466774 S    
C360  H104  1.082037 S    
C85   C141  1.476728 S    
C294  C310  1.394164 A    
C328  N24   1.435722 S    
C232  C312  1.402811 A    
C283  C299  1.397372 A    
C361  C364  1.387866 A    
C173  H29   1.083612 S    
C165  C178  1.400488 A    
C162  H18   1.083781 S    
Zn14  O65   1.930426 S    
C284  C300  1.391790 A    
N33   O169  1.301677 A    
Zn17  O89   1.934852 S    
O9    C1    1.274905 A    
Zn22  O1    1.943820 S    
C193  H33   1.086592 S    
C254  N14   1.435389 S    
O84   C28   1.279001 A    
Zn2   O61   1.930426 S    
C321  C340  1.416989 A    
N26   O156  1.301384 A    
N42   O187  1.301799 A    
C116  H148  1.083505 S    
C46   C182  1.472469 S    
C250  C266  1.419820 A    
C17   C311  1.462436 S    
C197  H37   1.086588 S    
O61   C42   1.284291 A    
Zn16  O67   1.930617 S    
O65   C45   1.283785 A    
C322  N18   1.438235 S    
C10   C215  1.447710 S    
C248  C264  1.420246 A    
Zn6   O57   1.930426 S    
C125  C134  1.403414 A    
C325  C344  1.423290 A    
C324  N20   1.433755 S    
C67   C83   1.417320 A    
C326  C343  1.421454 A    
C21   C307  1.475246 S    
N14   O131  1.304882 A    
C104  C120  1.393050 A    
C65   C81   1.417384 A    
N37   O178  1.301452 A    
C63   H127  1.082955 S    
C145  C161  1.398481 A    
N29   O162  1.301270 A    
C123  H155  1.083566 S    
C152  C187  1.417300 A    
C285  C301  1.388063 A    
C147  C163  1.398991 A    
C148  C188  1.417340 A    
C218  H58   1.079965 S    
C119  C132  1.404507 A    
C25   C319  1.462225 S    
C252  N12   1.434671 S    
C246  C262  1.424788 A    
C169  H25   1.083431 S    
C27   C317  1.460204 S    
N6    O116  1.300674 A    
O36   C28   1.278133 A    
O12   C4    1.274012 A    
O97   C9    1.277438 A    
C118  C129  1.403445 A    
C227  C243  1.407381 A    
N21   O145  1.305799 A    
C198  C200  1.471208 S    
O42   C34   1.282430 A    
N44   O191  1.305912 A    
C337  C353  1.403856 A    
C158  C174  1.397383 A    
C252  C268  1.420627 A    
C61   C77   1.398736 A    
C247  N7    1.434336 S    
C298  H138  1.082707 S    
C102  C118  1.393232 A    
Zn21  O45   1.930974 S    
C297  C313  1.397838 A    
C59   H123  1.083542 S    
N48   O199  1.301799 A    
C237  C253  1.400752 A    
Zn23  O47   1.930781 S    
C161  C177  1.400321 A    
C159  N63   1.438408 S    
Zn4   O15   1.935494 S    
C263  C342  1.494613 S    
O69   C46   1.283831 A    
N10   O124  1.302128 A    
C41   C177  1.472422 S    
N2    O107  1.316016 A    
Zn32  O40   1.935469 S    
C254  C270  1.425787 A    
