data_mof_unit_10289.cif
_audit_creation_date              2012-12-11T14:41:09-0500
_audit_creation_method            fapswitch 2.2
_symmetry_space_group_name_H-M    P1
_symmetry_Int_Tables_number       1
_space_group_crystal_system       monoclinic
_cell_length_a                    24.677522
_cell_length_b                    17.529934
_cell_length_c                    15.521017
_cell_angle_alpha                 90.0
_cell_angle_beta                  129.313704
_cell_angle_gamma                 90.0
_cell_volume                      5194.79309678

loop_
_atom_site_label
_atom_site_type_symbol
_atom_type_description
_atom_site_fract_x
_atom_site_fract_y
_atom_site_fract_z
_atom_type_partial_charge
C1    C     C_R   0.334646 0.390714 0.199332 -0.126439
C2    C     C_R   0.679896 0.621499 0.495571 0.006555
C3    C     C_R   0.179896 0.878501 0.495571 0.006554
C4    C     C_R   0.179896 0.121499 0.495571 0.006554
C5    C     C_R   0.351407 0.324649 0.499555 0.024341
C6    C     C_R   0.351407 0.675351 0.499555 0.024341
C7    C     C_R   0.851407 0.824649 0.499555 0.024341
C8    C     C_R   0.851407 0.175351 0.499555 0.024341
C9    C     C_3   0.351978 0.194926 0.571685 -0.094810
C10   C     C_3   0.351978 0.805074 0.571684 -0.094809
C11   C     C_3   0.851978 0.694925 0.571684 -0.094810
C12   C     C_R   0.334646 0.609286 0.199332 -0.126440
C13   C     C_3   0.851978 0.305074 0.571685 -0.094810
C14   C     C_3   0.804428 0.641813 0.578208 -0.474152
C15   C     C_3   0.804428 0.358187 0.578208 -0.474152
C16   C     C_3   0.304428 0.141813 0.578208 -0.474151
C17   C     C_3   0.304428 0.858187 0.578208 -0.474153
C18   C     C_3   0.272258 0.305152 0.539610 -0.418352
C19   C     C_3   0.272259 0.694848 0.539610 -0.418351
C20   C     C_3   0.772259 0.805152 0.539610 -0.418353
C21   C     C_3   0.772258 0.194848 0.539610 -0.418352
C22   C     C_3   0.250456 0.237933 0.377103 -0.479466
C23   C     C_R   0.834646 0.890714 0.199332 -0.126439
C24   C     C_3   0.250455 0.762067 0.377103 -0.479464
C25   C     C_3   0.750456 0.737933 0.377103 -0.479466
C26   C     C_3   0.750456 0.262067 0.377103 -0.479465
C27   C     C_3   0.308515 0.266356 0.498389 0.345987
C28   C     C_3   0.308515 0.733644 0.498389 0.345986
C29   C     C_3   0.808515 0.766356 0.498389 0.345987
C30   C     C_3   0.808515 0.233644 0.498389 0.345986
C31   C     C_3   0.727440 0.669753 0.494265 0.342236
C32   C     C_3   0.727440 0.330247 0.494265 0.342236
C33   C     C_3   0.227440 0.169753 0.494265 0.342236
C34   C     C_R   0.834646 0.109285 0.199332 -0.126439
C35   C     C_3   0.227440 0.830247 0.494265 0.342236
C36   C     C_3   0.721945 0.749673 0.531495 -0.418364
C37   C     C_3   0.721945 0.250327 0.531495 -0.418365
C38   C     C_3   0.221945 0.249673 0.531495 -0.418363
C39   C     C_3   0.221945 0.750327 0.531495 -0.418364
C40   C     C_R   0.652844 0.364093 0.762077 -0.127217
C41   C     C_R   0.652844 0.635907 0.762077 -0.127217
C42   C     C_R   0.152844 0.864093 0.762077 -0.127218
C43   C     C_R   0.152844 0.135907 0.762077 -0.127217
C44   C     C_3   0.705401 0.676960 0.374939 -0.104996
C45   C     C_R   0.622923 0.324339 0.799742 0.150274
C46   C     C_3   0.705401 0.323039 0.374939 -0.104996
C47   C     C_3   0.205401 0.176960 0.374939 -0.104996
C48   C     C_3   0.205401 0.823039 0.374939 -0.104997
C49   C     C_2   0.649523 0.253676 0.863849 -0.220123
C50   C     C_2   0.649523 0.746324 0.863849 -0.220123
C51   C     C_2   0.149523 0.753676 0.863849 -0.220124
C52   C     C_2   0.149523 0.246324 0.863849 -0.220123
C53   C     C_2   0.698782 0.213196 0.872753 -0.115002
C54   C     C_2   0.698782 0.786804 0.872754 -0.115002
C55   C     C_2   0.198782 0.713196 0.872753 -0.115003
C56   C     C_R   0.622923 0.675660 0.799742 0.150274
C57   C     C_2   0.198782 0.286804 0.872754 -0.115003
C58   C     C_2   0.309789 0.658990 0.023838 -0.223430
C59   C     C_2   0.309789 0.341010 0.023838 -0.223431
C60   C     C_2   0.809789 0.158990 0.023838 -0.223431
C61   C     C_2   0.809789 0.841010 0.023838 -0.223431
C62   C     C_2   0.240260 0.659345 0.963863 -0.110741
C63   C     C_2   0.240260 0.340655 0.963863 -0.110740
C64   C     C_2   0.740260 0.159345 0.963863 -0.110741
C65   C     C_2   0.740260 0.840655 0.963863 -0.110740
C66   C     C_R   0.611909 0.394057 0.404777 -0.154496
C67   C     C_R   0.122923 0.824339 0.799742 0.150275
C68   C     C_R   0.611909 0.605943 0.404777 -0.154496
C69   C     C_R   0.111909 0.894057 0.404778 -0.154496
C70   C     C_R   0.111909 0.105943 0.404778 -0.154496
C71   C     C_R   0.403720 0.366046 0.592533 -0.122324
C72   C     C_R   0.403720 0.633954 0.592533 -0.122324
C73   C     C_R   0.903720 0.866046 0.592533 -0.122324
C74   C     C_R   0.903720 0.133954 0.592533 -0.122324
C75   C     C_R   0.688473 0.397125 0.589931 -0.140017
C76   C     C_R   0.688473 0.602875 0.589931 -0.140017
C77   C     C_R   0.188473 0.897125 0.589931 -0.140017
C78   C     C_R   0.122923 0.175660 0.799742 0.150275
C79   C     C_R   0.188473 0.102875 0.589931 -0.140017
C80   C     C_R   0.333349 0.362233 0.406453 -0.157644
C81   C     C_R   0.333349 0.637767 0.406453 -0.157644
C82   C     C_R   0.833349 0.862233 0.406453 -0.157644
C83   C     C_R   0.833349 0.137767 0.406453 -0.157643
C84   C     C_R   0.564487 0.364672 0.768667 -0.143364
C85   C     C_R   0.564487 0.635328 0.768667 -0.143364
C86   C     C_R   0.064487 0.864672 0.768667 -0.143364
C87   C     C_R   0.064487 0.135328 0.768667 -0.143365
C88   C     C_R   0.425431 0.388881 0.199524 -0.154198
C89   C     C_R   0.679896 0.378500 0.495571 0.006555
C90   C     C_R   0.425431 0.611119 0.199524 -0.154198
C91   C     C_R   0.925431 0.888881 0.199524 -0.154198
C92   C     C_R   0.925431 0.111119 0.199524 -0.154198
C93   C     C_R   0.355406 0.369867 0.137989 0.153261
C94   C     C_R   0.355406 0.630132 0.137989 0.153261
C95   C     C_R   0.855406 0.869867 0.137989 0.153261
C96   C     C_R   0.855406 0.130132 0.137989 0.153261
H1    H     H_    0.281898 0.393142 0.171010 0.076963
H2    H     H_    0.809489 0.418217 0.561115 0.139584
H3    H     H_    0.402790 0.762822 0.730910 0.101401
H4    H     H_    0.944771 0.665332 0.723229 0.104786
H5    H     H_    0.902789 0.737178 0.730910 0.101401
H6    H     H_    0.944771 0.334668 0.723229 0.104786
H7    H     H_    0.902789 0.262821 0.730910 0.101401
H8    H     H_    0.309489 0.081783 0.561115 0.139584
H9    H     H_    0.309488 0.918217 0.561115 0.139585
H10   H     H_    0.321528 0.142190 0.663888 0.155554
H11   H     H_    0.321529 0.857810 0.663888 0.155555
H12   H     H_    0.821528 0.642190 0.663888 0.155555
H13   H     H_    0.821528 0.357809 0.663888 0.155554
H14   H     H_    0.311262 0.324744 0.627250 0.153317
H15   H     H_    0.311262 0.675256 0.627250 0.153317
H16   H     H_    0.811262 0.824744 0.627250 0.153318
H17   H     H_    0.281898 0.606858 0.171010 0.076963
H18   H     H_    0.811262 0.175255 0.627250 0.153318
H19   H     H_    0.734457 0.746886 0.614149 0.159816
H20   H     H_    0.734457 0.253114 0.614149 0.159816
H21   H     H_    0.234457 0.246886 0.614149 0.159816
H22   H     H_    0.234457 0.753114 0.614149 0.159816
H23   H     H_    0.715313 0.786061 0.323549 0.150706
H24   H     H_    0.715314 0.213939 0.323549 0.150706
H25   H     H_    0.215313 0.286061 0.323549 0.150706
H26   H     H_    0.215313 0.713938 0.323549 0.150705
H27   H     H_    0.274401 0.215761 0.340728 0.163059
H28   H     H_    0.781898 0.893142 0.171010 0.076963
H29   H     H_    0.274400 0.784239 0.340727 0.163059
H30   H     H_    0.774401 0.715761 0.340728 0.163059
H31   H     H_    0.774401 0.284239 0.340728 0.163059
H32   H     H_    0.650319 0.697399 0.315240 0.119188
H33   H     H_    0.650319 0.302601 0.315240 0.119188
H34   H     H_    0.150319 0.197399 0.315240 0.119189
H35   H     H_    0.150319 0.802601 0.315240 0.119189
H36   H     H_    0.242753 0.356603 0.488428 0.160947
H37   H     H_    0.242753 0.643397 0.488429 0.160947
H38   H     H_    0.742753 0.856603 0.488429 0.160947
H39   H     H_    0.781898 0.106858 0.171010 0.076963
H40   H     H_    0.742753 0.143397 0.488429 0.160948
H41   H     H_    0.700503 0.351132 0.775714 0.086117
H42   H     H_    0.700503 0.648868 0.775714 0.086117
H43   H     H_    0.200503 0.851132 0.775714 0.086117
H44   H     H_    0.200503 0.148868 0.775714 0.086117
H45   H     H_    0.667471 0.771917 0.470815 0.161577
H46   H     H_    0.667471 0.228083 0.470815 0.161577
H47   H     H_    0.167471 0.271917 0.470815 0.161576
H48   H     H_    0.167471 0.728083 0.470815 0.161577
H49   H     H_    0.215400 0.631306 0.993066 0.123194
H50   H     H_    0.368491 0.163425 0.529369 0.122512
H51   H     H_    0.215400 0.368694 0.993066 0.123193
H52   H     H_    0.715400 0.131306 0.993066 0.123193
H53   H     H_    0.715400 0.868694 0.993066 0.123193
H54   H     H_    0.716487 0.228445 0.826389 0.124599
H55   H     H_    0.716487 0.771555 0.826390 0.124599
H56   H     H_    0.216487 0.728445 0.826390 0.124599
H57   H     H_    0.216487 0.271555 0.826390 0.124599
H58   H     H_    0.333827 0.687812 0.993513 0.126012
H59   H     H_    0.333827 0.312188 0.993513 0.126012
H60   H     H_    0.833827 0.187812 0.993513 0.126013
H61   H     H_    0.368491 0.836575 0.529369 0.122512
H62   H     H_    0.833827 0.812188 0.993513 0.126012
H63   H     H_    0.632694 0.238101 0.911483 0.126509
H64   H     H_    0.632694 0.761899 0.911483 0.126509
H65   H     H_    0.132694 0.738101 0.911483 0.126509
H66   H     H_    0.132694 0.261899 0.911483 0.126509
H67   H     H_    0.586918 0.391191 0.317289 0.086174
H68   H     H_    0.586919 0.608809 0.317289 0.086174
H69   H     H_    0.086919 0.891191 0.317289 0.086175
H70   H     H_    0.086919 0.108809 0.317289 0.086175
H71   H     H_    0.422364 0.359934 0.676392 0.088569
H72   H     H_    0.868491 0.663425 0.529369 0.122513
H73   H     H_    0.422364 0.640066 0.676392 0.088569
H74   H     H_    0.922364 0.859934 0.676392 0.088569
H75   H     H_    0.922364 0.140066 0.676392 0.088569
H76   H     H_    0.736340 0.396428 0.675290 0.081643
H77   H     H_    0.736340 0.603572 0.675290 0.081643
H78   H     H_    0.236340 0.896428 0.675290 0.081643
H79   H     H_    0.236340 0.103572 0.675290 0.081643
H80   H     H_    0.291697 0.350208 0.319684 0.097682
H81   H     H_    0.291697 0.649792 0.319683 0.097682
H82   H     H_    0.791697 0.850208 0.319684 0.097682
H83   H     H_    0.868491 0.336575 0.529369 0.122512
H84   H     H_    0.791697 0.149792 0.319684 0.097682
H85   H     H_    0.533610 0.351551 0.793634 0.092360
H86   H     H_    0.533610 0.648449 0.793634 0.092360
H87   H     H_    0.033610 0.851551 0.793634 0.092360
H88   H     H_    0.033610 0.148449 0.793634 0.092360
H89   H     H_    0.454982 0.389256 0.169841 0.090749
H90   H     H_    0.454982 0.610744 0.169841 0.090749
H91   H     H_    0.954982 0.889256 0.169841 0.090749
H92   H     H_    0.954982 0.110744 0.169841 0.090749
H93   H     H_    0.681286 0.563005 0.333632 0.092922
H94   H     H_    0.809489 0.581783 0.561115 0.139585
H95   H     H_    0.762052 0.586250 0.380049 0.114268
H96   H     H_    0.681286 0.436995 0.333632 0.092921
H97   H     H_    0.762052 0.413750 0.380050 0.114268
H98   H     H_    0.181289 0.063004 0.333637 0.092922
H99   H     H_    0.262052 0.086251 0.380048 0.114268
H100  H     H_    0.181288 0.936995 0.333635 0.092922
H101  H     H_    0.262052 0.913750 0.380048 0.114268
H102  H     H_    0.444771 0.165332 0.723229 0.104786
H103  H     H_    0.402789 0.237178 0.730910 0.101401
H104  H     H_    0.444771 0.834668 0.723229 0.104786
N1    N     N_R   0.389430 0.421450 0.294590 -0.042593
N2    N     N_R   0.581780 0.577610 0.443390 -0.030287
N3    N     N_R   0.081780 0.922390 0.443390 -0.030287
N4    N     N_R   0.081780 0.077610 0.443390 -0.030287
N5    N     N_R   0.419850 0.423100 0.556610 -0.039247
N6    N     N_R   0.419850 0.576900 0.556610 -0.039247
N7    N     N_R   0.919850 0.923100 0.556610 -0.039247
N8    N     N_R   0.919850 0.076900 0.556610 -0.039247
N9    N     N_R   0.627410 0.423100 0.556610 -0.032478
N10   N     N_R   0.627410 0.576900 0.556610 -0.032478
N11   N     N_R   0.127410 0.923100 0.556610 -0.032478
N12   N     N_R   0.389430 0.578550 0.294590 -0.042593
N13   N     N_R   0.127410 0.076900 0.556610 -0.032478
N14   N     N_R   0.374220 0.422390 0.443390 -0.036996
N15   N     N_R   0.374220 0.577610 0.443390 -0.036996
N16   N     N_R   0.874220 0.922390 0.443390 -0.036996
N17   N     N_R   0.874220 0.077610 0.443390 -0.036996
N18   N     N_R   0.555000 0.424040 0.705410 -0.042485
N19   N     N_R   0.555000 0.575960 0.705410 -0.042485
N20   N     N_R   0.055000 0.924040 0.705410 -0.042485
N21   N     N_R   0.055000 0.075960 0.705410 -0.042485
N22   N     N_R   0.446630 0.421450 0.294590 -0.040496
N23   N     N_R   0.889430 0.921450 0.294590 -0.042593
N24   N     N_R   0.446630 0.578550 0.294590 -0.040496
N25   N     N_R   0.946630 0.921450 0.294590 -0.040496
N26   N     N_R   0.946630 0.078550 0.294590 -0.040496
N27   N     N_3   0.710215 0.605001 0.331571 -0.217234
N28   N     N_3   0.710215 0.394999 0.331571 -0.217234
N29   N     N_3   0.210215 0.105001 0.331572 -0.217235
N30   N     N_3   0.210215 0.894999 0.331571 -0.217235
N31   N     N_3   0.415783 0.215103 0.683497 -0.223278
N32   N     N_3   0.415783 0.784897 0.683497 -0.223278
N33   N     N_3   0.915783 0.715103 0.683497 -0.223278
N34   N     N_R   0.889430 0.078550 0.294590 -0.042593
N35   N     N_3   0.915783 0.284897 0.683497 -0.223278
N36   N     N_R   0.612200 0.424040 0.705410 -0.045475
N37   N     N_R   0.612200 0.575960 0.705410 -0.045475
N38   N     N_R   0.112200 0.924040 0.705410 -0.045475
N39   N     N_R   0.112200 0.075960 0.705410 -0.045475
N40   N     N_R   0.581780 0.422390 0.443390 -0.030287
Ni1   Ni    Ni4+2 0.382890 0.500000 0.370170 0.203117
Ni2   Ni    Ni4+2 0.882890 0.000000 0.370170 0.203117
Ni3   Ni    Ni4+2 0.618740 0.500000 0.629830 0.207511
Ni4   Ni    Ni4+2 0.118740 0.000000 0.629830 0.207511
Ni5   Ni    Ni4+2 0.514090 0.500000 0.370170 0.208260
Ni6   Ni    Ni4+2 0.014090 0.000000 0.370170 0.208260
Ni7   Ni    Ni4+2 0.487550 0.500000 0.629830 0.206796
Ni8   Ni    Ni4+2 0.987550 0.000000 0.629830 0.206796

loop_
_geom_bond_atom_site_label_1
_geom_bond_atom_site_label_2
_ccdc_geom_bond_type
N6    N15   A    
C11   N33   S    
C58   C62   D    
C77   H78   S    
C7    C29   S    
C8    C83   A    
C38   H47   S    
C15   H13   S    
C18   H36   S    
N9    N40   A    
C20   H38   S    
C14   C31   S    
C40   N36   A    
C1    N1    A    
N7    Ni8   S    
N9    Ni3   S    
C46   H33   S    
C4    C70   A    
H3    N32   S    
C42   N38   A    
C22   H27   S    
C7    C73   A    
C54   C65   S    
C74   N8    A    
H101  N30   S    
C43   C78   A    
C6    C72   A    
C8    C74   A    
C50   C54   D    
C83   H84   S    
N21   N39   A    
N14   Ni1   S    
N23   N25   A    
C87   N21   A    
N36   Ni3   S    
C17   C35   S    
C84   H85   S    
C3    C69   A    
C9    C16   S    
C34   C96   A    
N10   Ni3   S    
C12   H17   S    
C2    C68   A    
C70   H70   S    
C83   N17   A    
N22   Ni5   S    
C85   N19   A    
C4    C33   S    
N23   Ni2   S    
C10   C28   S    
C55   C62   S    
N38   Ni4   S    
C9    H50   S    
C92   C96   A    
N1    Ni1   S    
H99   N29   S    
C73   N7    A    
N2    Ni5   S    
H103  N31   S    
N17   Ni2   S    
C58   H58   S    
C5    C27   S    
C38   H21   S    
C16   H8    S    
C44   H32   S    
N20   N38   A    
C62   H49   S    
H95   N27   S    
C48   H35   S    
C57   C63   S    
N39   Ni4   S    
N8    N17   A    
N26   Ni6   S    
C3    C35   S    
C24   H26   S    
C21   H40   S    
C16   H10   S    
C13   N35   S    
C48   N30   S    
C14   H12   S    
C22   C47   S    
N20   Ni8   S    
C92   N26   A    
H6    N35   S    
C6    C81   A    
C71   H71   S    
C64   H52   S    
C70   N4    A    
H98   N29   S    
N3    N11   A    
H4    N33   S    
H93   N27   S    
N1    N22   A    
N2    N10   A    
C52   C78   S    
C35   C48   S    
C25   H23   S    
C25   C44   S    
C63   H51   S    
C90   C94   A    
C66   C89   A    
C20   C29   S    
C68   H68   S    
C25   C29   S    
C40   C45   A    
C6    C28   S    
N15   Ni1   S    
C37   H46   S    
N37   Ni3   S    
C47   H34   S    
C68   N2    A    
C24   C48   S    
C18   H14   S    
C13   C30   S    
C55   H56   S    
C80   H80   S    
C4    C79   A    
C31   C44   S    
C1    H1    S    
C87   H88   S    
C37   H20   S    
C59   H59   S    
H102  N31   S    
C20   C36   S    
C72   N6    A    
C90   H90   S    
C50   H64   S    
C13   H83   S    
C57   H57   S    
N4    N13   A    
C50   C56   S    
C2    C31   S    
C75   N9    A    
C35   C39   S    
C25   H30   S    
C60   H60   S    
C41   C56   A    
C90   N24   A    
N12   Ni1   S    
C17   H9    S    
C16   C33   S    
C32   C89   S    
C45   C49   S    
H100  N30   S    
C40   H41   S    
C82   H82   S    
C10   N32   S    
C81   N15   A    
C20   H16   S    
C86   H87   S    
C43   H44   S    
C11   C14   S    
C51   C67   S    
C32   C37   S    
C5    C80   A    
C19   C28   S    
C10   H61   S    
C12   N12   A    
C74   H75   S    
C23   H28   S    
C79   N13   A    
C19   C39   S    
N8    Ni8   S    
N34   Ni2   S    
C82   N16   A    
C60   C96   S    
C84   N18   A    
C88   H89   S    
C23   N23   A    
N5    N14   A    
C69   N3    A    
C22   C27   S    
C13   C15   S    
H5    N33   S    
C24   H29   S    
C43   N39   A    
N19   Ni7   S    
C45   C84   A    
C15   H2    S    
C10   C17   S    
C34   N34   A    
C78   C87   A    
C88   N22   A    
C2    C76   A    
C9    C27   S    
C22   H25   S    
C11   H72   S    
N12   N24   A    
C76   N10   A    
N25   Ni6   S    
C41   N37   A    
C36   H45   S    
C91   H91   S    
C88   C93   A    
C76   H77   S    
C67   C86   A    
H7    N35   S    
C66   N40   A    
C42   H43   S    
C32   C46   S    
N11   Ni4   S    
C85   H86   S    
C18   C27   S    
C24   C28   S    
H97   N28   S    
C26   H24   S    
C21   H18   S    
N5    Ni7   S    
C15   C32   S    
N40   Ni5   S    
C71   N5    A    
C80   N14   A    
C61   C95   S    
C26   C30   S    
C54   H55   S    
C47   N29   S    
N21   Ni8   S    
C19   H15   S    
C19   H37   S    
C39   H22   S    
C59   C93   S    
C21   C30   S    
C59   C63   D    
C33   C38   S    
N26   N34   A    
C9    N31   S    
C53   H54   S    
C60   C64   D    
C8    C30   S    
N18   Ni7   S    
N19   N37   A    
C17   H11   S    
N6    Ni7   S    
C18   C38   S    
C77   N11   A    
N18   N36   A    
C5    C71   A    
C61   H62   S    
C72   H73   S    
C12   C94   A    
N16   Ni2   S    
C56   C85   A    
C42   C67   A    
N3    Ni6   S    
C34   H39   S    
N13   Ni4   S    
C49   C53   D    
N7    N16   A    
C53   C64   S    
C23   C95   A    
C66   H67   S    
C51   H65   S    
C51   C55   D    
C26   H31   S    
C58   C94   S    
C44   N27   S    
C69   H69   S    
C52   C57   D    
C26   C46   S    
C81   H81   S    
C14   H94   S    
C61   C65   D    
N24   Ni5   S    
H96   N28   S    
C7    C82   A    
C21   C37   S    
C39   H48   S    
C11   C29   S    
C91   C95   A    
C1    C93   A    
C86   N20   A    
C75   C89   A    
C75   H76   S    
N4    Ni6   S    
C65   H53   S    
C46   N28   S    
C31   C36   S    
C49   H63   S    
H104  N32   S    
C41   H42   S    
C73   H74   S    
C33   C47   S    
C36   H19   S    
C79   H79   S    
C91   N25   A    
C92   H92   S    
C52   H66   S    
C3    C77   A    
