data_mof_unit_64347.cif
_audit_creation_date              2012-12-11T19:42:17-0500
_audit_creation_method            fapswitch 2.2
_symmetry_space_group_name_H-M    P1
_symmetry_Int_Tables_number       1
_space_group_crystal_system       triclinic
_cell_length_a                    8.204127
_cell_length_b                    15.149159
_cell_length_c                    26.974062
_cell_angle_alpha                 99.13403
_cell_angle_beta                  92.486684
_cell_angle_gamma                 81.199848
_cell_volume                      3270.38555907

loop_
_atom_site_label
_atom_site_type_symbol
_atom_type_description
_atom_site_fract_x
_atom_site_fract_y
_atom_site_fract_z
_atom_type_partial_charge
Ba1   Ba    Ba6+2 0.860050 0.456430 0.522530 1.649969
Ba2   Ba    Ba6+2 0.329780 0.543490 0.477460 1.651910
C1    C     C_3   0.724942 0.160533 0.672405 -0.235042
C2    C     C_R   0.828636 0.518506 0.165219 0.582831
C3    C     C_2   0.757294 0.555769 0.274124 -0.102208
C4    C     C_3   0.255993 0.236967 0.651626 0.312328
C5    C     C_3   0.701167 0.534459 0.322880 -0.035848
C6    C     C_1   0.982950 0.478613 0.341799 0.032511
C7    C     C_2   0.019331 0.465355 0.292911 -0.073143
C8    C     C_2   0.905548 0.512058 0.255643 0.178902
C9    C     C_R   0.033549 0.507342 0.100942 -0.077318
C10   C     C_R   0.157037 0.488731 0.137135 -0.046558
C11   C     C_R   0.320311 0.462552 0.121311 -0.040307
C12   C     C_3   0.698975 0.239675 0.643108 0.332946
C13   C     C_R   0.868578 0.525809 0.115744 -0.026247
C14   C     C_2   0.845172 0.528760 0.359147 -0.292687
C15   C     C_2   0.363650 0.496149 0.639064 -0.279292
C16   C     C_3   0.218736 0.248333 0.707180 -0.362005
C17   C     C_R   0.277604 0.471622 0.982060 0.020268
C18   C     C_R   0.993176 0.541323 0.965306 0.016859
C19   C     C_R   0.155581 0.506947 0.948457 0.054488
C20   C     C_R   0.433512 0.431885 0.962296 -0.110142
C21   C     C_R   0.468155 0.428204 0.911678 -0.061505
C22   C     C_R   0.351201 0.466777 0.878732 -0.029242
C23   C     C_3   0.626337 0.692637 0.634498 0.220761
C24   C     C_R   0.196111 0.507952 0.897458 -0.079831
C25   C     C_R   0.081199 0.550072 0.865184 -0.044401
C26   C     C_R   0.125585 0.554902 0.815691 0.630019
C27   C     C_R   0.385554 0.463671 0.827294 0.575798
C28   C     C_3   0.217908 0.266748 0.413419 0.309363
C29   C     C_2   0.471262 0.511838 0.728186 -0.052064
C30   C     C_3   0.511432 0.508363 0.673024 -0.056107
C31   C     C_1   0.214793 0.522146 0.656620 0.040885
C32   C     C_2   0.181473 0.511724 0.702773 -0.066038
C33   C     C_2   0.314617 0.510776 0.743081 0.224765
C34   C     C_3   0.614969 0.714644 0.691432 -0.379881
C35   C     C_R   0.239478 0.477176 0.033900 0.015184
C36   C     C_R   0.074585 0.506547 0.049810 0.053739
C37   C     C_R   0.949725 0.534482 0.015051 0.021749
C38   C     C_R   0.360100 0.454529 0.070752 -0.109137
C39   C     C_R   0.745422 0.548809 0.080407 -0.073734
C40   C     C_3   0.241925 0.164454 0.398411 -0.394386
C41   C     C_R   0.880092 0.582697 0.931801 -0.099726
C42   C     C_R   0.924076 0.588054 0.883200 -0.038906
C43   C     C_R   0.784811 0.554046 0.031365 -0.107637
C44   C     C_R   0.851132 0.833136 0.470680 0.004686
C45   C     C_3   0.999435 0.738578 0.345794 0.320306
C46   C     C_R   0.782501 0.925537 0.473302 -0.036999
C47   C     C_R   0.644390 0.111931 0.481390 -0.029291
C48   C     C_R   0.788174 0.076793 0.453844 -0.043623
C49   C     C_R   0.857605 0.986029 0.450779 -0.104558
C50   C     C_R   0.578168 0.205590 0.487986 0.056127
C51   C     C_R   0.433782 0.235366 0.515210 -0.288641
C52   C     C_3   0.174443 0.731976 0.633156 0.307467
C53   C     C_R   0.619764 0.806044 0.516790 0.006057
C54   C     C_R   0.550157 0.897869 0.520437 -0.029207
C55   C     C_R   0.632101 0.958080 0.498808 0.016373
C56   C     C_3   0.006349 0.760183 0.292863 -0.335911
C57   C     C_R   0.402491 0.931427 0.545887 -0.056237
C58   C     C_R   0.334805 0.021693 0.549507 -0.109238
C59   C     C_R   0.413746 0.082756 0.528773 -0.039583
C60   C     C_R   0.563913 0.051118 0.503173 0.009803
C61   C     C_R   0.347156 0.174828 0.533388 -0.022600
C62   C     C_R   0.768235 0.775273 0.492229 -0.267043
C63   C     C_3   0.165930 0.796899 0.682691 0.175175
C64   C     C_3   0.703992 0.333960 0.370045 0.309056
C65   C     C_3   0.727914 0.300920 0.314148 -0.384851
C66   C     C_3   0.742827 0.070289 0.637275 -0.266187
C67   C     C_3   0.503670 0.779287 0.374686 0.348922
C68   C     C_3   0.776480 0.992463 0.667767 -0.194554
C69   C     C_3   0.771668 0.902371 0.634195 -0.410234
C70   C     C_3   0.499223 0.871889 0.359248 -0.376586
C71   C     C_R   0.114928 0.497017 0.188414 0.592294
Cl1   Cl    Cl    0.128453 0.742823 0.733955 -0.668238
H1    H     H_    0.818120 0.243296 0.626127 0.117128
H2    H     H_    0.602300 0.391881 0.375147 0.050571
H3    H     H_    0.829635 0.243000 0.308560 0.127556
H4    H     H_    0.759441 0.355135 0.294927 0.063579
H5    H     H_    0.612623 0.278907 0.296782 0.131509
H6    H     H_    0.605056 0.229248 0.612675 -0.033613
H7    H     H_    0.617881 0.165098 0.697106 0.125333
H8    H     H_    0.605378 0.621904 0.622264 0.055278
H9    H     H_    0.749150 0.701462 0.623951 0.106625
H10   H     H_    0.496962 0.699084 0.703847 0.124774
H11   H     H_    0.718098 0.673086 0.709001 0.141744
H12   H     H_    0.332403 0.143770 0.367738 0.127094
H13   H     H_    0.622403 0.787222 0.704379 0.144159
H14   H     H_    0.837508 0.164880 0.696675 0.126750
H15   H     H_    0.323744 0.272821 0.729854 0.112562
H16   H     H_    0.070478 0.670314 0.346705 0.087654
H17   H     H_    0.868610 0.738388 0.354458 -0.050608
H18   H     H_    0.952319 0.708911 0.265724 0.075831
H19   H     H_    0.935207 0.827947 0.290432 0.108371
H20   H     H_    0.136468 0.759509 0.282816 0.153012
H21   H     H_    0.623410 0.761603 0.394123 -0.056106
H22   H     H_    0.402050 0.783261 0.401025 0.113765
H23   H     H_    0.288267 0.130519 0.430777 0.061993
H24   H     H_    0.603131 0.870747 0.333981 0.115071
H25   H     H_    0.510421 0.923146 0.393044 0.076581
H26   H     H_    0.278481 0.303755 0.643255 0.008948
H27   H     H_    0.380681 0.891188 0.339457 0.137793
H28   H     H_    0.120723 0.413558 0.279410 0.115751
H29   H     H_    0.417972 0.445514 0.147959 0.167840
H30   H     H_    0.571258 0.518760 0.755466 0.119813
H31   H     H_    0.588989 0.395934 0.898566 0.122553
H32   H     H_    0.530580 0.400553 0.984773 0.073423
H33   H     H_    0.487999 0.432439 0.061912 0.076707
H34   H     H_    0.122507 0.142023 0.385303 0.119044
H35   H     H_    0.673598 0.600159 0.253662 0.148217
H36   H     H_    0.617234 0.565008 0.090935 0.117495
H37   H     H_    0.757591 0.614654 0.942649 0.073610
H38   H     H_    0.368316 0.186373 0.643974 -0.006860
H39   H     H_    0.832767 0.621485 0.859421 0.127117
H40   H     H_    0.058625 0.503194 0.711379 0.148866
H41   H     H_    0.682111 0.570818 0.006554 0.072975
H42   H     H_    0.847850 0.579308 0.392438 0.065846
H43   H     H_    0.381072 0.466009 0.599968 0.076570
H44   H     H_    0.850793 0.118726 0.434652 0.101938
H45   H     H_    0.186812 0.772725 0.603358 0.032827
H46   H     H_    0.970644 0.964004 0.430309 0.107472
H47   H     H_    0.220939 0.042816 0.569622 0.097064
H48   H     H_    0.337190 0.888841 0.563815 0.095337
H49   H     H_    0.382883 0.306318 0.519710 0.066271
H50   H     H_    0.105917 0.298445 0.715730 0.137414
H51   H     H_    0.821398 0.704944 0.490521 0.076726
H52   H     H_    0.199311 0.182615 0.717464 0.114943
H53   H     H_    0.338121 0.288683 0.424457 0.006702
H54   H     H_    0.132985 0.285203 0.445541 0.070032
H55   H     H_    0.645146 0.899525 0.618870 0.144413
H56   H     H_    0.286791 0.681327 0.634062 0.000139
H57   H     H_    0.860258 0.892614 0.603087 0.116427
H58   H     H_    0.803523 0.847236 0.656834 0.154079
H59   H     H_    0.899343 0.993023 0.686685 0.130657
H60   H     H_    0.681742 0.000634 0.697079 0.135287
H61   H     H_    0.626678 0.065443 0.614955 0.121303
H62   H     H_    0.845932 0.065990 0.611096 0.139777
H63   H     H_    0.068488 0.855000 0.680835 0.044432
H64   H     H_    0.284144 0.824237 0.689859 0.048987
H65   H     H_    0.819668 0.355425 0.386758 0.017071
N1    N     N_R   0.950488 0.509997 0.202700 -0.420584
N2    N     N_R   0.275670 0.510205 0.796077 -0.426320
O1    O     O_2   0.906480 0.548660 0.619050 -0.486665
O2    O     O_2   0.193377 0.822380 0.470178 -0.490839
O3    O     O_3   0.068333 0.803976 0.379633 -0.610047
O4    O     O_3   0.138490 0.548590 0.558870 -0.470138
O5    O     O_3   0.572560 0.389960 0.472890 -0.487939
O6    O     O_2   0.345660 0.723580 0.528500 -0.445397
O7    O     O_3   0.510955 0.751791 0.611844 -0.681377
O8    O     O_2   0.354679 0.567983 0.327803 -0.437254
O9    O     O_3   0.483253 0.715550 0.331860 -0.605390
O10   O     O_2   0.225666 0.493729 0.220067 -0.575270
O11   O     O_2   0.512251 0.417824 0.810337 -0.593039
O12   O     O_3   0.664548 0.262370 0.391757 -0.641319
O13   O     O_2   0.684649 0.517135 0.174178 -0.612919
O14   O     O_2   0.030072 0.600306 0.790436 -0.545907
O15   O     O_3   0.686300 0.382310 0.585700 -0.487491
O16   O     O_2   0.849976 0.427354 0.670693 -0.489608
O17   O     O_3   0.028034 0.694217 0.622885 -0.639094
O18   O     O_3   0.643093 0.318106 0.676527 -0.605620
O19   O     O_2   0.844040 0.276390 0.471470 -0.474496
O20   O     O_3   0.101510 0.335500 0.560330 -0.472099
O21   O     O_2   0.001523 0.177510 0.531781 -0.490636
O22   O     O_3   0.123032 0.205425 0.623326 -0.607774
O23   O     O_2   0.283210 0.451310 0.380920 -0.460814
O24   O     O_3   0.051220 0.451340 0.441120 -0.491954
O25   O     O_3   0.503410 0.617620 0.414290 -0.485463
O26   O     O_3   0.153302 0.306191 0.371993 -0.637696
O27   O     O_3   0.617150 0.609960 0.527100 -0.474647
O28   O     O_3   0.088210 0.664420 0.439670 -0.480976
P1    P     P_3+3 0.071950 0.575820 0.612140 1.030320
P2    P     P_3+3 0.664370 0.290050 0.457240 0.975714
P3    P     P_3+3 0.143509 0.220357 0.561083 0.935614
P4    P     P_3+3 0.117760 0.424110 0.387850 0.990199
P5    P     P_3+3 0.049588 0.781787 0.440736 0.943293
P6    P     P_3+3 0.675109 0.412821 0.651034 0.981189
P7    P     P_3+3 0.530116 0.723666 0.546705 0.919256
P8    P     P_3+3 0.511169 0.607342 0.349125 0.987001

loop_
_geom_bond_atom_site_label_1
_geom_bond_atom_site_label_2
_ccdc_geom_bond_type
C2    O13   D    
C53   C54   A    
O15   P6    S    
Ba1   O15   S    
Ba1   O4    S    
C1    C66   S    
C65   H3    S    
C19   C24   A    
C67   H22   S    
C4    O22   S    
C55   C60   A    
C52   C63   S    
C70   H24   S    
Ba2   O4    S    
C24   C25   A    
O7    P7    S    
C8    N1    S    
C67   O9    S    
C17   C19   A    
C56   H19   S    
C22   C24   A    
C28   O26   S    
C32   C33   S    
C35   C38   A    
Ba2   P4    S    
C36   C37   A    
C2    N1    Am   
C70   H27   S    
O24   P4    S    
C21   H31   S    
Ba1   P1    S    
C54   C55   A    
C5    P8    S    
Ba1   Ba2   S    
C59   C61   A    
C22   C27   A    
C11   C38   A    
Ba1   O1    S    
C17   C35   A    
C69   H58   S    
O4    P1    S    
O20   P3    S    
C9    C13   A    
C25   C42   A    
C46   C49   A    
C64   H65   S    
C6    C7    D    
C1    H7    S    
C26   O14   D    
O28   P5    S    
C44   P5    S    
C68   C69   S    
C40   H12   S    
C12   H6    S    
C11   H29   S    
C7    C8    S    
Ba2   O25   S    
C15   H43   S    
C37   C43   A    
C63   H63   S    
C57   H48   S    
C64   C65   S    
Ba1   O20   S    
C57   C58   A    
C6    C14   D    
O18   P6    S    
C52   H45   S    
C71   O10   D    
Ba1   O5    S    
C59   C60   A    
C65   H4    S    
C15   C31   D    
C4    C16   S    
C31   P1    S    
C14   H42   S    
C50   P2    S    
C40   H34   S    
C48   C49   A    
C44   C46   A    
Ba1   O19   S    
C34   H13   S    
C52   H56   S    
C30   P6    S    
C28   H54   S    
C46   C55   A    
C17   C20   A    
C65   H5    S    
C13   C39   A    
C51   H49   S    
C40   H23   S    
Ba2   O23   S    
C3    C5    S    
C18   C37   A    
C6    P4    S    
O17   P1    S    
Ba2   O28   S    
Ba1   O27   S    
Ba2   O6    S    
C20   H32   S    
C45   O3    S    
Ba1   P2    S    
C63   Cl1   S    
C44   C62   A    
C58   C59   A    
C4    H26   S    
C69   H55   S    
C67   C70   S    
C41   C42   A    
C35   C36   A    
C52   O17   S    
C43   H41   S    
C29   C30   S    
Ba1   O24   S    
C21   C22   A    
C47   C50   A    
C27   N2    Am   
C53   C62   A    
O12   P2    S    
O8    P8    D    
C49   H46   S    
O23   P4    D    
O25   P8    S    
C18   C19   A    
C66   H62   S    
O22   P3    S    
Ba2   O24   S    
C7    H28   S    
C1    C12   S    
C33   N2    S    
O9    P8    S    
C63   H64   S    
C5    C14   S    
O6    P7    D    
O16   P6    D    
C42   H39   S    
C62   H51   S    
C39   H36   S    
C38   H33   S    
C23   H8    S    
C45   H16   S    
C29   C33   D    
C32   H40   S    
Ba2   O27   S    
C18   C41   A    
C50   C51   A    
C23   H9    S    
O27   P7    S    
C28   H53   S    
C47   C60   A    
C1    H14   S    
C48   H44   S    
C16   H15   S    
C45   H17   S    
C66   H61   S    
C67   H21   S    
C64   O12   S    
C9    C10   A    
C71   N1    Am   
C34   H11   S    
Ba2   O5    S    
C54   C57   A    
O26   P4    S    
C12   O18   S    
C29   H30   S    
C2    C13   A    
C56   H20   S    
C3    C8    D    
C16   H52   S    
C27   O11   D    
C51   C61   A    
C61   P3    S    
C3    H35   S    
C34   H10   S    
C68   H59   S    
O19   P2    D    
C31   C32   D    
C23   O7    S    
C58   H47   S    
O5    P2    S    
C53   P7    S    
C23   C34   S    
C69   H57   S    
C41   H37   S    
O21   P3    D    
C10   C11   A    
C66   C68   S    
C47   C48   A    
O3    P5    S    
C25   C26   A    
C68   H60   S    
C15   C30   S    
C39   C43   A    
C20   C21   A    
C28   C40   S    
C9    C36   A    
C4    H38   S    
C26   N2    Am   
O2    P5    D    
C10   C71   A    
C56   H18   S    
C64   H2    S    
O1    P1    D    
C12   H1    S    
C16   H50   S    
C45   C56   S    
C70   H25   S    
