data_mof_unit_30560.cif
_audit_creation_date              2012-12-10T16:54:32-0500
_audit_creation_method            fapswitch 2.2
_symmetry_space_group_name_H-M    P1
_symmetry_Int_Tables_number       1
_space_group_crystal_system       triclinic
_cell_length_a                    15.015031
_cell_length_b                    10.905449
_cell_length_c                    9.900228
_cell_angle_alpha                 91.309679
_cell_angle_beta                  91.245483
_cell_angle_gamma                 92.517214
_cell_volume                      1618.71225189

loop_
_atom_site_label
_atom_site_type_symbol
_atom_type_description
_atom_site_fract_x
_atom_site_fract_y
_atom_site_fract_z
_atom_type_partial_charge
C1    C     C_R   0.499340 0.265930 0.498945 0.830724
C2    C     C_R   0.909607 0.590501 0.586149 0.104208
C3    C     C_R   0.946877 0.347851 0.323682 -0.207882
C4    C     C_R   0.039648 0.349840 0.322577 -0.196941
C5    C     C_R   0.089950 0.431087 0.408789 0.125236
C6    C     C_R   0.046921 0.512129 0.496707 0.004420
C7    C     C_R   0.097314 0.594976 0.582998 0.079815
C8    C     C_R   0.053166 0.675546 0.668885 -0.224221
C9    C     C_R   0.959864 0.674257 0.671209 0.132208
C10   C     C_R   0.182650 0.431354 0.409441 -0.283252
C11   C     C_R   0.232969 0.510508 0.497240 -0.096442
C12   C     C_R   0.329504 0.503249 0.499046 0.794274
C13   C     C_R   0.190891 0.595005 0.582544 0.102514
C14   C     C_2   0.520680 0.932348 0.394721 -0.152596
C15   C     C_2   0.509647 0.867202 0.506812 -0.328146
C16   C     C_2   0.527096 0.066775 0.397874 -0.166138
C17   C     C_2   0.494310 0.133316 0.498744 -0.305852
C18   C     C_2   0.440405 0.440532 0.921069 0.241263
C19   C     C_2   0.449811 0.424711 0.073289 0.201129
C20   C     C_R   0.502474 0.734266 0.501495 0.828887
C21   C     C_R   0.670657 0.500445 0.500948 0.799191
C22   C     C_R   0.816343 0.585320 0.586814 -0.243773
C23   C     C_R   0.767381 0.502154 0.501922 -0.072134
C24   C     C_R   0.810532 0.424278 0.413203 -0.234275
C25   C     C_R   0.903351 0.426951 0.411169 0.124975
C26   C     C_R   0.953326 0.509957 0.498145 0.024844
Cu1   Cu    Cu3+1 0.500020 0.500020 0.638630 0.928543
Cu2   Cu    Cu3+1 0.499980 0.499980 0.361370 0.920479
H1    H     H_    0.781259 0.648149 0.650186 0.160196
H2    H     H_    0.509456 0.910781 0.606283 0.150588
H3    H     H_    0.558420 0.111605 0.313490 0.161393
H4    H     H_    0.462486 0.091263 0.584396 0.143104
H5    H     H_    0.496555 0.589279 0.130070 0.182213
H6    H     H_    0.771644 0.360929 0.346815 0.142494
H7    H     H_    0.909136 0.284093 0.256524 0.142302
H8    H     H_    0.072105 0.287445 0.254695 0.141174
H9    H     H_    0.215967 0.367870 0.343635 0.138585
H10   H     H_    0.091005 0.739789 0.735217 0.177652
H11   H     H_    0.527409 0.886522 0.297131 0.166343
N1    N     N_2   0.499020 0.498660 0.846910 -0.148713
N2    N     N_2   0.499000 0.498630 0.153040 -0.341776
O1    O     O_R   0.500020 0.321960 0.617040 -0.583800
O2    O     O_R   0.499980 0.321920 0.382900 -0.576385
O3    O     O_R   0.370270 0.499990 0.617090 -0.599128
O4    O     O_R   0.370240 0.499950 0.382940 -0.594224
O5    O     O_R   0.500020 0.678080 0.617100 -0.584484
O6    O     O_R   0.499980 0.678040 0.382960 -0.580589
O7    O     O_R   0.629760 0.500050 0.617060 -0.571300
O8    O     O_R   0.629730 0.500010 0.382910 -0.566440
N3    N     N_3   0.364786 0.376274 0.857128 -0.615270
H12   H     H_    0.318024 0.439322 0.828740 0.230709
H13   H     H_    0.383769 0.322232 0.775640 0.264554
C27   C     C_3   0.566777 0.582919 0.915562 -0.184715
C28   C     C_3   0.646580 0.634761 0.840053 -0.723823
H14   H     H_    0.694944 0.562471 0.821544 0.250362
H15   H     H_    0.628871 0.686298 0.749833 0.264795
H16   H     H_    0.683264 0.703208 0.907882 0.186286
H17   H     H_    0.533028 0.665960 0.951306 0.142946
H18   H     H_    0.602734 0.533185 0.994710 0.175841
C29   C     C_3   0.396366 0.316418 0.128553 -0.280897
C30   C     C_3   0.439890 0.196001 0.094790 -0.832841
H19   H     H_    0.432153 0.173531 0.985092 0.249367
H20   H     H_    0.512112 0.203443 0.121236 0.251476
H21   H     H_    0.407679 0.120286 0.151848 0.237447
H22   H     H_    0.384548 0.325214 0.236767 0.237862
H23   H     H_    0.327445 0.312461 0.085256 0.178472
N4    N     N_3   0.242083 0.683849 0.665014 -0.612303
H24   H     H_    0.275860 0.638819 0.741194 0.237557
H25   H     H_    0.288309 0.730247 0.604845 0.221475
N5    N     N_3   0.916075 0.757146 0.760391 -0.600773
H26   H     H_    0.887584 0.823585 0.700687 0.212802
H27   H     H_    0.962383 0.803866 0.825536 0.218405

loop_
_geom_bond_atom_site_label_1
_geom_bond_atom_site_label_2
_ccdc_geom_bond_type
Cu1   O7    S    
C2    C22   A    
C30   H21   S    
N3    H13   S    
C11   C12   S    
C4    H8    S    
Cu2   O6    S    
N5    H26   S    
C12   O4    A    
C22   H1    S    
C19   C29   S    
Cu2   O8    S    
Cu2   N2    S    
Cu2   O2    S    
C1    C17   S    
C3    H7    S    
Cu1   N1    S    
C27   H17   S    
C21   O7    A    
H5    N2    S    
C21   O8    A    
N3    H12   S    
C27   H18   S    
C29   H23   S    
C5    C10   A    
C2    C26   A    
C27   C28   S    
C24   C25   A    
C16   H3    S    
C11   C13   A    
Cu1   O1    S    
C28   H14   S    
C6    C26   A    
C8    H10   S    
C29   C30   S    
C10   H9    S    
C5    C6    A    
Cu1   O5    S    
C29   H22   S    
N1    C27   S    
C6    C7    A    
C28   H15   S    
C21   C23   S    
C30   H19   S    
C14   H11   S    
C14   C16   S    
Cu2   O4    S    
C20   O6    A    
C7    C8    A    
C10   C11   A    
C23   C24   A    
N4    H24   S    
C19   N2    D    
C1    O1    A    
C3    C25   A    
C9    N5    S    
C18   N3    S    
C15   H2    S    
C15   C20   S    
C18   C19   S    
C13   N4    S    
C12   O3    A    
Cu1   Cu2   S    
C30   H20   S    
C17   H4    S    
C18   N1    D    
C22   C23   A    
C4    C5    A    
N5    H27   S    
C7    C13   A    
C25   C26   A    
C14   C15   D    
C2    C9    A    
Cu1   O3    S    
C1    O2    A    
C20   O5    A    
C3    C4    A    
C16   C17   D    
C8    C9    A    
N4    H25   S    
C28   H16   S    
C24   H6    S    
