data_mof_unit_26820.cif
_audit_creation_date              2012-12-11T17:08:27-0500
_audit_creation_method            fapswitch 2.2
_symmetry_space_group_name_H-M    P1
_symmetry_Int_Tables_number       1
_space_group_crystal_system       triclinic
_cell_length_a                    6.966877
_cell_length_b                    14.497285
_cell_length_c                    16.092614
_cell_angle_alpha                 89.998135
_cell_angle_beta                  90.021398
_cell_angle_gamma                 90.024217
_cell_volume                      1625.3666517

loop_
_atom_site_label
_atom_site_type_symbol
_atom_type_description
_atom_site_fract_x
_atom_site_fract_y
_atom_site_fract_z
_atom_type_partial_charge
O1    O     O_R   0.505700 0.583890 0.413310 -0.537041
O2    O     O_R   0.175960 0.594920 0.586080 -0.542312
O3    O     O_R   0.005660 0.416110 0.586690 -0.537043
C1    C     C_R   0.344724 0.617053 0.614715 0.692516
O4    O     O_R   0.175980 0.594920 0.413930 -0.542386
O5    O     O_R   0.005680 0.416110 0.413310 -0.543654
C2    C     C_R   0.344717 0.617114 0.385334 0.693062
O6    O     O_R   0.505680 0.583890 0.586690 -0.537511
O7    O     O_3   0.339200 0.441330 0.500000 -0.368421
V1    V     V_3+5 0.064350 0.510880 0.500000 1.381562
O8    O     O_R   0.675960 0.405080 0.413920 -0.538652
C3    C     C_R   0.844995 0.382901 0.385371 0.691256
O9    O     O_R   0.675940 0.405080 0.586070 -0.540471
C4    C     C_R   0.844700 0.383275 0.614966 0.692528
V2    V     V_3+5 0.564340 0.489120 0.500000 1.395882
O10   O     O_3   0.839360 0.558670 0.500000 -0.369725
C5    C     C_R   0.012864 0.255515 0.691751 0.097344
C6    C     C_R   0.853208 0.313043 0.681797 -0.108967
C7    C     C_R   0.699296 0.300931 0.737322 -0.177787
H1    H     H_    0.575169 0.345166 0.733031 0.132653
C8    C     C_R   0.710671 0.236770 0.802926 -0.182221
H2    H     H_    0.593711 0.232535 0.846849 0.131621
C9    C     C_R   0.876936 0.183229 0.815243 -0.108883
C10   C     C_R   0.024136 0.191724 0.756535 0.098606
C11   C     C_3   0.231089 0.211776 0.770718 -0.418723
C12   C     C_3   0.218331 0.281753 0.700846 -0.401062
H3    H     H_    0.323462 0.151602 0.755461 0.173135
H4    H     H_    0.257329 0.243656 0.832519 0.170410
H5    H     H_    0.305600 0.262898 0.645718 0.191519
H6    H     H_    0.235678 0.354227 0.722252 0.163426
C13   C     C_R   0.744805 0.175751 0.247574 0.070920
C14   C     C_R   0.883510 0.182513 0.185104 -0.093732
C15   C     C_R   0.026543 0.250476 0.195948 -0.177993
H7    H     H_    0.143066 0.256440 0.151778 0.121019
C16   C     C_R   0.013814 0.315364 0.261271 -0.195142
H8    H     H_    0.121286 0.369179 0.265249 0.120888
C17   C     C_R   0.859519 0.313138 0.318431 -0.123907
C18   C     C_R   0.734769 0.237680 0.312865 0.062581
C19   C     C_3   0.522013 0.225741 0.320859 -0.166109
C20   C     C_3   0.534025 0.158260 0.247506 -0.423703
H9    H     H_    0.442218 0.289943 0.305319 0.127801
H10   H     H_    0.463503 0.184687 0.190313 0.168451
H11   H     H_    0.499541 0.085334 0.263014 0.166022
C21   C     C_R   0.508237 0.748395 0.688980 0.100528
C22   C     C_R   0.352609 0.687795 0.681144 -0.110284
C23   C     C_R   0.200414 0.698086 0.737985 -0.179626
H12   H     H_    0.077424 0.652879 0.734455 0.129628
C24   C     C_R   0.212026 0.762010 0.803812 -0.181203
H13   H     H_    0.096619 0.764907 0.848622 0.128884
C25   C     C_R   0.376763 0.817060 0.815057 -0.109918
C26   C     C_R   0.520100 0.811364 0.754289 0.096657
C27   C     C_3   0.730156 0.795900 0.764270 -0.413965
C28   C     C_3   0.717293 0.727645 0.692827 -0.396238
H14   H     H_    0.764931 0.762888 0.824751 0.170100
H15   H     H_    0.815418 0.858478 0.749009 0.171191
H16   H     H_    0.745372 0.655132 0.711715 0.166097
H17   H     H_    0.794463 0.750936 0.636130 0.173082
C29   C     C_R   0.507907 0.748740 0.311326 0.104904
C30   C     C_R   0.352558 0.687926 0.318958 -0.110719
C31   C     C_R   0.200516 0.698110 0.261974 -0.178784
H18   H     H_    0.077618 0.652829 0.265390 0.129084
C32   C     C_R   0.212206 0.762020 0.196140 -0.179006
H19   H     H_    0.096947 0.764813 0.151211 0.128301
C33   C     C_R   0.376838 0.817186 0.185048 -0.109910
C34   C     C_R   0.519793 0.811728 0.246042 0.100343
C35   C     C_3   0.730080 0.796749 0.236479 -0.415247
C36   C     C_3   0.717202 0.728428 0.307888 -0.396309
H20   H     H_    0.814559 0.859524 0.251926 0.173698
H21   H     H_    0.765715 0.763849 0.176061 0.169856
H22   H     H_    0.793669 0.751860 0.364739 0.174265
H23   H     H_    0.746091 0.655983 0.289046 0.166486
O11   O     O_R   0.229000 0.916070 0.913330 -0.539504
O12   O     O_R   0.558770 0.905070 0.086080 -0.539536
O13   O     O_R   0.729000 0.083900 0.086690 -0.536194
C37   C     C_R   0.389780 0.883064 0.114819 0.695526
O14   O     O_R   0.558720 0.905070 0.913930 -0.539285
O15   O     O_R   0.728960 0.083900 0.913310 -0.539370
C38   C     C_R   0.389680 0.882995 0.885255 0.694817
O16   O     O_R   0.229050 0.916070 0.086710 -0.538793
O17   O     O_3   0.395460 0.058650 0.000020 -0.371116
V3    V     V_3+5 0.670340 0.989120 0.000000 1.391158
O18   O     O_R   0.058670 0.094960 0.913900 -0.539736
C39   C     C_R   0.889639 0.117100 0.885303 0.694171
O19   O     O_R   0.058720 0.094960 0.086050 -0.542893
C40   C     C_R   0.890143 0.116864 0.114762 0.697573
V4    V     V_3+5 0.170330 0.010930 0.999970 1.388505
O20   O     O_3   0.895340 0.941350 0.999980 -0.371222
C41   C     C_R   0.458973 0.179745 0.401127 0.145303
C42   C     C_R   0.571703 0.112127 0.441103 -0.136998
C43   C     C_R   0.504946 0.068570 0.513076 -0.129374
C44   C     C_R   0.324471 0.090707 0.545148 -0.104625
C45   C     C_R   0.211077 0.156920 0.505619 -0.142318
C46   C     C_R   0.278854 0.201873 0.434674 -0.104321
H24   H     H_    0.710461 0.092545 0.416552 0.110160
H25   H     H_    0.592516 0.017010 0.543569 0.109902
H26   H     H_    0.272386 0.056536 0.600544 0.108227
H27   H     H_    0.070635 0.173691 0.530013 0.109530
H28   H     H_    0.189665 0.253160 0.405346 0.120761

loop_
_geom_bond_atom_site_label_1
_geom_bond_atom_site_label_2
_ccdc_geom_bond_type
C35   H20   S    
C4    C6    S    
C7    H1    S    
C1    O6    A    
C43   H25   S    
C19   H9    S    
C22   C23   A    
C21   C22   A    
C11   H4    S    
C17   C18   A    
C9    C39   S    
C5    C12   S    
C7    C8    A    
O19   V4    S    
O5    C3    A    
C18   C19   S    
C35   H21   S    
O15   C39   A    
V2    O10   S    
C3    C17   S    
C13   C20   S    
C31   C32   A    
C6    C7    A    
C2    C30   S    
C42   H24   S    
O17   V4    S    
C44   H26   S    
C41   C46   A    
O8    V2    S    
C21   C28   S    
C20   H11   S    
C16   H8    S    
C32   C33   A    
C9    C10   A    
O1    V2    S    
O7    V1    S    
C27   H15   S    
C20   H10   S    
C35   C36   S    
C30   C31   A    
O9    C4    A    
O12   C37   A    
C19   C41   S    
C25   C38   S    
O12   V3    S    
C27   H14   S    
C45   H27   S    
C5    C6    A    
C1    C22   S    
C23   C24   A    
C5    C10   A    
C26   C27   S    
C10   C11   S    
C44   C45   A    
O4    C2    A    
C28   H17   S    
V4    O20   S    
C25   C26   A    
C11   C12   S    
O18   V4    S    
C31   H18   S    
O2    C1    A    
C32   H19   S    
C29   C34   A    
C13   C14   A    
O15   V3    S    
C15   H7    S    
O19   C40   A    
V3    O20   S    
O3    C4    A    
C21   C26   A    
C24   H13   S    
C12   H6    S    
O6    V2    S    
C8    C9    A    
O13   V3    S    
O2    V1    S    
C19   C20   S    
C27   C28   S    
C28   H16   S    
C23   H12   S    
C16   C17   A    
O1    C2    A    
O14   C38   A    
O17   V3    S    
O14   V3    S    
O5    V1    S    
O11   V4    S    
O8    C3    A    
C11   H3    S    
C13   C18   A    
C36   H22   S    
C14   C15   A    
O9    V2    S    
C29   C30   A    
O4    V1    S    
O3    V1    S    
V1    O10   S    
C33   C34   A    
C43   C44   A    
C14   C40   S    
C24   C25   A    
C45   C46   A    
C15   C16   A    
C33   C37   S    
C36   H23   S    
C34   C35   S    
O13   C40   A    
O7    V2    S    
C29   C36   S    
C41   C42   A    
C12   H5    S    
O18   C39   A    
O11   C38   A    
C42   C43   A    
C8    H2    S    
C37   O16   A    
C46   H28   S    
O16   V4    S    
