data_mof_unit_49418.cif
_audit_creation_date              2012-12-10T19:00:49-0500
_audit_creation_method            fapswitch 2.2
_symmetry_space_group_name_H-M    P1
_symmetry_Int_Tables_number       1
_space_group_crystal_system       triclinic
_cell_length_a                    15.075993
_cell_length_b                    10.821873
_cell_length_c                    9.545214
_cell_angle_alpha                 90.099027
_cell_angle_beta                  90.202889
_cell_angle_gamma                 90.283635
_cell_volume                      1557.27504226

loop_
_atom_site_label
_atom_site_type_symbol
_atom_type_description
_atom_site_fract_x
_atom_site_fract_y
_atom_site_fract_z
_atom_type_partial_charge
C1    C     C_R   0.498121 0.262340 0.499851 0.798867
C2    C     C_R   0.185469 0.465583 0.377455 -0.223902
C3    C     C_R   0.231918 0.499775 0.499119 -0.068322
C4    C     C_R   0.328678 0.499808 0.499757 0.803952
C5    C     C_R   0.185790 0.534171 0.620157 -0.240392
C6    C     C_R   0.488873 0.063913 0.625402 0.109196
C7    C     C_R   0.489012 0.129244 0.499510 -0.086122
C8    C     C_R   0.476825 0.064107 0.373256 -0.207595
C9    C     C_R   0.477177 0.935255 0.373348 -0.202162
C10   C     C_R   0.489762 0.870822 0.499680 -0.094701
C11   C     C_R   0.489495 0.936713 0.625453 0.089278
C12   C     C_R   0.907737 0.536856 0.618980 0.113451
C13   C     C_3   0.552538 0.931729 0.746337 -0.370485
C14   C     C_3   0.551254 0.071941 0.746989 -0.470448
C15   C     C_R   0.548478 0.585855 0.074312 0.154805
C16   C     C_R   0.498529 0.737714 0.499988 0.812669
C17   C     C_R   0.446171 0.422708 0.073971 -0.066376
C18   C     C_R   0.446176 0.422683 0.925088 -0.086666
C19   C     C_R   0.548760 0.585514 0.926671 0.208462
C20   C     C_3   0.647142 0.599470 0.923823 0.388509
C21   C     C_3   0.646459 0.602561 0.082091 -0.497704
C22   C     C_R   0.671408 0.499868 0.500058 0.829591
C23   C     C_R   0.953705 0.427446 0.254364 0.147233
C24   C     C_R   0.815493 0.537401 0.618500 -0.205403
C25   C     C_R   0.768357 0.499457 0.499477 -0.093930
C26   C     C_R   0.813863 0.461717 0.379072 -0.205613
C27   C     C_R   0.906595 0.462609 0.375628 0.064296
C28   C     C_R   0.953625 0.499700 0.497364 0.030033
C29   C     C_R   0.046314 0.429143 0.255696 -0.226980
C30   C     C_R   0.092982 0.464682 0.376343 0.068405
C31   C     C_R   0.046656 0.499878 0.497881 0.065691
C32   C     C_R   0.093392 0.535327 0.620125 0.112922
C33   C     C_R   0.047061 0.571744 0.740105 -0.197217
C34   C     C_R   0.954716 0.573263 0.739210 -0.155851
Cu1   Cu    Cu3+1 0.500000 0.499980 0.640670 0.964023
Cu2   Cu    Cu3+1 0.500000 0.500020 0.359330 0.949770
F1    F     F_    0.673083 0.711099 0.866489 -0.677941
H1    H     H_    0.780617 0.568819 0.710348 0.190386
H2    H     H_    0.680708 0.521769 0.128132 0.186567
H3    H     H_    0.776331 0.430342 0.289289 0.178567
H4    H     H_    0.665510 0.693612 0.127471 0.226090
H5    H     H_    0.081897 0.402361 0.162057 0.167008
H6    H     H_    0.221258 0.438346 0.284085 0.149969
H7    H     H_    0.221759 0.561474 0.713913 0.155103
H8    H     H_    0.082230 0.599405 0.834379 0.151307
H9    H     H_    0.919976 0.602391 0.832732 0.179789
H10   H     H_    0.471380 0.112034 0.274087 0.162124
H11   H     H_    0.471882 0.886872 0.274213 0.167839
H12   H     H_    0.521810 0.890134 0.841002 0.210560
H13   H     H_    0.618035 0.893206 0.716511 0.252245
H14   H     H_    0.519048 0.111446 0.841498 0.198731
H15   H     H_    0.616123 0.114457 0.719016 0.212526
H16   H     H_    0.403932 0.358390 0.129499 0.131533
H17   H     H_    0.403941 0.358344 0.868870 0.144400
H18   H     H_    0.681636 0.517580 0.880398 0.105767
I1    I     I_    0.891261 0.372049 0.063911 -0.452234
N1    N     N_R   0.500570 0.500930 0.147930 -0.177399
N2    N     N_R   0.500570 0.500890 0.852020 -0.217642
O1    O     O_R   0.500000 0.319640 0.618810 -0.583535
O2    O     O_R   0.500010 0.319680 0.381230 -0.588055
O3    O     O_R   0.370250 0.499950 0.618800 -0.588564
O4    O     O_R   0.370260 0.499990 0.381220 -0.588309
O5    O     O_R   0.499990 0.680320 0.618770 -0.561154
O6    O     O_R   0.500000 0.680360 0.381190 -0.582722
O7    O     O_R   0.629740 0.500010 0.618780 -0.579196
O8    O     O_R   0.629750 0.500050 0.381200 -0.585044

loop_
_geom_bond_atom_site_label_1
_geom_bond_atom_site_label_2
_ccdc_geom_bond_type
C24   H1    S    
C22   O7    A    
C6    C7    A    
C34   H9    S    
C16   O5    A    
C23   C27   A    
C29   H5    S    
C6    C14   S    
C17   H16   S    
C11   C13   S    
C9    C10   A    
C12   C24   A    
Cu2   O6    S    
C31   C32   A    
C21   H2    S    
C15   C21   S    
C2    H6    S    
C2    C30   A    
C5    C32   A    
C32   C33   A    
C3    C5    A    
C19   C20   S    
Cu1   O5    S    
C17   C18   A    
C8    H10   S    
C23   I1    S    
Cu1   O3    S    
C10   C16   S    
C13   C14   S    
C24   C25   A    
C15   C19   A    
C20   F1    S    
C15   N1    A    
C6    C11   A    
C26   H3    S    
C26   C27   A    
C29   C30   A    
C12   C28   A    
C20   H18   S    
C13   H12   S    
C23   C29   A    
C5    H7    S    
C33   C34   A    
C2    C3    A    
C1    O1    A    
C19   N2    A    
C30   C31   A    
Cu2   O8    S    
C10   C11   A    
Cu1   O7    S    
C12   C34   A    
C13   H13   S    
C4    O4    A    
C7    C8    A    
C33   H8    S    
C20   C21   S    
C9    H11   S    
Cu1   O1    S    
Cu2   N1    S    
C21   H4    S    
C1    O2    A    
C27   C28   A    
C18   H17   S    
C22   O8    A    
Cu1   N2    S    
Cu1   Cu2   S    
C16   O6    A    
Cu2   O2    S    
C25   C26   A    
C1    C7    S    
C4    O3    A    
C18   N2    A    
C28   C31   A    
C14   H15   S    
C3    C4    S    
C14   H14   S    
C17   N1    A    
C8    C9    A    
Cu2   O4    S    
C22   C25   S    
