data_mof_unit_21310.cif
_audit_creation_date              2012-12-11T14:10:21-0500
_audit_creation_method            fapswitch 2.2
_symmetry_space_group_name_H-M    P1
_symmetry_Int_Tables_number       1
_space_group_crystal_system       triclinic
_cell_length_a                    6.93897
_cell_length_b                    14.776063
_cell_length_c                    16.380757
_cell_angle_alpha                 90.165666
_cell_angle_beta                  90.175607
_cell_angle_gamma                 89.899732
_cell_volume                      1679.51233669

loop_
_atom_site_label
_atom_site_type_symbol
_atom_type_description
_atom_site_fract_x
_atom_site_fract_y
_atom_site_fract_z
_atom_type_partial_charge
O1    O     O_R   0.505720 0.582850 0.414440 -0.550041
O2    O     O_R   0.175970 0.593740 0.584970 -0.555694
O3    O     O_R   0.005630 0.417150 0.585560 -0.542105
C1    C     C_R   0.344871 0.613101 0.614729 0.651308
O4    O     O_R   0.176010 0.593740 0.415050 -0.539801
O5    O     O_R   0.005680 0.417150 0.414430 -0.554037
C2    C     C_R   0.344662 0.611581 0.384255 0.686543
O6    O     O_R   0.505680 0.582850 0.585570 -0.522025
O7    O     O_3   0.339190 0.442060 0.500000 -0.367650
V1    V     V_3+5 0.064350 0.510750 0.500000 1.416662
O8    O     O_R   0.675960 0.406260 0.415030 -0.533539
C3    C     C_R   0.844945 0.383295 0.387985 0.625834
O9    O     O_R   0.675920 0.406260 0.584950 -0.516522
C4    C     C_R   0.845143 0.386694 0.614416 0.763040
V2    V     V_3+5 0.564340 0.489250 0.500000 1.461756
O10   O     O_3   0.839370 0.557940 0.500000 -0.373474
C5    C     C_2   0.744113 0.236533 0.801849 -0.123345
C6    C     C_2   0.876312 0.168033 0.810655 -0.235261
C7    C     C_2   0.712165 0.284750 0.722259 0.519915
C8    C     C_2   0.861421 0.327238 0.686607 -0.359263
H1    H     H_    0.003773 0.320295 0.713570 0.110651
C9    C     C_2   0.003489 0.299649 0.275555 -0.209024
C10   C     C_2   0.852972 0.308041 0.327648 0.279413
H2    H     H_    0.124673 0.345636 0.281641 0.116262
C11   C     C_2   0.023589 0.226973 0.212645 -0.124759
C12   C     C_2   0.872880 0.189765 0.173114 -0.293714
H3    H     H_    0.168933 0.206375 0.196571 0.144968
H4    H     H_    0.728167 0.214329 0.184455 0.189736
C13   C     C_2   0.225400 0.793385 0.780228 -0.131536
C14   C     C_2   0.388806 0.825244 0.814304 -0.294357
H5    H     H_    0.087180 0.815743 0.803868 0.142066
H6    H     H_    0.527497 0.808989 0.787843 0.191157
C15   C     C_2   0.220942 0.731735 0.707935 -0.207754
C16   C     C_2   0.359067 0.670325 0.689135 0.260838
H7    H     H_    0.092132 0.735039 0.670212 0.116228
C17   C     C_2   0.221678 0.781495 0.210713 0.487446
C18   C     C_2   0.384540 0.822523 0.184112 -0.324496
H8    H     H_    0.519596 0.810347 0.215914 0.104242
C19   C     C_2   0.223215 0.725610 0.286867 -0.269328
C20   C     C_2   0.357009 0.662278 0.306252 -0.176021
H9    H     H_    0.103647 0.736743 0.328398 0.133928
O11   O     O_R   0.230590 0.917060 0.914490 -0.544225
O12   O     O_R   0.560420 0.906240 0.084970 -0.543049
O13   O     O_R   0.730590 0.082870 0.085560 -0.542922
C21   C     C_R   0.391587 0.885371 0.113731 0.755317
O14   O     O_R   0.560310 0.906240 0.915050 -0.545081
O15   O     O_R   0.730490 0.082870 0.914420 -0.542790
C22   C     C_R   0.391940 0.886600 0.885546 0.708652
O16   O     O_R   0.230690 0.917070 0.085620 -0.510316
O17   O     O_3   0.397030 0.057890 0.000040 -0.376094
V3    V     V_3+5 0.671930 0.989260 0.999990 1.431373
O18   O     O_R   0.060200 0.093830 0.914980 -0.542861
C23   C     C_R   0.890378 0.114767 0.886774 0.664654
O19   O     O_R   0.060300 0.093830 0.084900 -0.537216
C24   C     C_R   0.890832 0.117245 0.111385 0.728397
V4    V     V_3+5 0.171920 0.010860 0.999920 1.445777
O20   O     O_3   0.896950 0.942110 0.999960 -0.367636
C25   C     C_2   0.628507 0.268936 0.872821 0.368131
H10   H     H_    0.665543 0.249416 0.934685 0.047450
O21   O     O_2   0.490662 0.319171 0.862921 -0.534371
O22   O     O_3   0.520532 0.660119 0.738442 -0.576387
C26   C     C_3   0.502573 0.581505 0.787256 0.127451
H11   H     H_    0.646570 0.548628 0.790252 0.141172
H12   H     H_    0.401411 0.529662 0.762005 0.109681
C27   C     C_3   0.441632 0.608054 0.873960 -0.356764
H13   H     H_    0.543425 0.659371 0.898594 0.202592
H14   H     H_    0.295039 0.638194 0.872405 0.201242
C28   C     C_3   0.438795 0.526715 0.930976 -0.759259
H15   H     H_    0.329724 0.476916 0.909858 0.261800
H16   H     H_    0.399842 0.549306 0.993514 0.243344
H17   H     H_    0.583041 0.494072 0.933285 0.245948
O23   O     O_3   0.045657 0.803439 0.175342 -0.571119
C29   C     C_3   0.956141 0.724922 0.143366 0.106408
H18   H     H_    0.799894 0.739837 0.137538 0.163365
H19   H     H_    0.968158 0.665150 0.184433 0.117109
C30   C     C_3   0.034263 0.702376 0.058127 -0.312820
H20   H     H_    0.014392 0.761694 0.017411 0.207938
H21   H     H_    0.190796 0.686985 0.061888 0.209125
C31   C     C_3   0.930147 0.621088 0.021130 -0.820818
H22   H     H_    0.954913 0.559967 0.059090 0.244622
H23   H     H_    0.985671 0.607813 0.958729 0.227072
H24   H     H_    0.772972 0.634663 0.017121 0.247338
C32   C     C_2   0.509786 0.632452 0.248290 0.316435
H25   H     H_    0.644912 0.605673 0.271507 0.055558
O24   O     O_2   0.482387 0.632193 0.174618 -0.556051
C33   C     C_2   0.987239 0.129042 0.741438 0.300792
H26   H     H_    0.118130 0.091003 0.753631 0.061841
O25   O     O_2   0.928951 0.133509 0.671270 -0.568789
O26   O     O_3   0.526318 0.301668 0.694497 -0.555154
C34   C     C_3   0.429586 0.219796 0.676951 0.149181
H27   H     H_    0.273498 0.234139 0.680796 0.151877
H28   H     H_    0.460061 0.164943 0.721755 0.105529
C35   C     C_3   0.473130 0.188081 0.589828 -0.347714
H29   H     H_    0.440927 0.243661 0.546249 0.202621
H30   H     H_    0.627999 0.170644 0.584713 0.220949
C36   C     C_3   0.353116 0.105339 0.566859 -0.813464
H31   H     H_    0.374546 0.050327 0.612087 0.240060
H32   H     H_    0.396449 0.079907 0.505900 0.218017
H33   H     H_    0.198391 0.123820 0.563898 0.265918
O27   O     O_3   0.701288 0.247094 0.324466 -0.574012
C37   C     C_3   0.707807 0.189109 0.393074 0.093984
H34   H     H_    0.560553 0.161586 0.401398 0.144065
H35   H     H_    0.745647 0.225151 0.450786 0.087100
C38   C     C_3   0.846811 0.109769 0.378647 -0.325453
H36   H     H_    0.996727 0.135534 0.374259 0.195530
H37   H     H_    0.809321 0.075286 0.320352 0.207859
C39   C     C_3   0.837929 0.041118 0.447904 -0.821919
H38   H     H_    0.871626 0.074219 0.507143 0.260435
H39   H     H_    0.945212 0.986605 0.436960 0.233215
H40   H     H_    0.692482 0.010164 0.450881 0.231116

loop_
_geom_bond_atom_site_label_1
_geom_bond_atom_site_label_2
_ccdc_geom_bond_type
C35   H29   S    
C29   H19   S    
C29   H18   S    
C7    C8    D    
C30   C31   S    
C1    O6    A    
C12   C24   S    
C38   H37   S    
C19   H9    S    
C3    C10   S    
C37   H34   S    
C14   C22   S    
C17   C18   D    
C18   H8    S    
C30   H21   S    
O5    C3    A    
C33   O25   D    
C25   O21   D    
V2    O10   S    
C36   H33   S    
C13   C15   S    
V4    O20   S    
C26   H12   S    
C6    C23   S    
O11   V4    S    
O8    V2    S    
C28   H15   S    
C27   H14   S    
C9    C11   S    
C36   H32   S    
C2    C20   S    
V3    O20   S    
O7    V1    S    
C5    C25   S    
O15   C23   A    
C10   O27   S    
C6    C33   S    
C35   H30   S    
O9    C4    A    
C39   H39   S    
C20   C32   S    
C38   H36   S    
C15   C16   D    
O14   C22   A    
O19   V4    S    
C4    C8    S    
C30   H20   S    
C19   C20   D    
O4    C2    A    
C33   H26   S    
C5    C7    S    
O15   V3    S    
O17   V3    S    
C25   H10   S    
O14   V3    S    
C16   O22   S    
O17   V4    S    
O2    C1    A    
C13   C14   D    
C7    O26   S    
C34   H28   S    
C32   H25   S    
C21   O16   A    
C39   H38   S    
C27   C28   S    
C36   H31   S    
C26   H11   S    
C5    C6    D    
O11   C22   A    
C8    H1    S    
O12   C21   A    
O3    C4    A    
O1    V2    S    
O13   V3    S    
C28   H16   S    
C32   O24   D    
C35   C36   S    
O6    V2    S    
O9    V2    S    
C39   H40   S    
C9    H2    S    
C18   C21   S    
O2    V1    S    
O18   C23   A    
C34   C35   S    
C31   H23   S    
O19   C24   A    
C26   C27   S    
O1    C2    A    
C17   C19   S    
O23   C29   S    
O5    V1    S    
C31   H24   S    
O8    C3    A    
C11   H3    S    
O16   V4    S    
C12   H4    S    
C11   C12   D    
O4    V1    S    
C13   H5    S    
O3    V1    S    
V1    O10   S    
C14   H6    S    
O13   C24   A    
O12   V3    S    
C34   H27   S    
C28   H17   S    
O27   C37   S    
C15   H7    S    
C1    C16   S    
O7    V2    S    
O22   C26   S    
C31   H22   S    
C17   O23   S    
C29   C30   S    
C37   H35   S    
C27   H13   S    
C9    C10   D    
C37   C38   S    
O26   C34   S    
C38   C39   S    
O18   V4    S    
