data_mof_unit_33642.cif
_audit_creation_date              2012-12-10T17:32:55-0500
_audit_creation_method            fapswitch 2.2
_symmetry_space_group_name_H-M    P1
_symmetry_Int_Tables_number       1
_space_group_crystal_system       triclinic
_cell_length_a                    12.316687
_cell_length_b                    13.532009
_cell_length_c                    14.231582
_cell_angle_alpha                 93.451511
_cell_angle_beta                  107.579642
_cell_angle_gamma                 117.012945
_cell_volume                      1959.34698494

loop_
_atom_site_label
_atom_site_type_symbol
_atom_type_description
_atom_site_fract_x
_atom_site_fract_y
_atom_site_fract_z
_atom_type_partial_charge
C1    C     C_R   0.651644 0.712751 0.508434 0.779956
C2    C     C_R   0.886814 0.553893 0.926004 0.086955
C3    C     C_R   0.844616 0.582005 0.000641 0.070014
C4    C     C_R   0.004396 0.547990 0.955874 -0.008915
C5    C     C_R   0.067817 0.554209 0.059476 -0.055083
C6    C     C_R   0.027890 0.589728 0.132677 0.560593
C7    C     C_R   0.917841 0.602913 0.102893 -0.279252
C8    C     C_R   0.062343 0.538799 0.886062 -0.160441
C9    C     C_R   0.173363 0.527244 0.915458 -0.174207
C10   C     C_R   0.226323 0.518473 0.013765 0.146654
C11   C     C_R   0.171166 0.527921 0.085750 0.099829
C12   C     C_R   0.619929 0.518687 0.687065 0.785421
C13   C     C_R   0.332977 0.498753 0.040666 -0.184220
C14   C     C_R   0.383932 0.486007 0.137921 -0.191667
C15   C     C_R   0.216928 0.504885 0.179923 -0.147657
C16   C     C_R   0.192752 0.965582 0.420405 -0.164012
C17   C     C_R   0.249312 0.163702 0.464371 -0.165779
C18   C     C_R   0.737293 0.915852 0.576417 -0.170000
C19   C     C_R   0.838992 0.027871 0.607990 -0.149440
C20   C     C_R   0.945030 0.059107 0.578011 -0.128316
C21   C     C_R   0.946383 0.980915 0.508995 0.130991
C22   C     C_R   0.846765 0.865497 0.479782 0.092833
C23   C     C_R   0.342978 0.285723 0.482194 0.860322
C24   C     C_R   0.049866 0.014593 0.472942 -0.034595
C25   C     C_R   0.074001 0.931707 0.433836 0.113799
C26   C     C_R   0.975090 0.818057 0.402785 -0.198092
C27   C     C_R   0.857684 0.787699 0.416580 -0.188423
C28   C     C_R   0.123101 0.127040 0.466328 0.358970
C29   C     C_R   0.283935 0.081474 0.442635 -0.242230
C30   C     C_R   0.742617 0.832731 0.516780 -0.099933
C31   C     C_R   0.252898 0.674384 0.669938 0.497106
C32   C     C_R   0.655824 0.347211 0.360738 0.053361
C33   C     C_R   0.735615 0.321276 0.325113 -0.236607
C34   C     C_R   0.382543 0.484659 0.313313 0.825800
C35   C     C_R   0.871589 0.383611 0.374287 -0.140596
C36   C     C_R   0.930030 0.472048 0.461414 0.010333
C37   C     C_R   0.844196 0.497058 0.493878 0.287230
C38   C     C_R   0.069465 0.534779 0.518690 -0.100419
C39   C     C_R   0.119082 0.618806 0.607971 0.029604
C40   C     C_R   0.034754 0.646438 0.634637 -0.236607
C41   C     C_R   0.901101 0.588099 0.578239 -0.218607
C42   C     C_R   0.162472 0.515969 0.493170 0.133725
C43   C     C_R   0.336699 0.645470 0.644012 -0.044005
C44   C     C_R   0.693891 0.537989 0.795286 -0.054022
C45   C     C_R   0.325645 0.488761 0.207965 -0.079834
C46   C     C_R   0.730109 0.590277 0.972179 -0.153571
C47   C     C_R   0.655669 0.569221 0.870096 -0.180512
C48   C     C_R   0.807519 0.528992 0.823681 -0.225127
Cu1   Cu    Cu3+1 0.416420 0.526630 0.522910 1.005531
Cu2   Cu    Cu3+1 0.583580 0.473370 0.477090 0.928885
H1    H     H_    0.889642 0.629594 0.160606 0.164214
H2    H     H_    0.377297 0.493757 0.986614 0.135616
H3    H     H_    0.378195 0.106375 0.436939 0.184036
H4    H     H_    0.985405 0.754056 0.362731 0.168609
H5    H     H_    0.215541 0.902995 0.394363 0.176892
H6    H     H_    0.659062 0.892801 0.605166 0.164189
H7    H     H_    0.028121 0.143947 0.611485 0.166679
H8    H     H_    0.838164 0.089765 0.659229 0.149010
H9    H     H_    0.778321 0.702790 0.377324 0.179862
H10   H     H_    0.439214 0.686329 0.692560 0.153625
H11   H     H_    0.166394 0.495277 0.231632 0.216092
H12   H     H_    0.071891 0.713294 0.700773 0.210056
H13   H     H_    0.134110 0.458808 0.423709 0.192364
H14   H     H_    0.550572 0.299643 0.321039 0.138717
H15   H     H_    0.928367 0.360114 0.343095 0.204168
H16   H     H_    0.691947 0.253011 0.258726 0.174223
H17   H     H_    0.846071 0.617179 0.604545 0.209307
H18   H     H_    0.468620 0.474133 0.158193 0.156068
H19   H     H_    0.215560 0.521693 0.859952 0.152620
H20   H     H_    0.698166 0.613070 0.028959 0.136642
H21   H     H_    0.568254 0.577040 0.849845 0.153488
H22   H     H_    0.830727 0.499543 0.764486 0.152271
H23   H     H_    0.026903 0.544505 0.808670 0.151028
N1    N     N_R   0.290690 0.566960 0.557640 -0.220074
N2    N     N_R   0.709100 0.433710 0.442970 -0.210205
O1    O     O_R   0.545970 0.684450 0.528810 -0.576308
O2    O     O_R   0.687130 0.639470 0.490120 -0.617215
O3    O     O_R   0.519670 0.535100 0.660030 -0.588100
O4    O     O_R   0.660830 0.490120 0.621340 -0.603344
O5    O     O_R   0.312870 0.360530 0.509880 -0.498634
O6    O     O_R   0.454030 0.315550 0.471190 -0.600023
O7    O     O_R   0.339170 0.509880 0.378660 -0.566775
O8    O     O_R   0.480330 0.464900 0.339970 -0.601773
S1    S     S_3+6 0.035870 0.200002 0.419745 -0.032599
O9    O     O_2   0.084762 0.263256 0.344882 -0.317527
O10   O     O_2   0.891770 0.116212 0.366716 -0.301368
O11   O     O_3   0.057773 0.291888 0.517819 -0.584549
H24   H     H_    0.968657 0.271168 0.515389 0.357258
F1    F     F_    0.301812 0.754244 0.756378 -0.673264
F2    F     F_    0.100470 0.622804 0.233438 -0.701014

loop_
_geom_bond_atom_site_label_1
_geom_bond_atom_site_label_2
_ccdc_geom_bond_type
O11   H24   S    
C28   S1    S    
C1    O2    A    
C35   C36   A    
S1    O11   S    
C4    C8    A    
Cu2   O4    S    
C32   N2    A    
C41   H17   S    
C26   C27   A    
C17   C23   S    
C31   C43   A    
C21   C22   A    
C36   C37   A    
C9    H19   S    
C5    C11   A    
C3    C7    A    
C38   C39   A    
C35   H15   S    
C12   O4    A    
C40   H12   S    
Cu1   O3    S    
C18   C19   A    
C8    H23   S    
C11   C15   A    
C19   C20   A    
C8    C9    A    
C31   F1    S    
C12   O3    A    
C33   H16   S    
C18   C30   A    
C23   O5    A    
C23   O6    A    
C9    C10   A    
C44   C47   A    
C18   H6    S    
C43   N1    A    
C37   N2    A    
C13   C14   A    
C17   C28   A    
C48   H22   S    
C26   H4    S    
Cu2   O8    S    
C14   C45   A    
C19   H8    S    
C42   N1    A    
C24   C25   A    
C32   H14   S    
C39   C40   A    
C2    C48   A    
C16   C29   A    
C6    F2    S    
Cu1   O7    S    
C2    C4    A    
C13   H2    S    
C15   H11   S    
Cu1   O1    S    
C34   C45   S    
S1    O9    D    
C47   H21   S    
C43   H10   S    
C40   C41   A    
C22   C27   A    
C34   O8    A    
C15   C45   A    
Cu2   O2    S    
C16   C25   A    
C46   C47   A    
C22   C30   A    
C1    O1    A    
C24   C28   A    
S1    O10   D    
C4    C5    A    
C10   C13   A    
C38   C42   A    
C6    C7    A    
C3    C46   A    
Cu1   O5    S    
C32   C33   A    
C36   C38   A    
C2    C3    A    
C25   C26   A    
C16   H5    S    
C7    H1    S    
C12   C44   S    
C27   H9    S    
C17   C29   A    
C5    C6    A    
C29   H3    S    
C1    C30   S    
C33   C35   A    
C31   C39   A    
C37   C41   A    
C46   H20   S    
C10   C11   A    
C20   C21   A    
Cu1   Cu2   S    
C21   C24   A    
C14   H18   S    
Cu1   N1    S    
C34   O7    A    
C20   H7    S    
Cu2   N2    S    
C42   H13   S    
C44   C48   A    
Cu2   O6    S    
