data_mof_unit_34658.cif
_audit_creation_date              2012-10-26T18:50:24-0400
_audit_creation_method            fapswitch 2.2
_symmetry_space_group_name_H-M    P1
_symmetry_Int_Tables_number       1
_space_group_crystal_system       triclinic
_cell_length_a                    9.592206
_cell_length_b                    10.874131
_cell_length_c                    15.448137
_cell_angle_alpha                 86.472678
_cell_angle_beta                  73.969318
_cell_angle_gamma                 91.112835
_cell_volume                      1544.64065868

loop_
_atom_site_label
_atom_site_type_symbol
_atom_type_description
_atom_site_fract_x
_atom_site_fract_y
_atom_site_fract_z
_atom_type_partial_charge
C1    C     C_R   0.001808 0.263540 0.493775 0.541668
C2    C     C_R   0.236061 0.396279 0.055106 -0.028258
C3    C     C_R   0.331806 0.451466 0.098000 -0.035415
C4    C     C_R   0.917631 0.500324 0.672430 0.570434
C5    C     C_R   0.087752 0.379656 0.100259 -0.069595
C6    C     C_R   0.032802 0.413946 0.188346 0.192214
C7    C     C_R   0.272832 0.493649 0.184265 -0.118439
C8    C     C_R   0.267179 0.133008 0.409557 -0.037001
C9    C     C_R   0.400168 0.078953 0.401033 0.428994
C10   C     C_R   0.404260 0.962819 0.442601 -0.035469
C11   C     C_R   0.275239 0.895791 0.484464 -0.084849
C12   C     C_R   0.679338 0.464993 0.913397 0.069636
C13   C     C_R   0.138352 0.943570 0.484590 -0.006745
C14   C     C_R   0.136090 0.070056 0.459257 -0.046448
C15   C     C_R   0.003815 0.130492 0.486988 -0.024964
C16   C     C_R   0.999840 0.737693 0.505242 0.596039
C17   C     C_R   0.873590 0.062437 0.522412 -0.069602
C18   C     C_R   0.871703 0.935123 0.531930 0.207702
C19   C     C_R   0.003831 0.872800 0.510493 0.017154
C20   C     C_R   0.709431 0.654851 0.373303 -0.101679
C21   C     C_R   0.675412 0.724819 0.305175 -0.181542
C22   C     C_R   0.534518 0.727207 0.301630 0.232994
C23   C     C_R   0.781767 0.491370 0.960875 -0.006265
C24   C     C_R   0.425401 0.660810 0.367472 0.375077
C25   C     C_R   0.456626 0.577909 0.435934 0.110602
C26   C     C_R   0.606067 0.576650 0.437029 0.131632
C27   C     C_R   0.545588 0.426560 0.559554 0.079661
C28   C     C_R   0.081619 0.494613 0.328035 0.590618
C29   C     C_R   0.397759 0.426679 0.559624 0.028857
C30   C     C_R   0.871789 0.497087 0.771852 0.014561
C31   C     C_R   0.126369 0.471358 0.231346 0.009254
C32   C     C_R   0.929318 0.508940 0.914423 -0.104902
C33   C     C_R   0.974616 0.506797 0.820679 -0.141690
C34   C     C_R   0.533166 0.432553 0.962026 0.005405
C35   C     C_R   0.723628 0.483447 0.818807 0.416279
C36   C     C_R   0.483147 0.462085 0.053546 -0.009329
C37   C     C_R   0.587278 0.495154 0.098524 -0.046608
C38   C     C_R   0.734620 0.504493 0.053400 -0.073663
C39   C     C_R   0.437816 0.365160 0.924701 0.323162
C40   C     C_R   0.290448 0.351410 0.969907 0.403937
Cl1   Cl    Cl    0.699594 0.860790 0.579731 -0.551478
Cl2   Cl    Cl    0.493060 0.822695 0.216548 -0.479315
Cl3   Cl    Cl    0.849018 0.373485 0.242872 -0.545002
Cl4   Cl    Cl    0.500960 0.271378 0.833087 -0.441334
Cu1   Cu    Cu3+1 0.140660 0.499990 0.500010 1.023689
Cu2   Cu    Cu3+1 0.859340 0.500010 0.499990 1.095900
F1    F     F_    0.525351 0.141876 0.356308 -0.571456
F2    F     F_    0.293457 0.691159 0.362517 -0.590565
F3    F     F_    0.200867 0.288865 0.931918 -0.587546
F4    F     F_    0.621871 0.502393 0.773625 -0.582806
H1    H     H_    0.811392 0.527796 0.090261 0.154864
H2    H     H_    0.339634 0.543676 0.216901 0.178372
H3    H     H_    0.319389 0.366497 0.608508 0.146814
H4    H     H_    0.009367 0.525374 0.950437 0.147559
H5    H     H_    0.089358 0.518437 0.786284 0.175829
H6    H     H_    0.559140 0.508326 0.169790 0.146769
H7    H     H_    0.014550 0.335093 0.068508 0.210757
H8    H     H_    0.772015 0.108596 0.544886 0.187411
H9    H     H_    0.267958 0.224158 0.377101 0.162371
H10   H     H_    0.507576 0.923703 0.441651 0.170173
H11   H     H_    0.286677 0.810197 0.520216 0.171972
H12   H     H_    0.577661 0.366155 0.608388 0.175437
H13   H     H_    0.819276 0.667154 0.372586 0.204872
H14   H     H_    0.759149 0.780770 0.256351 0.185737
N1    N     N_R   0.648320 0.501210 0.499140 -0.222896
N2    N     N_R   0.352470 0.501290 0.499110 -0.247343
O1    O     O_R   0.118810 0.319640 0.500010 -0.526643
O2    O     O_R   0.881240 0.319660 0.500000 -0.493085
O3    O     O_R   0.055570 0.499980 0.629840 -0.531355
O4    O     O_R   0.818000 0.500010 0.629830 -0.416396
O5    O     O_R   0.118760 0.680340 0.500000 -0.457325
O6    O     O_R   0.881190 0.680360 0.499990 -0.479948
O7    O     O_R   0.182000 0.499990 0.370170 -0.454435
O8    O     O_R   0.944430 0.500020 0.370160 -0.483019

loop_
_geom_bond_atom_site_label_1
_geom_bond_atom_site_label_2
_ccdc_geom_bond_type
C33   H5    S    
C27   C29   A    
C16   O6    A    
C28   O8    A    
C4    O4    A    
Cu1   Cu2   S    
C12   C23   A    
C29   H3    S    
C30   C35   A    
C36   C37   A    
C7    H2    S    
C3    C7    A    
C8    H9    S    
C5    C6    A    
Cu1   O5    S    
C40   F3    S    
C1    O2    A    
Cu1   O7    S    
C18   C19   A    
C21   H14   S    
C37   H6    S    
C8    C9    A    
Cu1   O1    S    
C1    C15   S    
C9    C10   A    
Cu2   O6    S    
C17   H8    S    
C6    C31   A    
C13   C14   A    
C16   O5    A    
C28   O7    A    
C32   H4    S    
C4    O3    A    
C7    C31   A    
C13   C19   A    
Cu1   O3    S    
C34   C39   A    
C24   F2    S    
C24   C25   A    
Cu2   N1    S    
C18   Cl1   S    
C39   C40   A    
C38   H1    S    
C25   C26   A    
C10   H10   S    
Cu2   O2    S    
C37   C38   A    
C27   N1    A    
C27   H12   S    
C35   F4    S    
C17   C18   A    
C12   C35   A    
C9    F1    S    
C6    Cl3   S    
C22   C24   A    
C2    C5    A    
C12   C34   A    
Cu2   O8    S    
C15   C17   A    
C8    C14   A    
C30   C33   A    
C26   N1    A    
C28   C31   S    
C25   N2    A    
C11   H11   S    
C39   Cl4   S    
C23   C38   A    
C5    H7    S    
C23   C32   A    
C20   H13   S    
C2    C3    A    
C32   C33   A    
C11   C13   A    
C22   Cl2   S    
C20   C26   A    
C3    C36   A    
C16   C19   S    
C1    O1    A    
C34   C36   A    
Cu2   O4    S    
C10   C11   A    
C29   N2    A    
C2    C40   A    
C20   C21   A    
Cu1   N2    S    
C14   C15   A    
C21   C22   A    
C4    C30   S    
