data_mof_unit_66127.cif
_audit_creation_date              2012-12-10T20:03:55-0500
_audit_creation_method            fapswitch 2.2
_symmetry_space_group_name_H-M    P1
_symmetry_Int_Tables_number       1
_space_group_crystal_system       triclinic
_cell_length_a                    27.713979
_cell_length_b                    28.024965
_cell_length_c                    27.707794
_cell_angle_alpha                 90.703194
_cell_angle_beta                  90.506094
_cell_angle_gamma                 89.91358
_cell_volume                      21517.699351

loop_
_atom_site_label
_atom_site_type_symbol
_atom_type_description
_atom_site_fract_x
_atom_site_fract_y
_atom_site_fract_z
_atom_type_partial_charge
C1    C     C_R   0.501091 0.889398 0.749414 0.703883
C2    C     C_R   0.500182 0.888622 0.250097 0.726356
C3    C     C_R   0.499989 0.110312 0.249930 0.746135
C4    C     C_R   0.501208 0.111580 0.749130 0.753450
C5    C     C_R   0.501091 0.389398 0.249415 0.703883
C6    C     C_R   0.500182 0.388622 0.750097 0.726356
C7    C     C_R   0.499989 0.610312 0.749930 0.746135
C8    C     C_R   0.501208 0.611580 0.249130 0.753450
C9    C     C_R   0.001091 0.889398 0.249415 0.703882
C10   C     C_R   0.000182 0.888622 0.750097 0.726356
C11   C     C_R   0.999989 0.110312 0.749930 0.746135
C12   C     C_R   0.001208 0.111580 0.249130 0.753450
C13   C     C_R   0.001091 0.389398 0.749414 0.703883
C14   C     C_R   0.000182 0.388622 0.250097 0.726356
C15   C     C_R   0.999989 0.610312 0.249930 0.746135
C16   C     C_R   0.001208 0.611580 0.749130 0.753450
C17   C     C_R   0.500361 0.552399 0.750678 -0.087925
C18   C     C_R   0.506248 0.555617 0.245477 -0.092748
C19   C     C_R   0.506482 0.447191 0.244993 -0.074586
C20   C     C_R   0.500190 0.444533 0.750663 -0.099274
C21   C     C_R   0.500361 0.052399 0.250678 -0.087925
C22   C     C_R   0.506248 0.055617 0.745477 -0.092748
C23   C     C_R   0.506482 0.947191 0.744993 -0.074586
C24   C     C_R   0.500190 0.944533 0.250663 -0.099274
C25   C     C_R   0.000361 0.552399 0.250678 -0.087925
C26   C     C_R   0.006248 0.555617 0.745477 -0.092748
C27   C     C_R   0.006482 0.447191 0.744993 -0.074586
C28   C     C_R   0.000190 0.444533 0.250663 -0.099274
C29   C     C_R   0.000361 0.052399 0.750678 -0.087925
C30   C     C_R   0.006248 0.055617 0.245477 -0.092748
C31   C     C_R   0.006482 0.947191 0.244993 -0.074586
C32   C     C_R   0.000190 0.944533 0.750663 -0.099274
C33   C     C_R   0.464734 0.523270 0.714723 0.080141
C34   C     C_R   0.473498 0.530188 0.279896 0.087188
C35   C     C_R   0.476117 0.478691 0.278972 0.077395
C36   C     C_R   0.462483 0.469064 0.714395 0.073870
C37   C     C_R   0.464734 0.023270 0.214723 0.080141
C38   C     C_R   0.473498 0.030188 0.779896 0.087188
C39   C     C_R   0.476117 0.978691 0.778972 0.077395
C40   C     C_R   0.462483 0.969064 0.214395 0.073870
C41   C     C_R   0.964734 0.523270 0.214723 0.080141
C42   C     C_R   0.973498 0.530188 0.779896 0.087188
C43   C     C_R   0.976117 0.478691 0.778972 0.077395
C44   C     C_R   0.962483 0.469064 0.214395 0.073870
C45   C     C_R   0.964734 0.023270 0.714723 0.080141
C46   C     C_R   0.973498 0.030188 0.279896 0.087188
C47   C     C_R   0.976117 0.978691 0.278972 0.077395
C48   C     C_R   0.962483 0.969064 0.714395 0.073870
C49   C     C_1   0.499885 0.749836 0.525723 -0.110888
C50   C     C_1   0.500202 0.750126 0.474280 -0.115326
C51   C     C_1   0.500056 0.250005 0.474282 -0.111381
C52   C     C_1   0.500035 0.250040 0.525718 -0.115553
C53   C     C_1   0.499886 0.249836 0.025723 -0.110888
C54   C     C_1   0.500202 0.250126 0.974280 -0.115326
C55   C     C_1   0.500056 0.750005 0.974282 -0.111381
C56   C     C_1   0.500035 0.750040 0.025718 -0.115553
C57   C     C_1   0.999885 0.749836 0.025723 -0.110888
C58   C     C_1   0.000202 0.750126 0.974280 -0.115326
C59   C     C_1   0.000056 0.250006 0.974282 -0.111381
C60   C     C_1   0.000035 0.250040 0.025718 -0.115553
C61   C     C_1   0.999885 0.249836 0.525723 -0.110888
C62   C     C_1   0.000202 0.250126 0.474280 -0.115326
C63   C     C_1   0.000056 0.750006 0.474282 -0.111381
C64   C     C_1   0.000035 0.750040 0.525718 -0.115553
C65   C     C_R   0.500018 0.749990 0.909160 0.740982
C66   C     C_R   0.500020 0.750051 0.090840 0.750376
C67   C     C_R   0.499848 0.249818 0.090857 0.741831
C68   C     C_R   0.500186 0.250143 0.909144 0.750106
C69   C     C_R   0.500018 0.249990 0.409160 0.740982
C70   C     C_R   0.500020 0.250051 0.590840 0.750376
C71   C     C_R   0.499848 0.749818 0.590857 0.741831
C72   C     C_R   0.500186 0.750143 0.409144 0.750106
C73   C     C_R   0.000018 0.749990 0.409160 0.740982
C74   C     C_R   0.000020 0.750051 0.590840 0.750376
C75   C     C_R   0.999848 0.249818 0.590857 0.741831
C76   C     C_R   0.000186 0.250143 0.409144 0.750106
C77   C     C_R   0.000018 0.249990 0.909160 0.740982
C78   C     C_R   0.000020 0.250051 0.090840 0.750376
C79   C     C_R   0.999848 0.749818 0.090857 0.741831
C80   C     C_R   0.000186 0.750143 0.909144 0.750106
C81   C     C_R   0.340760 0.749837 0.750018 0.749309
C82   C     C_R   0.340899 0.750029 0.249811 0.740845
C83   C     C_R   0.340760 0.249836 0.250018 0.749309
C84   C     C_R   0.340899 0.250029 0.749811 0.740845
C85   C     C_R   0.840760 0.749837 0.250018 0.749309
C86   C     C_R   0.840899 0.750029 0.749811 0.740845
C87   C     C_R   0.840760 0.249836 0.750018 0.749309
C88   C     C_R   0.840899 0.250029 0.249811 0.740845
C89   C     C_R   0.659098 0.749969 0.750185 0.754180
C90   C     C_R   0.659235 0.750159 0.249985 0.754629
C91   C     C_R   0.659098 0.249969 0.250185 0.754180
C92   C     C_R   0.659235 0.250159 0.749985 0.754629
C93   C     C_R   0.159098 0.749969 0.250185 0.754180
C94   C     C_R   0.159235 0.750159 0.749985 0.754629
C95   C     C_R   0.159098 0.249969 0.750185 0.754180
C96   C     C_R   0.159235 0.250159 0.249985 0.754629
C97   C     C_1   0.724272 0.749946 0.750125 -0.119713
C98   C     C_1   0.724303 0.750104 0.250042 -0.109216
C99   C     C_1   0.724272 0.249946 0.250125 -0.119713
C100  C     C_1   0.724303 0.250104 0.750042 -0.109216
C101  C     C_1   0.224272 0.749946 0.250125 -0.119713
C102  C     C_1   0.224303 0.750104 0.750042 -0.109216
C103  C     C_1   0.224272 0.249946 0.750125 -0.119713
C104  C     C_1   0.224303 0.250104 0.250042 -0.109216
C105  C     C_1   0.775718 0.750051 0.749865 -0.113701
C106  C     C_1   0.775684 0.749887 0.249961 -0.107465
C107  C     C_1   0.775718 0.250051 0.249865 -0.113701
C108  C     C_1   0.775683 0.249887 0.749961 -0.107465
C109  C     C_1   0.275718 0.750051 0.249865 -0.113701
C110  C     C_1   0.275684 0.749887 0.749961 -0.107465
C111  C     C_1   0.275718 0.250051 0.749865 -0.113701
C112  C     C_1   0.275683 0.249887 0.249961 -0.107465
C113  C     C_R   0.567448 0.551294 0.830608 -0.076909
C114  C     C_R   0.573223 0.550700 0.168899 -0.048621
C115  C     C_R   0.569692 0.446572 0.163709 -0.102278
C116  C     C_R   0.570010 0.448894 0.829189 -0.061428
C117  C     C_R   0.567448 0.051294 0.330608 -0.076909
C118  C     C_R   0.573223 0.050700 0.668899 -0.048621
C119  C     C_R   0.569692 0.946572 0.663709 -0.102278
C120  C     C_R   0.570010 0.948894 0.329189 -0.061428
C121  C     C_R   0.067448 0.551294 0.330608 -0.076909
C122  C     C_R   0.073223 0.550700 0.668899 -0.048621
C123  C     C_R   0.069692 0.446572 0.663709 -0.102278
C124  C     C_R   0.070010 0.448894 0.329189 -0.061428
C125  C     C_R   0.067448 0.051294 0.830608 -0.076909
C126  C     C_R   0.073223 0.050700 0.168899 -0.048621
C127  C     C_R   0.069692 0.946572 0.163709 -0.102278
C128  C     C_R   0.070010 0.948894 0.829189 -0.061428
C129  C     C_R   0.592523 0.524870 0.869919 0.408348
C130  C     C_R   0.597692 0.525753 0.127491 0.391538
C131  C     C_R   0.596638 0.473901 0.125549 0.355102
C132  C     C_R   0.593696 0.474748 0.870891 0.325522
C133  C     C_R   0.592523 0.024870 0.369919 0.408348
C134  C     C_R   0.597692 0.025753 0.627491 0.391538
C135  C     C_R   0.596638 0.973901 0.625549 0.355102
C136  C     C_R   0.593697 0.974748 0.370891 0.325522
C137  C     C_R   0.092523 0.524870 0.369919 0.408348
C138  C     C_R   0.097692 0.525753 0.627491 0.391538
C139  C     C_R   0.096639 0.473901 0.625549 0.355102
C140  C     C_R   0.093697 0.474748 0.370891 0.325522
C141  C     C_R   0.092523 0.024870 0.869919 0.408348
C142  C     C_R   0.097692 0.025753 0.127491 0.391538
C143  C     C_R   0.096639 0.973901 0.125549 0.355102
C144  C     C_R   0.093697 0.974748 0.870891 0.325523
C145  C     C_R   0.035566 0.972343 0.788705 -0.036577
C146  C     C_R   0.040040 0.972124 0.206236 -0.040799
C147  C     C_R   0.040677 0.027034 0.207900 -0.047020
C148  C     C_R   0.035162 0.026651 0.789020 -0.051663
C149  C     C_R   0.035566 0.472343 0.288705 -0.036577
C150  C     C_R   0.040040 0.472124 0.706236 -0.040799
C151  C     C_R   0.040677 0.527034 0.707900 -0.047020
C152  C     C_R   0.035162 0.526651 0.289020 -0.051663
C153  C     C_R   0.535566 0.972343 0.288705 -0.036577
C154  C     C_R   0.540040 0.972124 0.706236 -0.040799
C155  C     C_R   0.540677 0.027034 0.707900 -0.047020
C156  C     C_R   0.535162 0.026651 0.289020 -0.051663
C157  C     C_R   0.535566 0.472343 0.788705 -0.036577
C158  C     C_R   0.540040 0.472124 0.206236 -0.040799
C159  C     C_R   0.540677 0.527034 0.207900 -0.047020
C160  C     C_R   0.535162 0.526651 0.789020 -0.051663
O1    O     O_3   0.500000 0.750000 0.750000 -0.562991
O2    O     O_3   0.500000 0.750000 0.250000 -0.554873
O3    O     O_3   0.500000 0.250000 0.250000 -0.562991
O4    O     O_3   0.500000 0.250000 0.750000 -0.554873
O5    O     O_3   0.000000 0.750000 0.250000 -0.562991
O6    O     O_3   0.000000 0.750000 0.750000 -0.554873
O7    O     O_3   0.000000 0.250000 0.750000 -0.562991
O8    O     O_3   0.000000 0.250000 0.250000 -0.554873
O9    O     O_R   0.534620 0.865830 0.715390 -0.753736
O10   O     O_R   0.534620 0.865830 0.284610 -0.769014
O11   O     O_R   0.534620 0.134170 0.284610 -0.758068
O12   O     O_R   0.534620 0.134170 0.715390 -0.777254
O13   O     O_R   0.534620 0.365830 0.215390 -0.753736
O14   O     O_R   0.534620 0.365830 0.784610 -0.769014
O15   O     O_R   0.534620 0.634170 0.784610 -0.758068
O16   O     O_R   0.534620 0.634170 0.215390 -0.777254
O17   O     O_R   0.034620 0.865830 0.215390 -0.753736
O18   O     O_R   0.034620 0.865830 0.784610 -0.769014
O19   O     O_R   0.034620 0.134170 0.784610 -0.758068
O20   O     O_R   0.034620 0.134170 0.215390 -0.777254
O21   O     O_R   0.034620 0.365830 0.715390 -0.753736
O22   O     O_R   0.034620 0.365830 0.284610 -0.769014
O23   O     O_R   0.034620 0.634170 0.284610 -0.758068
O24   O     O_R   0.034620 0.634170 0.715390 -0.777254
O25   O     O_R   0.465390 0.780380 0.882040 -0.623583
O26   O     O_R   0.465390 0.780380 0.117960 -0.653141
O27   O     O_R   0.465390 0.219620 0.117960 -0.649163
O28   O     O_R   0.465390 0.219620 0.882040 -0.646519
O29   O     O_R   0.465390 0.280380 0.382040 -0.623583
O30   O     O_R   0.465390 0.280380 0.617960 -0.653141
O31   O     O_R   0.465390 0.719620 0.617960 -0.649163
O32   O     O_R   0.465390 0.719620 0.382040 -0.646519
O33   O     O_R   0.965390 0.780380 0.382040 -0.623583
O34   O     O_R   0.965390 0.780380 0.617960 -0.653141
O35   O     O_R   0.965390 0.219620 0.617960 -0.649163
O36   O     O_R   0.965390 0.219620 0.382040 -0.646519
O37   O     O_R   0.965390 0.280380 0.882040 -0.623583
O38   O     O_R   0.965390 0.280380 0.117960 -0.653141
O39   O     O_R   0.965390 0.719620 0.117960 -0.649163
O40   O     O_R   0.965390 0.719620 0.882040 -0.646519
O41   O     O_R   0.367970 0.780380 0.784610 -0.624811
O42   O     O_R   0.367970 0.780380 0.215390 -0.655629
O43   O     O_R   0.367970 0.219620 0.215390 -0.666248
O44   O     O_R   0.367970 0.219620 0.784610 -0.644285
O45   O     O_R   0.367970 0.280380 0.284610 -0.624811
O46   O     O_R   0.367970 0.280380 0.715390 -0.655629
O47   O     O_R   0.367970 0.719620 0.715390 -0.666248
O48   O     O_R   0.367970 0.719620 0.284610 -0.644285
O49   O     O_R   0.867970 0.780380 0.284610 -0.624811
O50   O     O_R   0.867970 0.780380 0.715390 -0.655629
O51   O     O_R   0.867970 0.219620 0.715390 -0.666248
O52   O     O_R   0.867970 0.219620 0.284610 -0.644285
O53   O     O_R   0.867970 0.280380 0.784610 -0.624811
O54   O     O_R   0.867970 0.280380 0.215390 -0.655629
O55   O     O_R   0.867970 0.719620 0.215390 -0.666248
O56   O     O_R   0.867970 0.719620 0.784610 -0.644285
O57   O     O_R   0.632030 0.780380 0.715400 -0.661355
O58   O     O_R   0.632030 0.780380 0.284600 -0.670297
O59   O     O_R   0.632030 0.219620 0.284600 -0.654582
O60   O     O_R   0.632030 0.219620 0.715400 -0.666407
O61   O     O_R   0.632030 0.280380 0.215400 -0.661355
O62   O     O_R   0.632030 0.280380 0.784600 -0.670297
O63   O     O_R   0.632030 0.719620 0.784600 -0.654582
O64   O     O_R   0.632030 0.719620 0.215400 -0.666407
O65   O     O_R   0.132030 0.780380 0.215400 -0.661355
O66   O     O_R   0.132030 0.780380 0.784600 -0.670297
O67   O     O_R   0.132030 0.219620 0.784600 -0.654582
O68   O     O_R   0.132030 0.219620 0.215400 -0.666407
O69   O     O_R   0.132030 0.280380 0.715400 -0.661355
O70   O     O_R   0.132030 0.280380 0.284600 -0.670297
O71   O     O_R   0.132030 0.719620 0.284600 -0.654582
O72   O     O_R   0.132030 0.719620 0.715400 -0.666407
O73   O     O_R   0.534620 0.719650 0.882050 -0.665652
O74   O     O_R   0.534620 0.719650 0.117950 -0.654795
O75   O     O_R   0.534620 0.280350 0.117950 -0.656074
O76   O     O_R   0.534620 0.280350 0.882050 -0.652355
O77   O     O_R   0.534620 0.219650 0.382050 -0.665652
O78   O     O_R   0.534620 0.219650 0.617950 -0.654795
O79   O     O_R   0.534620 0.780350 0.617950 -0.656074
O80   O     O_R   0.534620 0.780350 0.382050 -0.652355
O81   O     O_R   0.034620 0.719650 0.382050 -0.665652
O82   O     O_R   0.034620 0.719650 0.617950 -0.654795
O83   O     O_R   0.034620 0.280350 0.617950 -0.656074
O84   O     O_R   0.034620 0.280350 0.382050 -0.652355
O85   O     O_R   0.034620 0.219650 0.882050 -0.665652
O86   O     O_R   0.034620 0.219650 0.117950 -0.654795
O87   O     O_R   0.034620 0.780350 0.117950 -0.656074
O88   O     O_R   0.034620 0.780350 0.882050 -0.652355
O89   O     O_R   0.465390 0.865830 0.784610 -0.631189
O90   O     O_R   0.465390 0.865830 0.215390 -0.696442
O91   O     O_R   0.465390 0.134170 0.215390 -0.690418
O92   O     O_R   0.465390 0.134170 0.784610 -0.687098
O93   O     O_R   0.465390 0.365830 0.284610 -0.631189
O94   O     O_R   0.465390 0.365830 0.715390 -0.696442
O95   O     O_R   0.465390 0.634170 0.715390 -0.690418
O96   O     O_R   0.465390 0.634170 0.284610 -0.687098
O97   O     O_R   0.965390 0.865830 0.284610 -0.631189
O98   O     O_R   0.965390 0.865830 0.715390 -0.696442
O99   O     O_R   0.965390 0.134170 0.715390 -0.690418
O100  O     O_R   0.965390 0.134170 0.284610 -0.687098
O101  O     O_R   0.965390 0.365830 0.784610 -0.631189
O102  O     O_R   0.965390 0.365830 0.215390 -0.696442
O103  O     O_R   0.965390 0.634170 0.215390 -0.690418
O104  O     O_R   0.965390 0.634170 0.784610 -0.687098
Zn1   Zn    Zn3+2 0.549450 0.706630 0.799470 0.868261
Zn2   Zn    Zn3+2 0.549450 0.706630 0.200530 0.861225
Zn3   Zn    Zn3+2 0.549450 0.293370 0.200530 0.871135
Zn4   Zn    Zn3+2 0.549450 0.293370 0.799470 0.860588
Zn5   Zn    Zn3+2 0.549450 0.206630 0.299470 0.868261
Zn6   Zn    Zn3+2 0.549450 0.206630 0.700530 0.861225
Zn7   Zn    Zn3+2 0.549450 0.793370 0.700530 0.871135
Zn8   Zn    Zn3+2 0.549450 0.793370 0.299470 0.860588
Zn9   Zn    Zn3+2 0.049450 0.706630 0.299470 0.868261
Zn10  Zn    Zn3+2 0.049450 0.706630 0.700530 0.861225
Zn11  Zn    Zn3+2 0.049450 0.293370 0.700530 0.871135
Zn12  Zn    Zn3+2 0.049450 0.293370 0.299470 0.860588
Zn13  Zn    Zn3+2 0.049450 0.206630 0.799470 0.868261
Zn14  Zn    Zn3+2 0.049450 0.206630 0.200530 0.861225
Zn15  Zn    Zn3+2 0.049450 0.793370 0.200530 0.871135
Zn16  Zn    Zn3+2 0.049450 0.793370 0.799470 0.860588
Zn17  Zn    Zn3+2 0.450550 0.793390 0.799460 0.940045
Zn18  Zn    Zn3+2 0.450550 0.793390 0.200540 0.881395
Zn19  Zn    Zn3+2 0.450550 0.206610 0.200540 0.881988
Zn20  Zn    Zn3+2 0.450550 0.206610 0.799460 0.891916
Zn21  Zn    Zn3+2 0.450550 0.293390 0.299460 0.940045
Zn22  Zn    Zn3+2 0.450550 0.293390 0.700540 0.881395
Zn23  Zn    Zn3+2 0.450550 0.706610 0.700540 0.881988
Zn24  Zn    Zn3+2 0.450550 0.706610 0.299460 0.891916
Zn25  Zn    Zn3+2 0.950550 0.793390 0.299460 0.940045
Zn26  Zn    Zn3+2 0.950550 0.793390 0.700540 0.881395
Zn27  Zn    Zn3+2 0.950550 0.206610 0.700540 0.881988
Zn28  Zn    Zn3+2 0.950550 0.206610 0.299460 0.891916
Zn29  Zn    Zn3+2 0.950550 0.293390 0.799460 0.940045
Zn30  Zn    Zn3+2 0.950550 0.293390 0.200540 0.881395
Zn31  Zn    Zn3+2 0.950550 0.706610 0.200540 0.881988
Zn32  Zn    Zn3+2 0.950550 0.706610 0.799460 0.891916
C161  C     C_3   0.426880 0.548792 0.677006 -0.336502
C162  C     C_3   0.420318 0.604654 0.666895 -0.376962
H1    H     H_    0.404485 0.649718 0.691299 0.221478
H2    H     H_    0.441959 0.637243 0.655413 0.232075
H3    H     H_    0.394642 0.610562 0.643191 0.124955
H4    H     H_    0.432594 0.537715 0.638487 0.170017
H5    H     H_    0.388257 0.540384 0.685105 0.172124
C163  C     C_3   0.433648 0.554859 0.318551 -0.333142
C164  C     C_3   0.417726 0.607982 0.330383 -0.574175
H6    H     H_    0.449607 0.636320 0.347893 0.271217
H7    H     H_    0.403503 0.635775 0.300503 0.286065
H8    H     H_    0.395499 0.614433 0.357036 0.168287
H9    H     H_    0.395644 0.544095 0.310056 0.186248
H10   H     H_    0.442392 0.546653 0.357197 0.181797
C165  C     C_3   0.442414 0.460713 0.316833 -0.488055
C166  C     C_3   0.429063 0.412122 0.330016 0.021959
H11   H     H_    0.413541 0.369032 0.331541 0.068009
H12   H     H_    0.423826 0.357623 0.337367 0.051175
H13   H     H_    0.398654 0.430837 0.351451 0.076238
H14   H     H_    0.453944 0.472583 0.354229 0.166676
H15   H     H_    0.404651 0.472453 0.307411 0.158982
C167  C     C_3   0.419025 0.438558 0.676754 -0.414627
C168  C     C_3   0.412489 0.378805 0.665953 -0.300428
H16   H     H_    0.465460 0.369078 0.647118 0.225273
H17   H     H_    0.398157 0.363896 0.714508 0.246714
H18   H     H_    0.395821 0.352113 0.637026 0.170858
H19   H     H_    0.379889 0.444564 0.686023 0.170466
H20   H     H_    0.421557 0.448825 0.637393 0.169109
C169  C     C_3   0.426880 0.048792 0.177006 -0.336503
C170  C     C_3   0.420318 0.104654 0.166895 -0.376962
H21   H     H_    0.404485 0.149718 0.191299 0.221478
H22   H     H_    0.441959 0.137243 0.155413 0.232075
H23   H     H_    0.394642 0.110562 0.143191 0.124955
H24   H     H_    0.432594 0.037715 0.138487 0.170017
H25   H     H_    0.388257 0.040384 0.185105 0.172124
C171  C     C_3   0.433648 0.054859 0.818551 -0.333142
C172  C     C_3   0.417726 0.107982 0.830383 -0.574175
H26   H     H_    0.449607 0.136320 0.847893 0.271217
H27   H     H_    0.403503 0.135775 0.800503 0.286065
H28   H     H_    0.395499 0.114433 0.857036 0.168287
H29   H     H_    0.395644 0.044095 0.810056 0.186248
H30   H     H_    0.442392 0.046653 0.857197 0.181797
C173  C     C_3   0.442414 0.960712 0.816833 -0.488055
C174  C     C_3   0.429063 0.912122 0.830016 0.021959
H31   H     H_    0.413541 0.869032 0.831541 0.068009
H32   H     H_    0.423826 0.857623 0.837367 0.051175
H33   H     H_    0.398654 0.930837 0.851450 0.076238
H34   H     H_    0.453944 0.972583 0.854229 0.166676
H35   H     H_    0.404651 0.972453 0.807411 0.158982
C175  C     C_3   0.419025 0.938558 0.176754 -0.414627
C176  C     C_3   0.412489 0.878805 0.165953 -0.300428
H36   H     H_    0.465460 0.869078 0.147118 0.225273
H37   H     H_    0.398157 0.863896 0.214508 0.246714
H38   H     H_    0.395821 0.852113 0.137026 0.170858
H39   H     H_    0.379889 0.944564 0.186023 0.170466
H40   H     H_    0.421557 0.948825 0.137393 0.169109
C177  C     C_3   0.926880 0.548792 0.177006 -0.336503
C178  C     C_3   0.920318 0.604654 0.166895 -0.376962
H41   H     H_    0.904485 0.649718 0.191299 0.221478
H42   H     H_    0.941959 0.637243 0.155413 0.232075
H43   H     H_    0.894642 0.610562 0.143191 0.124955
H44   H     H_    0.932594 0.537715 0.138487 0.170017
H45   H     H_    0.888256 0.540384 0.185105 0.172124
C179  C     C_3   0.933648 0.554859 0.818551 -0.333142
C180  C     C_3   0.917726 0.607982 0.830383 -0.574175
H46   H     H_    0.949607 0.636320 0.847893 0.271217
H47   H     H_    0.903503 0.635775 0.800503 0.286065
H48   H     H_    0.895499 0.614433 0.857036 0.168287
H49   H     H_    0.895644 0.544095 0.810056 0.186248
H50   H     H_    0.942392 0.546653 0.857197 0.181797
C181  C     C_3   0.942414 0.460713 0.816833 -0.488055
C182  C     C_3   0.929063 0.412122 0.830016 0.021959
H51   H     H_    0.913541 0.369032 0.831541 0.068009
H52   H     H_    0.923826 0.357623 0.837367 0.051175
H53   H     H_    0.898654 0.430837 0.851450 0.076238
H54   H     H_    0.953944 0.472583 0.854229 0.166676
H55   H     H_    0.904651 0.472453 0.807411 0.158982
C183  C     C_3   0.919025 0.438558 0.176754 -0.414627
C184  C     C_3   0.912489 0.378805 0.165953 -0.300428
H56   H     H_    0.965460 0.369078 0.147118 0.225273
H57   H     H_    0.898157 0.363896 0.214508 0.246714
H58   H     H_    0.895821 0.352113 0.137026 0.170858
H59   H     H_    0.879889 0.444564 0.186023 0.170466
H60   H     H_    0.921557 0.448825 0.137393 0.169109
C185  C     C_3   0.926880 0.048792 0.677006 -0.336503
C186  C     C_3   0.920318 0.104654 0.666895 -0.376962
H61   H     H_    0.904485 0.149718 0.691299 0.221478
H62   H     H_    0.941959 0.137243 0.655413 0.232075
H63   H     H_    0.894642 0.110562 0.643191 0.124955
H64   H     H_    0.932594 0.037715 0.638487 0.170017
H65   H     H_    0.888257 0.040384 0.685105 0.172124
C187  C     C_3   0.933648 0.054859 0.318551 -0.333142
C188  C     C_3   0.917726 0.107982 0.330383 -0.574175
H66   H     H_    0.949607 0.136320 0.347893 0.271217
H67   H     H_    0.903503 0.135775 0.300503 0.286065
H68   H     H_    0.895499 0.114433 0.357036 0.168287
H69   H     H_    0.895644 0.044095 0.310056 0.186248
H70   H     H_    0.942392 0.046653 0.357197 0.181797
C189  C     C_3   0.942414 0.960713 0.316833 -0.488055
C190  C     C_3   0.929063 0.912122 0.330016 0.021959
H71   H     H_    0.913541 0.869032 0.331541 0.068009
H72   H     H_    0.923826 0.857623 0.337367 0.051175
H73   H     H_    0.898654 0.930837 0.351451 0.076238
H74   H     H_    0.953944 0.972583 0.354229 0.166676
H75   H     H_    0.904651 0.972453 0.307411 0.158982
C191  C     C_3   0.919025 0.938558 0.676754 -0.414627
C192  C     C_3   0.912489 0.878805 0.665953 -0.300428
H76   H     H_    0.965460 0.869078 0.647118 0.225273
H77   H     H_    0.898157 0.863896 0.714508 0.246714
H78   H     H_    0.895821 0.852113 0.637026 0.170858
H79   H     H_    0.879889 0.944564 0.686023 0.170466
H80   H     H_    0.921557 0.948825 0.637393 0.169109
C193  C     C_3   0.581467 0.609232 0.835485 0.004452
C194  C     C_3   0.606309 0.638210 0.877442 -0.828555
H81   H     H_    0.587557 0.642774 0.912407 0.255083
H82   H     H_    0.642128 0.628312 0.888278 0.250367
H83   H     H_    0.609951 0.673961 0.863698 0.255546
H84   H     H_    0.594709 0.636484 0.810265 0.255567
H85   H     H_    0.520741 0.636510 0.845801 0.216502
C195  C     C_3   0.586653 0.607916 0.170363 -0.024903
C196  C     C_3   0.620804 0.637958 0.137847 -0.775468
H86   H     H_    0.659895 0.632983 0.145115 0.255340
H87   H     H_    0.614713 0.634617 0.097629 0.255184
H88   H     H_    0.613636 0.676145 0.142932 0.258792
H89   H     H_    0.556653 0.633475 0.155671 0.264518
H90   H     H_    0.595040 0.636558 0.222307 0.229685
C197  C     C_3   0.577713 0.386663 0.159561 0.065817
C198  C     C_3   0.611248 0.355252 0.125588 -0.759754
H91   H     H_    0.599112 0.343960 0.087159 0.251597
H92   H     H_    0.645993 0.371496 0.122470 0.235862
H93   H     H_    0.621409 0.321671 0.144517 0.252026
H94   H     H_    0.593953 0.370247 0.191690 0.239036
H95   H     H_    0.510538 0.356521 0.153597 0.198107
C199  C     C_3   0.585811 0.392489 0.830601 -0.018187
C200  C     C_3   0.619091 0.364429 0.865512 -0.860978
H96   H     H_    0.657278 0.376631 0.867741 0.281931
H97   H     H_    0.605602 0.360712 0.903924 0.211859
H98   H     H_    0.619595 0.327671 0.852645 0.279379
H99   H     H_    0.555808 0.366542 0.845137 0.265224
H100  H     H_    0.594865 0.362137 0.778757 0.234783
C201  C     C_3   0.581467 0.109232 0.335485 0.004452
C202  C     C_3   0.606309 0.138210 0.377442 -0.828555
H101  H     H_    0.587557 0.142774 0.412407 0.255083
H102  H     H_    0.642128 0.128312 0.388278 0.250367
H103  H     H_    0.609950 0.173961 0.363698 0.255546
H104  H     H_    0.594709 0.136484 0.310265 0.255567
H105  H     H_    0.520741 0.136510 0.345801 0.216502
C203  C     C_3   0.586653 0.107916 0.670363 -0.024903
C204  C     C_3   0.620804 0.137958 0.637847 -0.775468
H106  H     H_    0.659895 0.132983 0.645115 0.255340
H107  H     H_    0.614713 0.134617 0.597629 0.255184
H108  H     H_    0.613636 0.176145 0.642932 0.258792
H109  H     H_    0.556653 0.133475 0.655671 0.264518
H110  H     H_    0.595040 0.136558 0.722307 0.229685
C205  C     C_3   0.577713 0.886663 0.659562 0.065817
C206  C     C_3   0.611248 0.855252 0.625588 -0.759754
H111  H     H_    0.599112 0.843960 0.587159 0.251597
H112  H     H_    0.645993 0.871496 0.622470 0.235862
H113  H     H_    0.621409 0.821671 0.644517 0.252026
H114  H     H_    0.593953 0.870247 0.691690 0.239036
H115  H     H_    0.510538 0.856521 0.653598 0.198107
C207  C     C_3   0.585811 0.892490 0.330601 -0.018187
C208  C     C_3   0.619091 0.864429 0.365512 -0.860978
H116  H     H_    0.657278 0.876631 0.367741 0.281931
H117  H     H_    0.605602 0.860712 0.403924 0.211859
H118  H     H_    0.619595 0.827671 0.352645 0.279379
H119  H     H_    0.555808 0.866542 0.345137 0.265224
H120  H     H_    0.594865 0.862137 0.278757 0.234783
C209  C     C_3   0.081467 0.609232 0.335485 0.004452
C210  C     C_3   0.106309 0.638210 0.377442 -0.828555
H121  H     H_    0.087557 0.642774 0.412407 0.255083
H122  H     H_    0.142128 0.628312 0.388278 0.250367
H123  H     H_    0.109951 0.673961 0.363698 0.255546
H124  H     H_    0.094709 0.636484 0.310265 0.255567
H125  H     H_    0.020741 0.636510 0.345801 0.216502
C211  C     C_3   0.086653 0.607916 0.670363 -0.024903
C212  C     C_3   0.120804 0.637958 0.637847 -0.775468
H126  H     H_    0.159895 0.632983 0.645115 0.255340
H127  H     H_    0.114713 0.634617 0.597629 0.255184
H128  H     H_    0.113636 0.676145 0.642932 0.258792
H129  H     H_    0.056653 0.633475 0.655671 0.264518
H130  H     H_    0.095040 0.636558 0.722307 0.229685
C213  C     C_3   0.077713 0.386663 0.659562 0.065817
C214  C     C_3   0.111248 0.355252 0.625588 -0.759754
H131  H     H_    0.099112 0.343960 0.587159 0.251597
H132  H     H_    0.145993 0.371496 0.622470 0.235862
H133  H     H_    0.121409 0.321671 0.644517 0.252026
H134  H     H_    0.093953 0.370246 0.691690 0.239036
H135  H     H_    0.010538 0.356521 0.653598 0.198107
C215  C     C_3   0.085811 0.392489 0.330601 -0.018187
C216  C     C_3   0.119091 0.364429 0.365512 -0.860978
H136  H     H_    0.157278 0.376631 0.367741 0.281931
H137  H     H_    0.105602 0.360712 0.403924 0.211859
H138  H     H_    0.119595 0.327671 0.352645 0.279379
H139  H     H_    0.055808 0.366542 0.345137 0.265224
H140  H     H_    0.094865 0.362137 0.278757 0.234783
C217  C     C_3   0.081467 0.109232 0.835485 0.004452
C218  C     C_3   0.106309 0.138210 0.877442 -0.828555
H141  H     H_    0.087557 0.142774 0.912407 0.255083
H142  H     H_    0.142128 0.128312 0.888278 0.250367
H143  H     H_    0.109951 0.173961 0.863698 0.255546
H144  H     H_    0.094709 0.136484 0.810265 0.255567
H145  H     H_    0.020741 0.136510 0.845801 0.216502
C219  C     C_3   0.086653 0.107916 0.170363 -0.024903
C220  C     C_3   0.120804 0.137958 0.137847 -0.775468
H146  H     H_    0.159895 0.132983 0.145115 0.255340
H147  H     H_    0.114713 0.134617 0.097629 0.255184
H148  H     H_    0.113636 0.176145 0.142932 0.258792
H149  H     H_    0.056653 0.133475 0.155671 0.264518
H150  H     H_    0.095040 0.136558 0.222307 0.229685
C221  C     C_3   0.077713 0.886663 0.159561 0.065817
C222  C     C_3   0.111248 0.855252 0.125588 -0.759754
H151  H     H_    0.099112 0.843960 0.087159 0.251597
H152  H     H_    0.145993 0.871496 0.122470 0.235862
H153  H     H_    0.121409 0.821671 0.144517 0.252026
H154  H     H_    0.093953 0.870247 0.191690 0.239036
H155  H     H_    0.010538 0.856521 0.153597 0.198107
C223  C     C_3   0.085811 0.892490 0.830601 -0.018187
C224  C     C_3   0.119091 0.864429 0.865512 -0.860978
H156  H     H_    0.157278 0.876631 0.867741 0.281931
H157  H     H_    0.105602 0.860712 0.903924 0.211859
H158  H     H_    0.119595 0.827671 0.852645 0.279379
H159  H     H_    0.055808 0.866541 0.845137 0.265224
H160  H     H_    0.094865 0.862137 0.778757 0.234783
O105  O     O_3   0.627478 0.547079 0.902698 -0.609393
C225  C     C_3   0.682195 0.556394 0.883367 0.020607
H161  H     H_    0.681192 0.580114 0.847646 0.107158
H162  H     H_    0.693175 0.521133 0.875039 0.212314
C226  C     C_3   0.728370 0.584011 0.922381 -0.421855
H163  H     H_    0.744278 0.618684 0.947736 0.093776
H164  H     H_    0.767883 0.595867 0.893232 0.139536
H165  H     H_    0.707284 0.618940 0.935568 0.097811
O106  O     O_3   0.623115 0.553616 0.090897 -0.679390
C227  C     C_3   0.632854 0.539573 0.039892 0.160300
H166  H     H_    0.594071 0.539399 0.023910 0.111319
H167  H     H_    0.642165 0.569550 0.039397 0.274874
C228  C     C_3   0.675735 0.571738 0.005452 -0.661555
H168  H     H_    0.701745 0.593997 0.991013 0.189029
H169  H     H_    0.661421 0.566185 0.965172 0.287287
H170  H     H_    0.671273 0.615885 0.011047 0.084875
O107  O     O_3   0.628390 0.450408 0.090687 -0.624374
C229  C     C_3   0.684650 0.440760 0.106221 0.014932
H171  H     H_    0.687374 0.433997 0.145625 0.105586
H172  H     H_    0.699219 0.476523 0.100432 0.201081
C230  C     C_3   0.723315 0.399976 0.071345 -0.591330
H173  H     H_    0.741944 0.377066 0.035373 0.145176
H174  H     H_    0.762556 0.387878 0.101593 0.156603
H175  H     H_    0.703931 0.364107 0.071867 0.169703
O108  O     O_3   0.633900 0.458808 0.900660 -0.627063
C231  C     C_3   0.625423 0.452075 0.952866 0.241501
H176  H     H_    0.583992 0.447595 0.959152 0.026552
H177  H     H_    0.626169 0.421741 0.942364 0.221148
C232  C     C_3   0.667336 0.421811 0.984877 -0.600828
H178  H     H_    0.694988 0.403004 0.997239 0.191987
H179  H     H_    0.658767 0.430675 0.025513 0.283754
H180  H     H_    0.658979 0.379243 0.977478 0.095552
O109  O     O_3   0.627478 0.047079 0.402698 -0.609393
C233  C     C_3   0.682195 0.056394 0.383367 0.020607
H181  H     H_    0.681192 0.080114 0.347646 0.107158
H182  H     H_    0.693175 0.021133 0.375039 0.212314
C234  C     C_3   0.728370 0.084011 0.422381 -0.421855
H183  H     H_    0.744278 0.118684 0.447736 0.093776
H184  H     H_    0.767883 0.095867 0.393232 0.139536
H185  H     H_    0.707284 0.118940 0.435568 0.097811
O110  O     O_3   0.623115 0.053616 0.590897 -0.679390
C235  C     C_3   0.632854 0.039573 0.539892 0.160300
H186  H     H_    0.594071 0.039399 0.523910 0.111319
H187  H     H_    0.642165 0.069550 0.539397 0.274874
C236  C     C_3   0.675735 0.071738 0.505452 -0.661555
H188  H     H_    0.701745 0.093997 0.491013 0.189029
H189  H     H_    0.661421 0.066185 0.465172 0.287287
H190  H     H_    0.671273 0.115885 0.511047 0.084875
O111  O     O_3   0.628390 0.950408 0.590687 -0.624374
C237  C     C_3   0.684650 0.940760 0.606221 0.014932
H191  H     H_    0.687374 0.933998 0.645625 0.105586
H192  H     H_    0.699219 0.976523 0.600432 0.201081
C238  C     C_3   0.723315 0.899976 0.571345 -0.591330
H193  H     H_    0.741944 0.877066 0.535373 0.145176
H194  H     H_    0.762556 0.887878 0.601593 0.156603
H195  H     H_    0.703931 0.864107 0.571867 0.169703
O112  O     O_3   0.633900 0.958808 0.400660 -0.627063
C239  C     C_3   0.625423 0.952075 0.452866 0.241501
H196  H     H_    0.583992 0.947595 0.459152 0.026552
H197  H     H_    0.626170 0.921741 0.442364 0.221148
C240  C     C_3   0.667336 0.921811 0.484877 -0.600828
H198  H     H_    0.694988 0.903004 0.497239 0.191987
H199  H     H_    0.658767 0.930675 0.525513 0.283754
H200  H     H_    0.658979 0.879243 0.477478 0.095552
O113  O     O_3   0.127478 0.547079 0.402698 -0.609393
C241  C     C_3   0.182195 0.556394 0.383367 0.020607
H201  H     H_    0.181192 0.580114 0.347646 0.107158
H202  H     H_    0.193175 0.521133 0.375039 0.212314
C242  C     C_3   0.228370 0.584011 0.422381 -0.421855
H203  H     H_    0.244278 0.618684 0.447736 0.093776
H204  H     H_    0.267883 0.595867 0.393232 0.139536
H205  H     H_    0.207284 0.618940 0.435568 0.097811
O114  O     O_3   0.123115 0.553616 0.590897 -0.679390
C243  C     C_3   0.132854 0.539573 0.539892 0.160300
H206  H     H_    0.094071 0.539399 0.523910 0.111319
H207  H     H_    0.142165 0.569550 0.539397 0.274874
C244  C     C_3   0.175735 0.571738 0.505452 -0.661555
H208  H     H_    0.201745 0.593997 0.491013 0.189029
H209  H     H_    0.161421 0.566185 0.465172 0.287287
H210  H     H_    0.171273 0.615885 0.511047 0.084875
O115  O     O_3   0.128390 0.450408 0.590687 -0.624374
C245  C     C_3   0.184650 0.440760 0.606221 0.014932
H211  H     H_    0.187374 0.433998 0.645625 0.105586
H212  H     H_    0.199219 0.476523 0.600432 0.201081
C246  C     C_3   0.223315 0.399976 0.571345 -0.591330
H213  H     H_    0.241944 0.377066 0.535373 0.145176
H214  H     H_    0.262555 0.387878 0.601593 0.156603
H215  H     H_    0.203931 0.364107 0.571867 0.169703
O116  O     O_3   0.133900 0.458808 0.400660 -0.627063
C247  C     C_3   0.125423 0.452075 0.452866 0.241501
H216  H     H_    0.083992 0.447595 0.459152 0.026552
H217  H     H_    0.126169 0.421741 0.442364 0.221148
C248  C     C_3   0.167336 0.421811 0.484877 -0.600828
H218  H     H_    0.194988 0.403004 0.497239 0.191987
H219  H     H_    0.158767 0.430675 0.525513 0.283754
H220  H     H_    0.158979 0.379243 0.477478 0.095552
O117  O     O_3   0.127478 0.047079 0.902698 -0.609393
C249  C     C_3   0.182194 0.056394 0.883367 0.020607
H221  H     H_    0.181192 0.080114 0.847646 0.107158
H222  H     H_    0.193175 0.021133 0.875039 0.212314
C250  C     C_3   0.228370 0.084011 0.922381 -0.421855
H223  H     H_    0.244278 0.118684 0.947736 0.093776
H224  H     H_    0.267883 0.095867 0.893232 0.139536
H225  H     H_    0.207284 0.118940 0.935568 0.097811
O118  O     O_3   0.123115 0.053616 0.090897 -0.679390
C251  C     C_3   0.132854 0.039573 0.039892 0.160300
H226  H     H_    0.094071 0.039399 0.023910 0.111319
H227  H     H_    0.142165 0.069550 0.039397 0.274874
C252  C     C_3   0.175735 0.071738 0.005452 -0.661555
H228  H     H_    0.201745 0.093997 0.991013 0.189029
H229  H     H_    0.161421 0.066185 0.965172 0.287287
H230  H     H_    0.171273 0.115885 0.011047 0.084875
O119  O     O_3   0.128389 0.950408 0.090687 -0.624374
C253  C     C_3   0.184650 0.940760 0.106221 0.014932
H231  H     H_    0.187374 0.933998 0.145625 0.105586
H232  H     H_    0.199219 0.976523 0.100432 0.201081
C254  C     C_3   0.223315 0.899976 0.071345 -0.591330
H233  H     H_    0.241944 0.877066 0.035373 0.145176
H234  H     H_    0.262556 0.887878 0.101593 0.156603
H235  H     H_    0.203931 0.864107 0.071867 0.169703
O120  O     O_3   0.133900 0.958808 0.900660 -0.627063
C255  C     C_3   0.125423 0.952075 0.952866 0.241501
H236  H     H_    0.083992 0.947595 0.959152 0.026552
H237  H     H_    0.126169 0.921741 0.942364 0.221148
C256  C     C_3   0.167336 0.921811 0.984877 -0.600828
H238  H     H_    0.194988 0.903005 0.997239 0.191987
H239  H     H_    0.158767 0.930675 0.025513 0.283754
H240  H     H_    0.158979 0.879243 0.977478 0.095552

loop_
_geom_bond_atom_site_label_1
_geom_bond_atom_site_label_2
_ccdc_geom_bond_type
O7    Zn29  S    
C208  H116  S    
C74   O34   A    
C231  C232  S    
O109  C233  S    
C117  C133  A    
C214  H131  S    
O8    Zn14  S    
C234  H183  S    
C130  O106  S    
C163  H10   S    
C114  C195  S    
C186  H61   S    
C219  H150  S    
C167  H19   S    
C66   O74   A    
C25   C152  A    
O5    Zn25  S    
C26   C151  A    
C192  H77   S    
C89   O57   A    
C190  H72   S    
C146  C147  A    
C73   O33   A    
C252  H229  S    
C179  H49   S    
C41   C177  S    
C128  C145  A    
O23   Zn9   S    
C249  H221  S    
C187  H70   S    
C22   C38   A    
C33   C36   A    
C125  C217  S    
O71   Zn9   S    
C34   C35   A    
O113  C241  S    
C115  C197  S    
O78   Zn6   S    
C17   C160  A    
C50   C72   S    
C211  H129  S    
C18   C159  A    
O55   Zn31  S    
O56   Zn32  S    
C42   C179  S    
C161  H4    S    
C170  H21   S    
C240  H199  S    
O60   Zn6   S    
C139  O115  S    
O111  C237  S    
O52   Zn28  S    
O16   Zn2   S    
C81   O47   A    
C97   C105  T    
C84   O44   A    
C237  C238  S    
C184  H57   S    
C59   C60   T    
C248  H219  S    
C124  C215  S    
C207  H120  S    
C114  C130  A    
C233  H182  S    
C99   C107  T    
C182  H51   S    
C14   O22   A    
C67   O27   A    
C251  H226  S    
O94   Zn22  S    
C137  C140  A    
O37   Zn29  S    
C51   C52   T    
C86   O50   A    
C174  H31   S    
C4    O92   A    
O20   Zn14  S    
C141  C144  A    
O33   Zn25  S    
C82   O42   A    
O27   Zn19  S    
C132  O108  S    
C32   C145  A    
C6    O14   A    
C172  H26   S    
C8    O96   A    
C29   C45   A    
C212  H128  S    
C233  C234  S    
C11   O99   A    
C193  H85   S    
C238  H195  S    
C204  H106  S    
O62   Zn4   S    
C245  H212  S    
O54   Zn30  S    
C126  C147  A    
C170  H23   S    
C235  H186  S    
C215  H139  S    
C216  H137  S    
C228  H169  S    
C127  C143  A    
C171  C172  S    
C153  C156  A    
C128  C144  A    
O119  C253  S    
O89   Zn17  S    
C194  H83   S    
C191  H80   S    
C181  H54   S    
O8    Zn28  S    
C157  C160  A    
C247  H217  S    
C96   C104  S    
C134  O110  S    
O76   Zn4   S    
C254  H233  S    
C117  C201  S    
C172  H28   S    
C11   O19   A    
C162  H1    S    
O7    Zn11  S    
C210  H123  S    
C214  H133  S    
C145  C148  A    
C9    O17   A    
O42   Zn18  S    
C245  C246  S    
C205  H114  S    
C242  H205  S    
C223  H160  S    
C45   C185  S    
C125  C148  A    
C85   O49   A    
C184  H56   S    
C16   O24   A    
C247  C248  S    
O117  C249  S    
C209  H124  S    
C98   C106  T    
C256  H240  S    
C40   C175  S    
C195  C196  S    
C85   O55   A    
C130  C131  A    
O107  C229  S    
C232  H179  S    
C19   C35   A    
C250  H223  S    
C126  C219  S    
C144  O120  S    
O4    Zn4   S    
C6    C20   S    
C56   C66   S    
C188  H66   S    
C255  H236  S    
C183  H59   S    
C240  H198  S    
C86   O56   A    
C15   O103  A    
C35   C165  S    
C74   O82   A    
C84   O46   A    
C81   C110  S    
C94   C102  S    
C243  H206  S    
C49   C71   S    
C118  C203  S    
C83   C112  S    
C51   C69   S    
O115  C245  S    
C237  H192  S    
C182  H53   S    
C213  H135  S    
C239  H197  S    
C124  C149  A    
O100  Zn28  S    
C246  H213  S    
O101  Zn29  S    
C204  H108  S    
C192  H76   S    
C174  H33   S    
O31   Zn23  S    
C224  H158  S    
C29   C148  A    
C82   O48   A    
O116  C247  S    
O97   Zn25  S    
C30   C147  A    
C200  H97   S    
C236  H188  S    
C208  H117  S    
O48   Zn24  S    
C60   C78   S    
C241  H202  S    
C217  H144  S    
C96   O68   A    
C3    O91   A    
C227  H166  S    
C37   C40   A    
O67   Zn13  S    
O64   Zn2   S    
C38   C39   A    
C1    O89   A    
C15   C25   S    
C239  C240  S    
C54   C68   S    
C123  C139  A    
C166  H11   S    
O4    Zn20  S    
C141  O117  S    
O99   Zn27  S    
C121  C137  A    
C183  C184  S    
O6    Zn10  S    
C14   O102  A    
C185  H64   S    
C125  C141  A    
C187  C188  S    
C7    C17   S    
C241  C242  S    
C254  H235  S    
C169  H25   S    
C195  H90   S    
O7    Zn13  S    
C118  C134  A    
C116  C199  S    
C173  H34   S    
C123  C150  A    
C39   C173  S    
C28   C149  A    
O39   Zn31  S    
C226  H163  S    
O40   Zn32  S    
C140  O116  S    
C215  C216  S    
C179  C180  S    
C196  H87   S    
C95   C103  S    
C209  C210  S    
C127  C221  S    
C22   C155  A    
O36   Zn28  S    
O75   Zn3   S    
C218  H142  S    
C100  C108  T    
C207  C208  S    
C115  C158  A    
C82   C109  S    
O72   Zn10  S    
C211  C212  S    
O12   Zn6   S    
C250  H225  S    
C47   C189  S    
C104  C112  T    
C213  H134  S    
O66   Zn16  S    
O68   Zn14  S    
O58   Zn8   S    
C168  H16   S    
C203  C204  S    
O59   Zn5   S    
C79   O87   A    
C240  H200  S    
C230  H173  S    
O61   Zn3   S    
C93   O65   A    
C142  O118  S    
C4    C22   S    
C189  H74   S    
C200  H96   S    
C116  C132  A    
O30   Zn22  S    
O106  C227  S    
C73   O81   A    
C17   C33   A    
O91   Zn19  S    
C194  H81   S    
C177  H45   S    
C225  H162  S    
C198  H91   S    
C12   O20   A    
C247  H216  S    
C27   C150  A    
C13   O21   A    
O38   Zn30  S    
C88   O52   A    
C23   C154  A    
C253  H232  S    
C224  H156  S    
O83   Zn11  S    
O21   Zn11  S    
O34   Zn26  S    
O22   Zn12  S    
C191  C192  S    
C184  H58   S    
C189  H75   S    
C4    O12   A    
O70   Zn12  S    
C19   C158  A    
C5    O13   A    
C30   C46   A    
O18   Zn16  S    
C206  H111  S    
C214  H132  S    
C171  H29   S    
C89   O63   A    
C8    O16   A    
O9    Zn7   S    
C134  C135  A    
C205  H115  S    
C121  C209  S    
C212  H127  S    
C78   O38   A    
C166  H13   S    
O4    Zn22  S    
C253  C254  S    
C226  H164  S    
C223  C224  S    
C193  C194  S    
C33   C161  S    
C162  H2    S    
C252  H228  S    
C176  H38   S    
C179  H50   S    
C93   O71   A    
C57   C58   T    
C87   O53   A    
C77   O37   A    
C36   C167  S    
O50   Zn26  S    
C78   O86   A    
C227  H167  S    
O87   Zn15  S    
C61   C62   T    
C53   C67   S    
C211  H130  S    
O88   Zn16  S    
C3    C21   S    
C225  H161  S    
O8    Zn12  S    
O73   Zn1   S    
C63   C64   T    
O43   Zn19  S    
C68   O28   A    
O110  C235  S    
C220  H148  S    
C216  H136  S    
O84   Zn12  S    
O103  Zn31  S    
C150  C151  A    
C170  H22   S    
C70   O78   A    
C71   O31   A    
C217  C218  S    
O25   Zn17  S    
C199  H99   S    
C72   O32   A    
C201  C202  S    
C85   C106  S    
C75   O35   A    
C222  H151  S    
C249  C250  S    
C55   C56   T    
C14   C28   S    
C248  H218  S    
C9    O97   A    
C227  C228  S    
C46   C187  S    
C213  C214  S    
C165  C166  S    
O32   Zn24  S    
C182  H52   S    
C177  C178  S    
C201  H105  S    
C136  O112  S    
O5    Zn31  S    
O6    Zn32  S    
C180  H47   S    
C26   C42   A    
C229  H171  S    
C137  O113  S    
O3    Zn5   S    
C65   O73   A    
C174  H32   S    
C230  H175  S    
O29   Zn21  S    
O47   Zn23  S    
O1    Zn17  S    
C244  H210  S    
C34   C163  S    
C101  C109  T    
O95   Zn23  S    
O96   Zn24  S    
C103  C111  T    
C231  H176  S    
O81   Zn9   S    
C193  H84   S    
C238  H194  S    
O51   Zn27  S    
C202  H101  S    
C76   O36   A    
C55   C65   S    
C198  H93   S    
C181  C182  S    
C113  C193  S    
C15   O23   A    
C256  H238  S    
C235  H187  S    
O102  Zn30  S    
C215  H140  S    
C2    C24   S    
C58   C80   S    
C129  C132  A    
C246  H215  S    
O98   Zn26  S    
C234  H184  S    
C31   C47   A    
C228  H168  S    
C16   C26   S    
C32   C48   A    
C62   C76   S    
C87   O51   A    
C206  H113  S    
C180  H48   S    
C135  O111  S    
C80   O88   A    
C196  H86   S    
C119  C205  S    
C176  H37   S    
C172  H27   S    
O24   Zn10  S    
C163  H9    S    
C173  H35   S    
C235  C236  S    
C79   O39   A    
C219  H149  S    
C94   O72   A    
C84   C111  S    
C175  H39   S    
C192  H78   S    
C190  H71   S    
C122  C138  A    
C83   O43   A    
C252  H230  S    
C176  H36   S    
C88   C107  S    
C81   O41   A    
C63   C73   S    
C186  H63   S    
C237  H191  S    
C53   C54   T    
C126  C142  A    
C8    C18   S    
O7    Zn27  S    
C48   C191  S    
C120  C136  A    
C202  H103  S    
C71   O79   A    
C255  H237  S    
O1    Zn7   S    
C90   O64   A    
C232  H178  S    
C37   C169  S    
C120  C207  S    
C251  H227  S    
C173  C174  S    
C67   O75   A    
C161  H5    S    
C169  H24   S    
C183  H60   S    
C88   O54   A    
C2    O10   A    
C222  H153  S    
C119  C154  A    
C210  H122  S    
C20   C157  A    
C41   C44   A    
C102  C110  T    
C255  C256  S    
C42   C43   A    
C93   C101  S    
O13   Zn3   S    
C24   C153  A    
C236  H190  S    
O14   Zn4   S    
O118  C251  S    
C45   C48   A    
O2    Zn2   S    
C27   C43   A    
O4    Zn6   S    
C46   C47   A    
O69   Zn11  S    
C133  O109  S    
C7    O95   A    
O49   Zn25  S    
C124  C140  A    
C95   O69   A    
C224  H157  S    
C242  H204  S    
C189  C190  S    
C175  H40   S    
C5    C19   S    
C167  H20   S    
C243  C244  S    
C143  O119  S    
C244  H209  S    
O8    Zn30  S    
C181  H55   S    
O92   Zn20  S    
C234  H185  S    
C187  H69   S    
O57   Zn7   S    
C221  H155  S    
O28   Zn20  S    
C245  H211  S    
C43   C181  S    
C165  H15   S    
C92   O62   A    
C28   C44   A    
C216  H138  S    
O1    Zn1   S    
C169  C170  S    
C119  C135  A    
C138  C139  A    
C94   O66   A    
C127  C146  A    
C191  H79   S    
C20   C36   A    
O35   Zn27  S    
C21   C37   A    
C83   O45   A    
C164  H6    S    
C228  H170  S    
O45   Zn21  S    
C188  H67   S    
C64   C74   S    
C142  C143  A    
O77   Zn5   S    
O104  Zn32  S    
C123  C213  S    
C162  H3    S    
C178  H41   S    
C128  C223  S    
C226  H165  S    
O3    Zn21  S    
C161  C162  S    
C57   C79   S    
O2    Zn18  S    
C223  H159  S    
C190  H73   S    
C44   C183  S    
O15   Zn1   S    
C59   C77   S    
O114  C243  S    
C221  H154  S    
C221  C222  S    
C25   C41   A    
C219  C220  S    
C122  C211  S    
C218  H143  S    
O2    Zn8   S    
C209  H125  S    
C113  C129  A    
C76   O84   A    
C232  H180  S    
C2    O90   A    
C115  C131  A    
O93   Zn21  S    
O74   Zn2   S    
C5    O93   A    
C80   O40   A    
C131  O107  S    
C129  O105  S    
C6    O94   A    
O86   Zn14  S    
C92   O60   A    
C199  C200  S    
C68   O76   A    
C31   C146  A    
C61   C75   S    
C87   C108  S    
C7    O15   A    
C133  C136  A    
C10   O98   A    
C256  H239  S    
C96   O70   A    
C91   O61   A    
O26   Zn18  S    
O105  C225  S    
C194  H82   S    
C177  H44   S    
C166  H12   S    
C197  H95   S    
O53   Zn29  S    
C198  H92   S    
C239  H196  S    
C168  H18   S    
C246  H214  S    
C165  H14   S    
O90   Zn18  S    
O5    Zn15  S    
O6    Zn16  S    
C200  H98   S    
C236  H189  S    
O65   Zn15  S    
C208  H118  S    
C65   O25   A    
C250  H224  S    
C90   O58   A    
C241  H201  S    
C217  H145  S    
C10   O18   A    
C75   O83   A    
O82   Zn10  S    
C95   O67   A    
C206  H112  S    
C149  C152  A    
C171  H30   S    
C197  C198  S    
C9    C31   S    
C164  H7    S    
C212  H126  S    
C12   C30   S    
O44   Zn20  S    
C242  H203  S    
C205  C206  S    
C89   C97   S    
C158  C159  A    
C244  H208  S    
C167  C168  S    
C10   C32   S    
C188  H68   S    
C185  H65   S    
C138  O114  S    
O41   Zn17  S    
C164  H8    S    
C117  C156  A    
C72   O80   A    
O108  C231  S    
C154  C155  A    
C118  C155  A    
C38   C171  S    
C195  H89   S    
C18   C34   A    
O19   Zn13  S    
O3    Zn3   S    
C163  C164  S    
O3    Zn19  S    
C203  H109  S    
C49   C50   T    
C178  H42   S    
C249  H222  S    
C220  H147  S    
O10   Zn8   S    
O11   Zn5   S    
C86   C105  S    
C199  H100  S    
C196  H88   S    
C92   C100  S    
C222  H152  S    
O120  C255  S    
C218  H141  S    
C186  H62   S    
O46   Zn22  S    
C70   O30   A    
C229  H172  S    
C225  C226  S    
O85   Zn13  S    
C201  H104  S    
C197  H94   S    
C254  H234  S    
C248  H220  S    
C178  H43   S    
C204  H107  S    
C180  H46   S    
C243  H207  S    
C210  H121  S    
C121  C152  A    
O79   Zn7   S    
C207  H119  S    
C91   C99   S    
C122  C151  A    
O80   Zn8   S    
C77   O85   A    
C66   O26   A    
C116  C157  A    
C230  H174  S    
C3    O11   A    
C175  C176  S    
C185  C186  S    
C69   O77   A    
C23   C39   A    
C1    O9    A    
C120  C153  A    
C24   C40   A    
C21   C156  A    
C1    C23   S    
C231  H177  S    
C113  C160  A    
C91   O59   A    
C238  H193  S    
C202  H102  S    
C114  C159  A    
O63   Zn1   S    
C251  C252  S    
C52   C70   S    
O17   Zn15  S    
C203  H110  S    
C16   O104  A    
C69   O29   A    
O6    Zn26  S    
C11   C29   S    
C229  C230  S    
O112  C239  S    
C233  H181  S    
C13   C27   S    
C168  H17   S    
C12   O100  A    
O5    Zn9   S    
C253  H231  S    
C220  H146  S    
C13   O101  A    
C90   C98   S    
O1    Zn23  S    
O2    Zn24  S    
