data_mof_unit_14518.cif
_audit_creation_date              2012-12-11T16:17:49-0500
_audit_creation_method            fapswitch 2.2
_symmetry_space_group_name_H-M    P1
_symmetry_Int_Tables_number       1
_space_group_crystal_system       triclinic
_cell_length_a                    14.063848
_cell_length_b                    14.060774
_cell_length_c                    29.930731
_cell_angle_alpha                 96.992347
_cell_angle_beta                  97.552587
_cell_angle_gamma                 60.980083
_cell_volume                      5119.27802188

loop_
_atom_site_label
_atom_site_type_symbol
_atom_type_description
_atom_site_fract_x
_atom_site_fract_y
_atom_site_fract_z
_atom_type_partial_charge
C1    C     C_R   0.385723 0.708895 0.441342 0.618001
C2    C     C_R   0.381046 0.278289 0.224028 0.152703
C3    C     C_R   0.398140 0.287822 0.271297 0.111255
C4    C     C_R   0.314683 0.307819 0.298282 0.034301
C5    C     C_R   0.282954 0.282589 0.204232 -0.003013
C6    C     C_1   0.266544 0.269835 0.155981 -0.000935
C7    C     C_1   0.329880 0.331660 0.345943 0.083928
C8    C     C_1   0.258889 0.256811 0.115486 0.028497
C9    C     C_R   0.773278 0.367794 0.400995 -0.059851
C10   C     C_R   0.805358 0.263868 0.378051 0.221658
C11   C     C_R   0.814540 0.252071 0.330621 0.093646
C12   C     C_R   0.396673 0.379515 0.427382 0.562740
C13   C     C_R   0.787299 0.344345 0.306806 -0.051502
C14   C     C_R   0.771310 0.442726 0.331594 0.207416
C15   C     C_R   0.780113 0.447113 0.378997 0.077418
C16   C     C_R   0.774169 0.418239 0.147830 0.191934
C17   C     C_R   0.828929 0.404531 0.109401 0.074332
C18   C     C_R   0.849040 0.221769 0.096516 0.078074
C19   C     C_R   0.818848 0.228770 0.140464 0.072102
C20   C     C_R   0.789458 0.325940 0.167818 -0.048154
C21   C     C_1   0.782836 0.330661 0.216450 0.121133
C22   C     C_1   0.783376 0.336059 0.257393 0.135318
C23   C     C_R   0.712957 0.404337 0.442856 0.572019
C24   C     C_R   0.873552 0.301461 0.084314 -0.057666
C25   C     C_R   0.363464 0.766710 0.399971 -0.051741
C26   C     C_R   0.390944 0.851132 0.399439 0.208701
C27   C     C_R   0.398721 0.883085 0.357142 0.213915
C28   C     C_R   0.374995 0.831888 0.316644 -0.043663
C29   C     C_R   0.347472 0.748039 0.317753 0.165218
C30   C     C_R   0.331156 0.724057 0.359240 0.035107
C31   C     C_R   0.247059 0.893068 0.163613 0.086444
C32   C     C_R   0.238620 0.879070 0.116237 0.217775
C33   C     C_R   0.405434 0.890178 0.114576 0.071539
C34   C     C_R   0.389415 0.712349 0.567968 0.572543
C35   C     C_R   0.419452 0.893776 0.162107 0.108893
C36   C     C_R   0.337386 0.900638 0.186444 -0.045098
C37   C     C_1   0.355078 0.891808 0.234479 0.132312
C38   C     C_1   0.366930 0.870345 0.273191 0.173353
C39   C     C_R   0.307357 0.896287 0.091842 -0.027892
C40   C     C_R   0.382417 0.358353 0.596684 -0.044473
C41   C     C_R   0.467357 0.284457 0.626711 0.099309
C42   C     C_R   0.442369 0.271445 0.668974 0.162466
C43   C     C_R   0.335328 0.336926 0.682067 0.007142
C44   C     C_R   0.249852 0.397677 0.650149 0.242619
C45   C     C_R   0.407369 0.383934 0.554492 0.565805
C46   C     C_R   0.274552 0.409801 0.608135 -0.113616
C47   C     C_R   0.207126 0.418171 0.835326 0.098549
C48   C     C_R   0.200791 0.404186 0.880134 0.066828
C49   C     C_R   0.397602 0.284572 0.888605 0.086619
C50   C     C_R   0.405015 0.316217 0.846630 0.260464
C51   C     C_R   0.308857 0.367762 0.817684 0.001813
C52   C     C_1   0.312613 0.361859 0.769568 0.188578
C53   C     C_1   0.318186 0.352220 0.729338 0.190173
C54   C     C_R   0.293272 0.321124 0.903658 -0.050034
C55   C     C_1   0.763803 0.375926 0.612398 0.103343
C56   C     C_R   0.714277 0.407110 0.568256 0.570151
C57   C     C_R   0.734775 0.404096 0.728313 0.218430
C58   C     C_R   0.754484 0.384109 0.773921 -0.118749
C59   C     C_R   0.924901 0.218799 0.759514 0.289852
C60   C     C_R   0.908991 0.242451 0.713614 0.107993
C61   C     C_R   0.813341 0.334321 0.698236 -0.012934
C62   C     C_R   0.848828 0.294017 0.789710 -0.030344
C63   C     C_1   0.872714 0.288716 0.837700 0.069017
C64   C     C_1   0.792049 0.354881 0.651164 0.088303
C65   C     C_1   0.901648 0.283001 0.877286 0.094643
C66   C     C_1   0.374382 0.761660 0.612876 0.099075
C67   C     C_1   0.354553 0.353480 0.384314 0.095035
C68   C     C_R   0.304499 0.761628 0.720143 0.148003
C69   C     C_R   0.296396 0.775220 0.767249 0.234929
C70   C     C_R   0.373712 0.900174 0.772945 0.098098
C71   C     C_R   0.384062 0.884234 0.725927 0.196451
C72   C     C_R   0.348838 0.814920 0.699794 -0.014288
C73   C     C_R   0.330764 0.845494 0.793366 -0.030483
C74   C     C_1   0.313627 0.870987 0.840633 0.064756
C75   C     C_1   0.362430 0.791250 0.652146 0.101759
C76   C     C_1   0.293745 0.901193 0.879277 0.077950
C77   C     C_R   0.946911 0.274963 0.047370 0.541183
C78   C     C_R   0.216985 0.311375 0.278269 0.117538
C79   C     C_R   0.253046 0.237662 0.067501 0.547662
C80   C     C_R   0.263409 0.951511 0.048674 0.561636
C81   C     C_R   0.950901 0.269784 0.922388 0.565146
C82   C     C_R   0.276573 0.269949 0.940604 0.582904
C83   C     C_R   0.261595 0.950470 0.923094 0.570329
C84   C     C_R   0.202128 0.297500 0.231274 -0.107115
Cr1   Cr    Cr6+3 0.581000 0.584320 0.508140 1.160051
Cr2   Cr    Cr6+3 0.339110 0.576430 0.496080 1.112224
Cr3   Cr    Cr6+3 0.579910 0.339270 0.495810 1.177860
Cr4   Cr    Cr6+3 0.082090 0.079210 0.982490 1.133898
Cr5   Cr    Cr6+3 0.082460 0.324610 0.994920 1.112495
Cr6   Cr    Cr6+3 0.323630 0.087860 0.996130 1.107466
H1    H     H_    0.126935 0.299864 0.215820 0.145047
H2    H     H_    0.209557 0.461343 0.584498 0.185805
H3    H     H_    0.697056 0.440048 0.797649 0.196212
O1    O     O_R   0.688580 0.499770 0.460490 -0.486107
O2    O     O_R   0.348600 0.476260 0.536540 -0.496196
O3    O     O_R   0.494840 0.313840 0.539010 -0.468506
O4    O     O_R   0.672120 0.351750 0.545910 -0.482175
O5    O     O_3   0.500010 0.500010 0.500010 -0.309969
O6    O     O_R   0.167510 0.972920 0.030390 -0.431038
O7    O     O_R   0.990840 0.178580 0.027590 -0.480647
O8    O     O_R   0.972840 0.345510 0.038590 -0.489717
O9    O     O_R   0.181550 0.320660 0.045200 -0.466206
O10   O     O_R   0.346150 0.177650 0.050510 -0.465477
O11   O     O_R   0.314200 0.996600 0.036060 -0.517519
O12   O     O_R   0.480400 0.672610 0.462660 -0.460844
O13   O     O_R   0.168690 0.969990 0.933130 -0.471323
O14   O     O_R   0.991920 0.175870 0.937430 -0.469264
O15   O     O_R   0.974010 0.342590 0.941330 -0.488190
O16   O     O_R   0.182630 0.317940 0.955040 -0.471352
O17   O     O_R   0.347320 0.174720 0.953250 -0.468186
O18   O     O_R   0.315290 0.993890 0.945900 -0.487283
O19   O     O_3   0.162730 0.163890 0.991180 -0.318016
O20   O     O_R   0.315310 0.685650 0.451800 -0.469390
O21   O     O_R   0.346220 0.474990 0.446280 -0.493206
O22   O     O_R   0.492270 0.312460 0.441630 -0.455027
O23   O     O_R   0.669740 0.350480 0.455640 -0.441028
O24   O     O_R   0.691150 0.501150 0.557860 -0.470056
O25   O     O_R   0.482790 0.673890 0.552920 -0.466522
O26   O     O_R   0.317880 0.687030 0.549170 -0.488063
I1    I     I_    0.090019 0.337012 0.317207 -0.181123
I2    I     I_    0.809775 0.096794 0.163983 -0.090413
I3    I     I_    0.831268 0.107762 0.046336 -0.082764
I4    I     I_    0.864352 0.097430 0.293631 -0.058212
S1    S     S_3+6 0.159092 0.819021 0.088725 0.102030
O27   O     O_2   0.175822 0.726944 0.115118 -0.187244
O28   O     O_2   0.040832 0.902765 0.086703 -0.228127
O29   O     O_3   0.196086 0.769003 0.036161 -0.483570
H4    H     H_    0.144143 0.742520 0.022924 0.382055
I5    I     I_    0.118769 0.911821 0.200970 -0.054899
S2    S     S_3+6 0.341527 0.664226 0.268322 0.103571
O30   O     O_2   0.225074 0.690009 0.255325 -0.163998
O31   O     O_2   0.387495 0.677606 0.228508 -0.201635
O32   O     O_3   0.413214 0.532804 0.280366 -0.461545
H5    H     H_    0.485971 0.523020 0.292842 0.361013
I6    I     I_    0.246545 0.630886 0.358902 -0.117173
S3    S     S_3+6 0.405359 0.920682 0.451995 0.116668
O33   O     O_2   0.524630 0.873813 0.467457 -0.212641
O34   O     O_2   0.357684 0.040756 0.447137 -0.170633
O35   O     O_3   0.340475 0.905443 0.491768 -0.517128
H6    H     H_    0.366229 0.931538 0.520624 0.377835
I7    I     I_    0.561026 0.895007 0.197883 -0.053584
I8    I     I_    0.538331 0.862701 0.077443 -0.076893
S4    S     S_3+6 0.440406 0.983838 0.354151 0.080209
O36   O     O_2   0.342402 0.094655 0.358438 -0.253443
O37   O     O_2   0.526329 0.974903 0.391494 -0.147497
O38   O     O_3   0.492715 0.970734 0.305036 -0.530398
H7    H     H_    0.497292 0.038576 0.304083 0.381890
I9    I     I_    0.054373 0.520240 0.911382 -0.150139
I10   I     I_    0.062690 0.513606 0.793602 -0.078426
S5    S     S_3+6 0.111218 0.456575 0.661174 0.061617
O39   O     O_2   0.040506 0.474736 0.617430 -0.255188
O40   O     O_2   0.095875 0.381680 0.687769 -0.243170
O41   O     O_3   0.074088 0.576786 0.690896 -0.438118
H8    H     H_    0.993663 0.611179 0.690627 0.393655
I11   I     I_    0.638061 0.197552 0.612855 -0.085963
S6    S     S_3+6 0.530554 0.303394 0.833254 0.091402
O42   O     O_2   0.514727 0.362685 0.792161 -0.243025
O43   O     O_2   0.575017 0.352208 0.872350 -0.257715
O44   O     O_3   0.621210 0.170923 0.824615 -0.416968
H9    H     H_    0.690055 0.170301 0.820109 0.388881
I12   I     I_    0.543165 0.188959 0.930147 -0.070344
S7    S     S_3+6 0.546101 0.171254 0.704718 0.147664
O45   O     O_2   0.501856 0.156247 0.744701 -0.157259
O46   O     O_2   0.597118 0.063798 0.677634 -0.130636
O47   O     O_3   0.644149 0.205950 0.723235 -0.463723
H10   H     H_    0.611646 0.284133 0.717898 0.360592
S8    S     S_3+6 0.611857 0.518441 0.710047 0.005911
O48   O     O_2   0.637582 0.593470 0.688426 -0.286122
O49   O     O_2   0.547093 0.480596 0.675751 -0.282532
O50   O     O_3   0.536653 0.586326 0.753835 -0.489822
H11   H     H_    0.566902 0.634338 0.768190 0.339817
I13   I     I_    0.499823 0.262880 0.181875 -0.164006
S9    S     S_3+6 0.039833 0.097847 0.779235 0.027199
O51   O     O_2   0.063624 0.004279 0.744427 -0.276335
O52   O     O_2   0.136851 0.117301 0.787830 -0.262461
O53   O     O_3   0.017649 0.063408 0.827245 -0.525716
H12   H     H_    0.073410 0.986230 0.830203 0.366643
I14   I     I_    0.030579 0.147468 0.667041 -0.057596
I15   I     I_    0.250969 0.659146 0.677847 -0.074507
S10   S     S_3+6 0.244442 0.702388 0.792250 0.089527
O54   O     O_2   0.313247 0.582770 0.780608 -0.177854
O55   O     O_2   0.245268 0.720104 0.842784 -0.273344
O56   O     O_3   0.115658 0.740225 0.770506 -0.426410
H13   H     H_    0.074013 0.818637 0.780013 0.367320
I16   I     I_    0.419899 0.009887 0.814620 -0.102065
S11   S     S_3+6 0.439582 0.953117 0.700882 0.114841
O57   O     O_2   0.454095 0.922310 0.651441 -0.255140
O58   O     O_2   0.363848 0.073503 0.706581 -0.179320
O59   O     O_3   0.562068 0.924437 0.728000 -0.394533
H14   H     H_    0.605965 0.844069 0.724221 0.356551
I17   I     I_    0.550711 0.269839 0.302764 -0.229970
I18   I     I_    0.840976 0.543009 0.092845 -0.051981
S12   S     S_3+6 0.664597 0.546845 0.162936 0.108372
O60   O     O_2   0.707198 0.611902 0.194278 -0.135969
O61   O     O_2   0.606262 0.608723 0.121657 -0.244441
O62   O     O_3   0.574802 0.528834 0.187901 -0.414197
H15   H     H_    0.545741 0.491878 0.164174 0.364648
S13   S     S_3+6 0.730082 0.562769 0.303650 0.078067
O63   O     O_2   0.822816 0.548686 0.278896 -0.196650
O64   O     O_2   0.634600 0.578486 0.270672 -0.218058
O65   O     O_3   0.689756 0.675700 0.338817 -0.467972
H16   H     H_    0.658293 0.736976 0.318844 0.405610
I19   I     I_    0.838296 0.550340 0.417671 -0.029087
S14   S     S_3+6 0.845188 0.147990 0.409091 0.095708
O66   O     O_2   0.862670 0.172743 0.458849 -0.252053
O67   O     O_2   0.757566 0.114388 0.400869 -0.209176
O68   O     O_3   0.963197 0.043944 0.392368 -0.461482
H17   H     H_    0.974693 0.981056 0.408364 0.388070

loop_
_geom_bond_atom_site_label_1
_geom_bond_atom_site_label_2
_ccdc_geom_bond_type
C34   O25   A    
S4    O38   S    
C55   C56   S    
C81   O14   A    
C41   C42   A    
C58   C62   A    
O47   H10   S    
Cr5   O9    S    
C73   C74   S    
C32   S1    S    
C77   O8    A    
C35   C36   A    
Cr6   O19   S    
C43   C44   A    
C34   C66   S    
C63   C65   T    
S8    O49   D    
C31   C32   A    
S9    O51   D    
S10   O54   D    
C40   C46   A    
C14   S13   S    
Cr5   O19   S    
C26   C27   A    
C33   C39   A    
C74   C76   T    
C80   O11   A    
Cr2   O20   S    
C18   C24   A    
C82   O17   A    
C28   C29   A    
C58   H3    S    
O38   H7    S    
C4    C7    S    
C69   S10   S    
C5    C6    S    
O62   H15   S    
C46   H2    S    
O50   H11   S    
C60   I14   S    
S4    O36   D    
Cr5   O16   S    
C25   C30   A    
C77   O7    A    
C18   C19   A    
C56   O24   A    
C32   C39   A    
C9    C23   S    
C16   S12   S    
C70   I16   S    
C23   O1    A    
C23   O23   A    
C43   C53   S    
C19   I2    S    
C62   C63   S    
C47   C48   A    
S10   O55   D    
C16   C17   A    
S12   O61   D    
S5    O41   S    
C8    C79   S    
C27   S4    S    
C79   O9    A    
C69   C73   A    
S13   O63   D    
Cr1   O5    S    
C84   H1    S    
C9    C10   A    
Cr3   O22   S    
S12   O60   D    
S10   O56   S    
C68   C72   A    
C12   O22   A    
C81   O15   A    
C59   C60   A    
C49   C54   A    
C21   C22   T    
C55   C64   T    
C1    C25   S    
C79   O10   A    
O59   H14   S    
C1    O20   A    
C56   O4    A    
S13   O65   S    
S3    O35   S    
Cr1   O12   S    
C76   C83   S    
O65   H16   S    
C44   C46   A    
S8    O50   S    
C12   O21   A    
S9    O52   D    
C17   I18   S    
C40   C45   S    
C12   C67   S    
C17   C24   A    
C51   C52   S    
C82   O16   A    
C47   I10   S    
S3    O34   D    
Cr2   O2    S    
C50   S6    S    
S8    O48   D    
Cr4   O14   S    
C68   C69   A    
C47   C51   A    
C25   C26   A    
C44   S5    S    
O68   H17   S    
C60   C61   A    
C48   C54   A    
C61   C64   S    
S2    O31   D    
O56   H13   S    
C4    C78   A    
C29   C30   A    
C3    I17   S    
S7    O47   S    
Cr4   O13   S    
Cr1   O1    S    
C65   C81   S    
O44   H9    S    
S14   O68   S    
C28   C38   S    
C16   C20   A    
S12   O62   S    
Cr3   O3    S    
C70   C73   A    
C50   C51   A    
Cr4   O7    S    
C20   C21   S    
Cr1   O24   S    
Cr6   O11   S    
Cr3   O23   S    
Cr2   O26   S    
C35   I7    S    
S1    O29   S    
C40   C41   A    
C18   I3    S    
C49   C50   A    
C37   C38   T    
C80   O6    A    
O32   H5    S    
C83   O18   A    
C2    C5    A    
S11   O57   D    
C42   C43   A    
Cr6   O17   S    
C71   S11   S    
S11   O58   D    
C3    C4    A    
C45   O2    A    
C54   C82   S    
C70   C71   A    
C52   C53   T    
S1    O28   D    
S7    O45   D    
S9    O53   S    
C34   O26   A    
S4    O37   D    
C78   I1    S    
S6    O42   D    
C59   C62   A    
Cr5   O8    S    
C31   C36   A    
C49   I12   S    
S6    O44   S    
C11   I4    S    
S14   O67   D    
S3    O33   D    
C59   S9    S    
S2    O32   S    
Cr6   O18   S    
C6    C8    T    
O35   H6    S    
C42   S7    S    
C57   C61   A    
C57   S8    S    
C33   I8    S    
C68   I15   S    
S5    O39   D    
C83   O13   A    
Cr2   O21   S    
C39   C80   S    
Cr3   O5    S    
C19   C20   A    
O53   H12   S    
C2    C3    A    
C9    C15   A    
C71   C72   A    
C31   I5    S    
S7    O46   D    
C11   C13   A    
C72   C75   S    
C57   C58   A    
S11   O59   S    
C66   C75   T    
C48   I9    S    
Cr5   O15   S    
S6    O43   D    
C33   C35   A    
C13   C22   S    
S2    O30   D    
S5    O40   D    
Cr1   O25   S    
Cr2   O5    S    
Cr6   O10   S    
Cr4   O6    S    
C26   S3    S    
C10   C11   A    
C7    C67   T    
Cr4   O19   S    
C29   S2    S    
C78   C84   A    
C24   C77   S    
S14   O66   D    
C5    C84   A    
C36   C37   S    
C30   I6    S    
C2    I13   S    
C27   C28   A    
C14   C15   A    
S13   O64   D    
C15   I19   S    
Cr3   O4    S    
O41   H8    S    
C13   C14   A    
C45   O3    A    
C10   S14   S    
O29   H4    S    
C1    O12   A    
S1    O27   D    
C41   I11   S    
