data_mof_unit_44002.cif
_audit_creation_date              2012-12-11T15:21:39-0500
_audit_creation_method            fapswitch 2.2
_symmetry_space_group_name_H-M    P1
_symmetry_Int_Tables_number       1
_space_group_crystal_system       triclinic
_cell_length_a                    19.297749
_cell_length_b                    7.140304
_cell_length_c                    17.597678
_cell_angle_alpha                 89.99988
_cell_angle_beta                  109.117639
_cell_angle_gamma                 90.0
_cell_volume                      2291.08251342

loop_
_atom_site_label
_atom_site_type_symbol
_atom_type_description
_atom_site_fract_x
_atom_site_fract_y
_atom_site_fract_z
_atom_type_partial_charge
O1    O     O_R   0.562310 0.505770 0.439670 -0.537451
O2    O     O_R   0.437690 0.005770 0.560330 -0.537451
O3    O     O_R   0.411650 0.169150 0.405330 -0.536542
O4    O     O_R   0.588350 0.669150 0.594670 -0.536572
C1    C     C_R   0.384471 0.345413 0.383217 0.693372
C2    C     C_R   0.615529 0.845413 0.616783 0.693350
O5    O     O_R   0.560140 0.175610 0.430010 -0.506155
O6    O     O_R   0.439860 0.675610 0.569990 -0.506170
O7    O     O_R   0.587240 0.012100 0.585200 -0.547410
O8    O     O_R   0.412760 0.512100 0.414800 -0.547407
C3    C     C_R   0.578770 0.344510 0.412112 0.775073
C4    C     C_R   0.421231 0.844510 0.587888 0.775055
O9    O     O_3   0.508720 0.341420 0.550890 -0.358834
O10   O     O_3   0.491280 0.841420 0.449110 -0.358803
V1    V     V_3+5 0.498380 0.063930 0.490560 1.527271
V2    V     V_3+5 0.501620 0.563930 0.509440 1.527219
C5    C     C_R   0.172763 0.752660 0.869009 -0.185276
C6    C     C_R   0.827239 0.252658 0.130993 -0.185273
C7    C     C_R   0.130249 0.914716 0.865275 -0.073618
C8    C     C_R   0.869752 0.414715 0.134725 -0.073617
C9    C     C_R   0.135459 0.062645 0.814387 -0.219893
C10   C     C_R   0.864542 0.562644 0.185614 -0.219892
C11   C     C_R   0.182451 0.048836 0.767957 0.098733
C12   C     C_R   0.817550 0.548834 0.232045 0.098733
C13   C     C_R   0.226272 0.887444 0.773964 0.090444
C14   C     C_R   0.773730 0.387442 0.226038 0.090444
C15   C     C_R   0.220842 0.738953 0.824400 0.087852
C16   C     C_R   0.779159 0.238952 0.175602 0.087851
C17   C     C_R   0.186383 0.193198 0.715460 -0.203980
C18   C     C_R   0.813619 0.693196 0.284542 -0.203977
C19   C     C_R   0.233656 0.178612 0.670029 -0.162228
C20   C     C_R   0.766347 0.678610 0.329974 -0.162229
C21   C     C_R   0.278905 0.020864 0.677267 0.107150
C22   C     C_R   0.721097 0.520863 0.322735 0.107149
C23   C     C_R   0.275720 0.874705 0.729723 -0.003475
C24   C     C_R   0.724282 0.374704 0.270279 -0.003474
C25   C     C_R   0.322091 0.716755 0.738673 -0.041405
C26   C     C_R   0.677910 0.216756 0.261328 -0.041406
C27   C     C_R   0.312443 0.566075 0.786254 -0.066407
C28   C     C_R   0.687557 0.066077 0.213746 -0.066404
C29   C     C_R   0.263151 0.577895 0.828971 -0.199395
C30   C     C_R   0.736850 0.077896 0.171030 -0.199391
C31   C     C_R   0.326139 0.006100 0.631720 -0.212369
C32   C     C_R   0.673862 0.506100 0.368281 -0.212378
C33   C     C_R   0.374643 0.853655 0.641219 -0.196253
C34   C     C_R   0.625357 0.353656 0.358782 -0.196253
C35   C     C_R   0.376435 0.713872 0.700018 0.399327
C36   C     C_R   0.623565 0.213874 0.299983 0.399325
H1    H     H_    0.169465 0.637481 0.907843 0.128225
H2    H     H_    0.830537 0.137478 0.092160 0.128225
H3    H     H_    0.102399 0.187415 0.810158 0.130366
H4    H     H_    0.897601 0.687415 0.189841 0.130366
H5    H     H_    0.152834 0.317568 0.709455 0.134762
H6    H     H_    0.847168 0.817565 0.290547 0.134761
H7    H     H_    0.235486 0.292174 0.629870 0.126684
H8    H     H_    0.764516 0.792171 0.370133 0.126682
H9    H     H_    0.325110 0.115059 0.588441 0.155536
H10   H     H_    0.674891 0.615059 0.411561 0.155533
H11   H     H_    0.341130 0.434979 0.789426 0.207993
H12   H     H_    0.658869 0.934982 0.210574 0.207993
H13   H     H_    0.257960 0.459917 0.865503 0.145271
H14   H     H_    0.742039 0.959918 0.134497 0.145272
C37   C     C_3   0.793214 0.696175 0.790520 1.128205
C38   C     C_3   0.206785 0.196174 0.209481 1.128197
C39   C     C_3   0.721644 0.672107 0.718405 -0.370163
C40   C     C_3   0.278355 0.172106 0.281597 -0.370158
H15   H     H_    0.682182 0.585503 0.736978 0.151395
H16   H     H_    0.317817 0.085497 0.263026 0.151388
H17   H     H_    0.733259 0.594853 0.668955 0.138149
H18   H     H_    0.266739 0.094856 0.331048 0.138150
H19   H     H_    0.864329 0.940368 0.716985 0.173316
H20   H     H_    0.135670 0.440370 0.283015 0.173315
H21   H     H_    0.756868 0.904049 0.611144 0.140949
H22   H     H_    0.243132 0.404052 0.388857 0.140947
C41   C     C_3   0.818079 0.002646 0.732937 -0.396042
C42   C     C_3   0.181921 0.502647 0.267063 -0.396040
C43   C     C_3   0.747162 0.000552 0.829248 -0.400616
C44   C     C_3   0.252838 0.500550 0.170752 -0.400622
C45   C     C_3   0.812601 0.909229 0.810342 -0.041393
C46   C     C_3   0.187399 0.409229 0.189658 -0.041387
H23   H     H_    0.757368 0.153180 0.840233 0.205875
H24   H     H_    0.242631 0.653178 0.159766 0.205873
H25   H     H_    0.741910 0.939388 0.885251 0.184896
H26   H     H_    0.258090 0.439385 0.114749 0.184892
C47   C     C_3   0.687354 0.864513 0.687195 -0.024746
C48   C     C_3   0.312645 0.364513 0.312805 -0.024751
C49   C     C_3   0.745291 0.977342 0.661484 -0.346558
C50   C     C_3   0.254709 0.477345 0.338516 -0.346559
C51   C     C_3   0.674279 0.971145 0.758552 -0.300090
C52   C     C_3   0.325721 0.471143 0.241447 -0.300094
H27   H     H_    0.635098 0.891612 0.780524 0.200871
H28   H     H_    0.364901 0.391610 0.219476 0.200846
H29   H     H_    0.649007 0.110128 0.737942 0.177300
H30   H     H_    0.350992 0.610128 0.262057 0.177313
H31   H     H_    0.830053 0.154648 0.743715 0.204510
H32   H     H_    0.169947 0.654649 0.256284 0.204511
H33   H     H_    0.723210 0.118061 0.638896 0.166953
H34   H     H_    0.276790 0.618064 0.361103 0.166956
O11   O     O_R   0.087220 0.271820 0.085230 -0.491576
O12   O     O_R   0.912780 0.771820 0.914770 -0.491576
O13   O     O_R   0.939860 0.595540 0.069990 -0.543767
O14   O     O_R   0.060140 0.095540 0.930010 -0.543768
C53   C     C_R   0.919199 0.426503 0.085394 0.721355
C54   C     C_R   0.080801 0.926504 0.914606 0.721354
O15   O     O_R   0.088340 0.601930 0.094680 -0.539598
O16   O     O_R   0.911660 0.101930 0.905320 -0.539598
O17   O     O_R   0.062310 0.765410 0.939660 -0.544798
O18   O     O_R   0.937690 0.265410 0.060340 -0.544798
C55   C     C_R   0.115822 0.431244 0.118371 0.691875
C56   C     C_R   0.884178 0.931244 0.881629 0.691876
O19   O     O_3   0.991270 0.429630 0.949130 -0.361690
O20   O     O_3   0.008730 0.929630 0.050870 -0.361691
V3    V     V_3+5 0.001620 0.707150 0.009440 1.564355
V4    V     V_3+5 0.998380 0.207150 0.990560 1.564356
F1    F     F_    0.784359 0.606865 0.856840 -0.704479
F2    F     F_    0.215641 0.106863 0.143162 -0.704489
S1    S     S_3+6 0.451437 0.553383 0.733961 0.000008
O21   O     O_2   0.468644 0.510818 0.821909 -0.315008
O22   O     O_2   0.431468 0.374897 0.686569 -0.350949
O23   O     O_3   0.527656 0.643290 0.722433 -0.517692
H35   H     H_    0.564103 0.540956 0.739095 0.353763
S2    S     S_3+6 0.548561 0.053393 0.266037 0.000005
O24   O     O_2   0.531356 0.010836 0.178089 -0.315045
O25   O     O_2   0.568525 0.874903 0.313427 -0.350915
O26   O     O_3   0.472344 0.143310 0.277564 -0.517684
H36   H     H_    0.435870 0.041036 0.260820 0.353747
F3    F     F_    0.849868 0.607839 0.772236 -0.711897
F4    F     F_    0.150131 0.107839 0.227765 -0.711896

loop_
_geom_bond_atom_site_label_1
_geom_bond_atom_site_label_2
_ccdc_geom_bond_type
C40   H16   S    
C37   C39   S    
O12   C56   A    
C38   F2    S    
O13   V3    S    
O1    C3    A    
C29   H13   S    
H20   C42   S    
O2    C4    A    
O11   V4    S    
C41   H31   S    
C27   C29   A    
C8    C53   S    
C37   C45   S    
C44   C52   S    
O5    C3    A    
C18   H6    S    
C43   C51   S    
C2    C47   S    
O16   V4    S    
C28   H12   S    
C11   C17   A    
O15   V3    S    
C23   C25   A    
C12   C14   A    
S1    O22   D    
C36   S2    S    
C44   C46   S    
C43   H25   S    
O11   C55   A    
C6    C8    A    
C33   C35   A    
O18   V4    S    
C15   C29   A    
O17   V3    S    
O15   C55   A    
C5    C7    A    
H21   C49   S    
C32   H10   S    
C39   H15   S    
C46   C55   S    
C19   C21   A    
C53   O18   A    
C51   H27   S    
C30   H14   S    
C26   C36   A    
C37   F1    S    
C47   C49   S    
O6    V2    S    
C38   C46   S    
C2    O7    A    
O20   V3    S    
C32   C34   A    
C52   H30   S    
C43   C45   S    
C34   C36   A    
H19   C41   S    
C5    C15   A    
C6    C16   A    
O4    C2    A    
C48   C52   S    
S1    O23   S    
C5    H1    S    
C47   C51   S    
C4    C33   S    
O5    V1    S    
C38   F4    S    
C20   C22   A    
O4    V2    S    
O14   V4    S    
C18   C20   A    
C7    C54   S    
C44   H24   S    
C52   H28   S    
C43   H23   S    
O6    C4    A    
C27   H11   S    
C22   C32   A    
O1    V2    S    
O14   C54   A    
O2    V1    S    
C31   C33   A    
C13   C23   A    
C1    C48   S    
C41   C49   S    
C8    C10   A    
C9    C11   A    
O26   H36   S    
C10   C12   A    
C25   C35   A    
S2    O25   D    
C9    H3    S    
O3    V1    S    
O23   H35   S    
C6    H2    S    
C10   H4    S    
O16   C56   A    
C14   C24   A    
C42   C50   S    
C45   C56   S    
C7    C9    A    
O12   V3    S    
C42   C46   S    
C28   C30   A    
O3    C1    A    
C40   C48   S    
C39   C47   S    
C13   C15   A    
C14   C16   A    
O13   C53   A    
H22   C50   S    
S2    O26   S    
C24   C26   A    
O7    V1    S    
C1    O8    A    
C25   C27   A    
O8    V2    S    
S1    O21   D    
C42   H32   S    
C26   C28   A    
C40   H18   S    
C17   H5    S    
C39   H17   S    
C16   C30   A    
C21   C23   A    
C22   C24   A    
O19   V4    S    
C48   C50   S    
C11   C13   A    
C51   H29   S    
C12   C18   A    
C31   H9    S    
C50   H34   S    
C44   H26   S    
C35   S1    S    
C17   C19   A    
O9    V2    S    
O10   V1    S    
C3    C34   S    
C19   H7    S    
S2    O24   D    
C21   C31   A    
C41   C45   S    
C20   H8    S    
C54   O17   A    
C37   F3    S    
C38   C40   S    
C49   H33   S    
