data_mof_unit_20087.cif
_audit_creation_date              2012-12-11T14:50:52-0500
_audit_creation_method            fapswitch 2.2
_symmetry_space_group_name_H-M    P1
_symmetry_Int_Tables_number       1
_space_group_crystal_system       triclinic
_cell_length_a                    10.89302
_cell_length_b                    10.899777
_cell_length_c                    18.825478
_cell_angle_alpha                 90.313941
_cell_angle_beta                  89.726312
_cell_angle_gamma                 60.281501
_cell_volume                      1941.08615901

loop_
_atom_site_label
_atom_site_type_symbol
_atom_type_description
_atom_site_fract_x
_atom_site_fract_y
_atom_site_fract_z
_atom_type_partial_charge
C1    C     C_R   0.236421 0.646602 0.609747 0.538566
C2    C     C_R   0.551906 0.230809 0.796925 -0.087168
C3    C     C_R   0.535558 0.244254 0.724501 -0.130746
C4    C     C_R   0.652920 0.621461 0.601523 0.537894
C5    C     C_R   0.653243 0.197729 0.679391 0.016922
C6    C     C_R   0.187489 0.555679 0.721036 -0.153218
C7    C     C_R   0.177557 0.561069 0.794897 -0.132414
C8    C     C_R   0.170036 0.676611 0.832118 0.083097
C9    C     C_R   0.179321 0.782689 0.794955 -0.102622
C10   C     C_R   0.186790 0.778493 0.721954 -0.142357
C11   C     C_R   0.193202 0.664102 0.684190 0.028153
C12   C     C_3   0.678686 0.543774 0.800154 0.091953
C13   C     C_R   0.750718 0.534770 0.274858 -0.117065
C14   C     C_R   0.747505 0.542460 0.202167 -0.128216
C15   C     C_R   0.654722 0.669260 0.168538 0.028755
C16   C     C_R   0.625556 0.233001 0.604452 0.538294
C17   C     C_R   0.552800 0.783335 0.209071 -0.130476
C18   C     C_R   0.549775 0.771981 0.282934 -0.128938
C19   C     C_R   0.651624 0.648242 0.316250 0.029258
C20   C     C_R   0.557861 0.138699 0.289860 -0.109178
C21   C     C_R   0.555843 0.131508 0.217127 -0.118820
C22   C     C_R   0.649726 0.155749 0.176425 0.029376
C23   C     C_3   0.698508 0.673249 0.812473 0.065537
C24   C     C_R   0.741933 0.192662 0.208943 -0.143436
C25   C     C_R   0.740500 0.204504 0.281942 -0.095440
C26   C     C_R   0.647642 0.178689 0.322599 0.051950
C27   C     C_R   0.081034 0.809251 0.306055 0.185769
C28   C     C_R   0.216335 0.650726 0.403080 0.591948
C29   C     C_R   0.066357 0.819139 0.233511 -0.106662
C30   C     C_R   0.100090 0.699059 0.191961 -0.052794
C31   C     C_R   0.130129 0.572799 0.224278 -0.116769
C32   C     C_R   0.146201 0.560611 0.297376 0.188617
C33   C     C_R   0.136748 0.675882 0.337635 0.043701
C34   C     C_3   0.668403 0.646617 0.676975 0.024451
C35   C     C_R   0.701905 0.103585 0.896626 0.555976
C36   C     C_R   0.723856 0.688140 0.888087 0.598749
C37   C     C_R   0.116780 0.707273 0.904922 0.568907
C38   C     C_R   0.674151 0.107453 0.103963 0.554581
C39   C     C_R   0.694302 0.689514 0.097216 0.562152
C40   C     C_R   0.641344 0.621406 0.391244 0.547949
C41   C     C_R   0.079227 0.717206 0.116274 0.565312
C42   C     C_R   0.617791 0.228724 0.394911 0.566642
C43   C     C_3   0.568270 0.809311 0.783467 -0.219298
C44   C     C_3   0.549671 0.792669 0.703806 -0.242814
C45   C     C_3   0.812718 0.636926 0.689926 -0.260783
C46   C     C_3   0.831130 0.650833 0.769806 -0.269613
C47   C     C_3   0.658802 0.529603 0.720213 -0.179606
C48   C     C_R   0.788872 0.140588 0.708419 -0.158364
C49   C     C_R   0.806108 0.121613 0.781857 -0.147924
C50   C     C_R   0.687266 0.163020 0.826048 0.058016
Cl1   Cl    Cl    0.034229 0.966029 0.354299 -0.611946
Cl2   Cl    Cl    0.180160 0.398166 0.334132 -0.597288
Cl3   Cl    Cl    0.533615 0.554671 0.850829 -0.668432
Cr1   Cr    Cr6+3 0.392930 0.397900 0.502230 1.075862
Cr2   Cr    Cr6+3 0.398240 0.708600 0.501260 1.060069
Cr3   Cr    Cr6+3 0.708800 0.393470 0.496460 1.067030
Cr4   Cr    Cr6+3 0.937620 0.938540 0.007640 1.028930
Cr5   Cr    Cr6+3 0.625150 0.937450 0.994520 1.029715
Cr6   Cr    Cr6+3 0.937990 0.625080 0.001190 1.027975
H1    H     H_    0.583375 0.902338 0.791266 0.131889
H2    H     H_    0.191664 0.863888 0.695399 0.124703
H3    H     H_    0.830216 0.437346 0.298328 0.165800
H4    H     H_    0.826605 0.451550 0.172713 0.139907
H5    H     H_    0.479903 0.882083 0.184157 0.130981
H6    H     H_    0.469560 0.859443 0.313797 0.151296
H7    H     H_    0.484433 0.119368 0.320207 0.172212
H8    H     H_    0.484996 0.100629 0.193170 0.142022
H9    H     H_    0.816970 0.208797 0.178151 0.125540
H10   H     H_    0.809279 0.237293 0.306359 0.176179
H11   H     H_    0.444142 0.802661 0.695431 0.149217
H12   H     H_    0.926042 0.552788 0.787638 0.127047
H13   H     H_    0.028478 0.921925 0.209760 0.178028
H14   H     H_    0.143115 0.483493 0.192814 0.166452
H15   H     H_    0.850708 0.740625 0.779405 0.128245
H16   H     H_    0.819053 0.722208 0.660753 0.129642
H17   H     H_    0.775002 0.446544 0.817893 0.142879
H18   H     H_    0.555265 0.535573 0.710228 0.168785
H19   H     H_    0.742289 0.423118 0.702048 0.122566
H20   H     H_    0.880557 0.108350 0.674459 0.126220
H21   H     H_    0.169597 0.478377 0.822526 0.116074
H22   H     H_    0.552725 0.878788 0.673727 0.125037
H23   H     H_    0.900556 0.534085 0.670140 0.140164
H24   H     H_    0.911769 0.067826 0.803432 0.122219
H25   H     H_    0.458535 0.264684 0.829901 0.141784
H26   H     H_    0.429562 0.292480 0.703844 0.134367
H27   H     H_    0.192026 0.466613 0.692918 0.114871
H28   H     H_    0.173523 0.873552 0.821856 0.130457
H29   H     H_    0.470317 0.831649 0.812788 0.172060
O1    O     O_R   0.507430 0.255570 0.581420 -0.527044
O2    O     O_R   0.837200 0.593290 0.915250 -0.526419
O3    O     O_R   0.065330 0.635370 0.931590 -0.513941
O4    O     O_R   0.280190 0.527390 0.578910 -0.510768
O5    O     O_R   0.068300 0.828790 0.091860 -0.518429
O6    O     O_R   0.798730 0.057480 0.079370 -0.508457
O7    O     O_R   0.584680 0.080480 0.076790 -0.523078
O8    O     O_R   0.626790 0.809640 0.067050 -0.498804
O9    O     O_R   0.816010 0.596460 0.076500 -0.519239
O10   O     O_R   0.045680 0.638310 0.081070 -0.499691
O11   O     O_3   0.833590 0.833690 0.001120 -0.264234
O12   O     O_R   0.524460 0.695920 0.424060 -0.499601
O13   O     O_R   0.260310 0.739740 0.584580 -0.524693
O14   O     O_R   0.532250 0.695150 0.573830 -0.510516
O15   O     O_R   0.744930 0.503430 0.576380 -0.520788
O16   O     O_R   0.699250 0.276390 0.571950 -0.501075
O17   O     O_R   0.499020 0.256400 0.419850 -0.486694
O18   O     O_R   0.272400 0.528160 0.429140 -0.452233
O19   O     O_R   0.251910 0.740570 0.423020 -0.455183
O20   O     O_R   0.736530 0.504260 0.414810 -0.503520
O21   O     O_R   0.691460 0.277160 0.422180 -0.488166
O22   O     O_3   0.499990 0.499990 0.499980 -0.277331
O23   O     O_R   0.089490 0.825610 0.930610 -0.519132
O24   O     O_R   0.818370 0.054540 0.929880 -0.505167
O25   O     O_R   0.605870 0.077310 0.915530 -0.532479
O26   O     O_R   0.646440 0.806700 0.917570 -0.499681

loop_
_geom_bond_atom_site_label_1
_geom_bond_atom_site_label_2
_ccdc_geom_bond_type
C3    H26   S    
Cr6   O11   S    
C2    H25   S    
C45   H23   S    
C1    C11   S    
C43   C44   S    
C36   O26   A    
C7    C8    A    
C45   C46   S    
C27   C33   A    
C18   H6    S    
C12   C23   S    
C43   H29   S    
C48   H20   S    
C20   H7    S    
C42   O21   A    
C17   H5    S    
C30   C31   A    
C39   O9    A    
Cr4   O24   S    
C27   C29   A    
C28   O19   A    
C22   C38   S    
C4    O15   A    
C23   C43   S    
Cr1   O22   S    
C18   C19   A    
Cr5   O8    S    
C32   Cl2   S    
C5    C16   S    
C2    C50   A    
C16   O16   A    
C41   O5    A    
C13   H3    S    
C28   O18   A    
C8    C9    A    
C4    O14   A    
C38   O7    A    
Cr5   O25   S    
C30   C41   S    
C44   H11   S    
C9    C10   A    
C12   Cl3   S    
C40   O20   A    
C29   H13   S    
C16   O1    A    
C23   C46   S    
Cr4   O5    S    
C13   C14   A    
C21   H8    S    
C12   C47   S    
Cr3   O22   S    
C27   Cl1   S    
C5    C48   A    
C4    C34   S    
C37   O3    A    
C34   C44   S    
C24   C25   A    
Cr3   O16   S    
Cr1   O1    S    
C44   H22   S    
C10   C11   A    
C6    C11   A    
Cr1   O18   S    
C13   C19   A    
C25   C26   A    
Cr2   O19   S    
Cr6   O2    S    
Cr2   O12   S    
Cr5   O7    S    
Cr1   O4    S    
C29   C30   A    
C31   C32   A    
Cr2   O14   S    
C38   O6    A    
C35   C50   S    
C17   C18   A    
C34   C45   S    
Cr6   O3    S    
C15   C39   S    
C46   H12   S    
C43   H1    S    
C48   C49   A    
C28   C33   S    
C23   C36   S    
C1    O4    A    
Cr4   O6    S    
C12   H17   S    
Cr2   O22   S    
Cr6   O9    S    
C22   C24   A    
C10   H2    S    
C25   H10   S    
C8    C37   S    
C47   H18   S    
C1    O13   A    
Cr3   O21   S    
C46   H15   S    
C26   C42   S    
C36   O2    A    
C15   C17   A    
Cr1   O17   S    
C14   C15   A    
Cr5   O11   S    
Cr3   O15   S    
C3    C5    A    
C40   O12   A    
C6    C7    A    
Cr2   O13   S    
C6    H27   S    
C45   H16   S    
C32   C33   A    
C49   H24   S    
C2    C3    A    
C9    H28   S    
Cr4   O23   S    
C20   C26   A    
C14   H4    S    
C35   O25   A    
C42   O17   A    
C39   O8    A    
C37   O23   A    
C31   H14   S    
C19   C40   S    
C24   H9    S    
C20   C21   A    
C49   C50   A    
Cr5   O26   S    
Cr6   O10   S    
Cr3   O20   S    
C41   O10   A    
C34   C47   S    
C47   H19   S    
C21   C22   A    
C35   O24   A    
C7    H21   S    
Cr4   O11   S    
