data_mof_unit_40574.cif
_audit_creation_date              2012-12-11T15:06:49-0500
_audit_creation_method            fapswitch 2.2
_symmetry_space_group_name_H-M    P1
_symmetry_Int_Tables_number       1
_space_group_crystal_system       triclinic
_cell_length_a                    19.686368
_cell_length_b                    11.314089
_cell_length_c                    18.710097
_cell_angle_alpha                 89.897209
_cell_angle_beta                  90.04544
_cell_angle_gamma                 89.998969
_cell_volume                      4167.35399771

loop_
_atom_site_label
_atom_site_type_symbol
_atom_type_description
_atom_site_fract_x
_atom_site_fract_y
_atom_site_fract_z
_atom_type_partial_charge
C1    C     C_R   0.761301 0.523762 0.639238 0.539485
C2    C     C_3   0.253588 0.056291 0.562688 0.065189
C3    C     C_R   0.740150 0.035755 0.152017 0.536853
C4    C     C_R   0.774218 0.132712 0.858938 0.530561
C5    C     C_R   0.226198 0.131366 0.141689 0.524973
C6    C     C_R   0.274218 0.632712 0.858938 0.530966
C7    C     C_R   0.726198 0.631365 0.141690 0.525684
C8    C     C_R   0.966812 0.353445 0.854817 0.576807
C9    C     C_R   0.031115 0.353325 0.146353 0.567956
C10   C     C_R   0.466813 0.853445 0.854817 0.576394
C11   C     C_R   0.531114 0.853325 0.146353 0.568711
C12   C     C_3   0.687445 0.132518 0.465323 -0.233906
C13   C     C_3   0.247647 0.560097 0.436033 0.063776
C14   C     C_3   0.315089 0.126878 0.532794 -0.234405
C15   C     C_3   0.192107 0.645955 0.463138 -0.244635
C16   C     C_3   0.812201 0.632497 0.534476 -0.235459
C17   C     C_3   0.692539 0.144978 0.546540 -0.230532
C18   C     C_3   0.312706 0.130273 0.450800 -0.237802
C19   C     C_3   0.194245 0.649685 0.545019 -0.232726
C20   C     C_3   0.807203 0.644109 0.453261 -0.231173
C21   C     C_3   0.755910 0.938286 0.481128 -0.218510
C22   C     C_3   0.240079 0.939469 0.520095 -0.217193
C23   C     C_3   0.245128 0.444449 0.481009 -0.226202
C24   C     C_3   0.752751 0.556896 0.563280 0.065290
C25   C     C_3   0.743179 0.439231 0.519661 -0.217686
C26   C     C_3   0.759992 0.090326 0.574258 0.066167
C27   C     C_3   0.241742 0.088164 0.424645 0.064569
C28   C     C_3   0.261219 0.592619 0.573616 0.067197
C29   C     C_3   0.739371 0.590449 0.425837 0.066861
C30   C     C_3   0.753205 0.957751 0.562413 -0.261534
C31   C     C_3   0.237287 0.956858 0.438919 -0.257220
C32   C     C_3   0.254304 0.460958 0.561839 -0.259530
C33   C     C_R   0.239075 0.525434 0.360189 0.536978
C34   C     C_3   0.745121 0.457923 0.438261 -0.261408
C35   C     C_3   0.822755 0.132858 0.529677 -0.217342
C36   C     C_3   0.186041 0.150522 0.468769 -0.219937
C37   C     C_3   0.325068 0.630961 0.529940 -0.215117
C38   C     C_3   0.676583 0.633771 0.470081 -0.216236
C39   C     C_3   0.994739 0.204333 0.457106 -0.239788
C40   C     C_3   0.992392 0.204407 0.539682 -0.233194
C41   C     C_3   0.503291 0.704642 0.459113 -0.232593
C42   C     C_3   0.496708 0.704756 0.541196 -0.232418
C43   C     C_3   0.066789 0.386995 0.473231 -0.219195
C44   C     C_R   0.261485 0.023480 0.638983 0.539304
C45   C     C_3   0.935998 0.410685 0.525741 -0.212129
C46   C     C_3   0.565443 0.905063 0.474623 -0.213911
C47   C     C_3   0.436160 0.906046 0.525506 -0.214872
C48   C     C_3   0.943771 0.402576 0.444685 -0.254799
C49   C     C_3   0.057133 0.387703 0.554462 -0.261373
C50   C     C_3   0.443237 0.892236 0.444440 -0.262697
C51   C     C_3   0.558871 0.890047 0.555752 -0.261655
C52   C     C_3   0.007712 0.332015 0.429825 0.063076
C53   C     C_3   0.988124 0.333255 0.568389 0.064691
C54   C     C_3   0.511222 0.832870 0.431127 0.064577
C55   C     C_R   0.738394 0.022832 0.361015 0.538167
C56   C     C_3   0.489925 0.833055 0.569182 0.064207
C57   C     C_3   0.818717 0.027867 0.047477 -0.228581
C58   C     C_3   0.188836 0.006110 0.956889 -0.224961
C59   C     C_3   0.318718 0.527868 0.047477 -0.228535
C60   C     C_3   0.688836 0.506110 0.956889 -0.224942
C61   C     C_R   0.774198 0.121165 0.649455 0.534907
C62   C     C_R   0.226955 0.118665 0.349317 0.530283
C63   C     C_R   0.274687 0.622271 0.649008 0.536558
C64   C     C_R   0.725691 0.621113 0.350554 0.533614
C65   C     C_3   0.821552 0.034392 0.967354 -0.222208
C66   C     C_3   0.810513 0.128546 0.448747 -0.260502
C67   C     C_3   0.185365 0.014779 0.036909 -0.232147
C68   C     C_3   0.321552 0.534392 0.967354 -0.222258
C69   C     C_3   0.685365 0.514779 0.036909 -0.232181
C70   C     C_3   0.692166 0.012279 0.031801 -0.223787
C71   C     C_3   0.318479 0.035279 0.968956 -0.218982
C72   C     C_3   0.192166 0.512279 0.031801 -0.223757
C73   C     C_3   0.818479 0.535279 0.968956 -0.218949
C74   C     C_3   0.744925 0.203385 0.060871 -0.257922
C75   C     C_3   0.242952 0.198887 0.937963 -0.260596
C76   C     C_3   0.244925 0.703385 0.060872 -0.257941
C77   C     C_3   0.191848 0.133800 0.550003 -0.258342
C78   C     C_3   0.742952 0.698888 0.937963 -0.260595
C79   C     C_3   0.748981 0.071677 0.075414 0.041724
C80   C     C_3   0.253144 0.067489 0.926001 0.052163
C81   C     C_3   0.248981 0.571677 0.075414 0.041933
C82   C     C_3   0.753143 0.567489 0.926001 0.052290
C83   C     C_3   0.760237 0.104515 0.936166 0.057506
C84   C     C_3   0.240385 0.101427 0.064818 0.053688
C85   C     C_3   0.260237 0.604515 0.936166 0.057385
C86   C     C_3   0.740385 0.601427 0.064818 0.053479
C87   C     C_3   0.698734 0.025872 0.949425 -0.262553
C88   C     C_3   0.315873 0.619062 0.449099 -0.250261
C89   C     C_3   0.309187 0.044969 0.051000 -0.252900
C90   C     C_3   0.198734 0.525872 0.949426 -0.262560
C91   C     C_3   0.809187 0.544969 0.050999 -0.252884
C92   C     C_3   0.745176 0.220543 0.978717 -0.219395
C93   C     C_3   0.237838 0.216458 0.019887 -0.228401
C94   C     C_3   0.245176 0.720543 0.978717 -0.219428
C95   C     C_3   0.737838 0.716458 0.019887 -0.228450
C96   C     C_3   0.993777 0.478429 0.042605 -0.310560
C97   C     C_3   0.990568 0.479318 0.961761 -0.307038
C98   C     C_3   0.493777 0.978429 0.042605 -0.310601
C99   C     C_3   0.688995 0.630798 0.551055 -0.259595
C100  C     C_3   0.490568 0.979318 0.961761 -0.306983
C101  C     C_3   0.067589 0.297304 0.025774 -0.143853
C102  C     C_3   0.937078 0.269910 0.974080 -0.164800
C103  C     C_3   0.567589 0.797304 0.025774 -0.143900
C104  C     C_3   0.437078 0.769909 0.974079 -0.164742
C105  C     C_3   0.947219 0.275316 0.055971 0.193481
C106  C     C_3   0.057226 0.299771 0.943854 0.195514
C107  C     C_3   0.447219 0.775315 0.055970 0.193494
C108  C     C_3   0.557227 0.799772 0.943854 0.195507
C109  C     C_R   0.968547 0.342242 0.644626 0.539446
C110  C     C_3   0.746570 0.055779 0.436937 0.065533
C111  C     C_R   0.029098 0.341780 0.353916 0.532860
C112  C     C_R   0.469205 0.842163 0.645053 0.538897
C113  C     C_R   0.531305 0.842067 0.355172 0.535535
C114  C     C_3   0.009032 0.351470 0.069987 0.055901
C115  C     C_3   0.987165 0.351319 0.931423 0.044010
C116  C     C_3   0.509032 0.851470 0.069987 0.055668
C117  C     C_3   0.487165 0.851319 0.931423 0.044158
C118  C     C_R   0.760973 0.532443 0.849349 0.543253
C119  C     C_R   0.240150 0.535755 0.152017 0.536184
C120  C     C_R   0.260973 0.032442 0.849349 0.543576
Cr1   Cr    Cr6+3 0.885690 0.492860 0.745310 0.996754
Cr2   Cr    Cr6+3 0.111880 0.178590 0.246990 1.037068
Cr3   Cr    Cr6+3 0.388120 0.678590 0.753010 1.029372
Cr4   Cr    Cr6+3 0.611880 0.678590 0.246990 1.037254
Cr5   Cr    Cr6+3 0.114310 0.492860 0.254690 0.995100
Cr6   Cr    Cr6+3 0.385690 0.992860 0.745310 0.996646
Cr7   Cr    Cr6+3 0.614310 0.992860 0.254690 0.995156
Cr8   Cr    Cr6+3 0.729880 0.332270 0.748190 1.006034
Cr9   Cr    Cr6+3 0.270120 0.332270 0.251810 1.004832
Cr10  Cr    Cr6+3 0.229880 0.832270 0.748190 1.006490
Cr11  Cr    Cr6+3 0.770120 0.832270 0.251810 1.004816
Cr12  Cr    Cr6+3 0.888120 0.178590 0.753010 1.029595
F1    F     F_    0.959752 0.163312 0.083102 -0.670354
F2    F     F_    0.061652 0.187591 0.915118 -0.683588
F3    F     F_    0.459753 0.663312 0.083101 -0.670316
F4    F     F_    0.561653 0.687592 0.915117 -0.683719
H1    H     H_    0.638225 0.097780 0.449959 0.130822
H2    H     H_    0.188329 0.910646 0.535065 0.128628
H3    H     H_    0.449259 0.035113 0.943926 0.153286
H4    H     H_    0.945396 0.509139 0.065611 0.118173
H5    H     H_    0.036242 0.525269 0.940486 0.115609
H6    H     H_    0.445396 0.009139 0.065611 0.118184
H7    H     H_    0.536242 0.025269 0.940486 0.115555
H8    H     H_    0.607826 0.855262 0.037950 0.031813
H9    H     H_    0.384223 0.783598 0.959166 0.046392
H10   H     H_    0.107826 0.355262 0.037950 0.031850
H11   H     H_    0.884223 0.283599 0.959167 0.046384
H12   H     H_    0.596566 0.854788 0.917433 0.110540
H13   H     H_    0.282456 0.379926 0.461675 0.132876
H14   H     H_    0.401740 0.812541 0.082661 0.101406
H15   H     H_    0.096566 0.354787 0.917433 0.110643
H16   H     H_    0.901740 0.312542 0.082662 0.101376
H17   H     H_    0.949963 0.179192 0.957792 0.230548
H18   H     H_    0.078782 0.206478 0.043900 0.207378
H19   H     H_    0.449964 0.679192 0.957792 0.230548
H20   H     H_    0.578782 0.706478 0.043900 0.207340
H21   H     H_    0.648663 0.100868 0.572172 0.107695
H22   H     H_    0.351552 0.071844 0.428294 0.109595
H23   H     H_    0.149985 0.600592 0.566492 0.108630
H24   H     H_    0.690954 0.408783 0.531296 0.126256
H25   H     H_    0.850694 0.598316 0.427945 0.108145
H26   H     H_    0.721819 0.867811 0.464474 0.108435
H27   H     H_    0.276006 0.869367 0.534264 0.109493
H28   H     H_    0.194335 0.415157 0.474083 0.109353
H29   H     H_    0.777907 0.369293 0.536280 0.108686
H30   H     H_    0.705075 0.924025 0.585289 0.105613
H31   H     H_    0.279497 0.908965 0.412244 0.100889
H32   H     H_    0.210215 0.425355 0.592101 0.101343
H33   H     H_    0.792454 0.422549 0.414793 0.103047
H34   H     H_    0.853557 0.084252 0.421628 0.126749
H35   H     H_    0.795372 0.909880 0.589332 0.121413
H36   H     H_    0.145343 0.090841 0.571327 0.125109
H37   H     H_    0.357645 0.564510 0.426524 0.132772
H38   H     H_    0.644924 0.590227 0.578754 0.126114
H39   H     H_    0.805713 0.218691 0.425985 0.105761
H40   H     H_    0.197314 0.219993 0.577578 0.103480
H41   H     H_    0.317438 0.706710 0.422673 0.099314
H42   H     H_    0.695450 0.721104 0.572633 0.105660
H43   H     H_    0.841590 0.219409 0.546691 0.111558
H44   H     H_    0.194380 0.241263 0.455636 0.109854
H45   H     H_    0.342278 0.719506 0.544523 0.109831
H46   H     H_    0.188509 0.922300 0.417318 0.128841
H47   H     H_    0.657789 0.719493 0.452080 0.111936
H48   H     H_    0.300166 0.413064 0.580959 0.123732
H49   H     H_    0.702157 0.411072 0.412187 0.121510
H50   H     H_    0.032206 0.139990 0.437721 0.127673
H51   H     H_    0.951970 0.149117 0.560404 0.132294
H52   H     H_    0.544757 0.648289 0.441605 0.129985
H53   H     H_    0.363281 0.093616 0.552049 0.132991
H54   H     H_    0.454959 0.649809 0.558882 0.130260
H55   H     H_    0.946392 0.172584 0.435381 0.111694
H56   H     H_    0.038929 0.161252 0.560464 0.110262
H57   H     H_    0.457612 0.663439 0.435206 0.110813
H58   H     H_    0.541686 0.661656 0.565187 0.109321
H59   H     H_    0.617127 0.890347 0.456018 0.111135
H60   H     H_    0.383917 0.890802 0.543299 0.111107
H61   H     H_    0.107685 0.329369 0.460662 0.108267
H62   H     H_    0.883693 0.393542 0.542218 0.110354
H63   H     H_    0.600442 0.834783 0.577433 0.106226
H64   H     H_    0.140599 0.623231 0.445018 0.128650
H65   H     H_    0.400478 0.841162 0.421628 0.104552
H66   H     H_    0.097960 0.337174 0.581810 0.103627
H67   H     H_    0.899208 0.358572 0.420245 0.100683
H68   H     H_    0.947771 0.492775 0.421388 0.129628
H69   H     H_    0.059250 0.479678 0.575044 0.123353
H70   H     H_    0.443413 0.980197 0.418283 0.124118
H71   H     H_    0.561964 0.977360 0.582533 0.122319
H72   H     H_    0.948142 0.503628 0.539091 0.132333
H73   H     H_    0.076989 0.477926 0.455657 0.139660
H74   H     H_    0.448613 0.999718 0.536239 0.130444
H75   H     H_    0.861172 0.597052 0.549919 0.131048
H76   H     H_    0.553775 0.999169 0.464227 0.129209
H77   H     H_    0.831705 0.936111 0.062751 0.145475
H78   H     H_    0.184543 0.914652 0.941122 0.130449
H79   H     H_    0.331705 0.436111 0.062751 0.145508
H80   H     H_    0.684543 0.414653 0.941122 0.130475
H81   H     H_    0.688899 0.221067 0.440195 0.108179
H82   H     H_    0.313798 0.218600 0.553473 0.107816
H83   H     H_    0.201391 0.734285 0.440839 0.112170
H84   H     H_    0.811376 0.721311 0.559107 0.107573
H85   H     H_    0.858215 0.082878 0.071541 0.221616
H86   H     H_    0.863115 0.067007 0.540244 0.126749
H87   H     H_    0.142864 0.046127 0.933228 0.226324
H88   H     H_    0.358215 0.582878 0.071541 0.221611
H89   H     H_    0.642864 0.546127 0.933228 0.226290
H90   H     H_    0.870517 0.069556 0.951896 0.155630
H91   H     H_    0.132834 0.041156 0.050604 0.170740
H92   H     H_    0.370517 0.569557 0.951896 0.155605
H93   H     H_    0.632834 0.541156 0.050603 0.170710
H94   H     H_    0.821878 0.943255 0.945093 0.119443
H95   H     H_    0.192836 0.927199 0.061637 0.119038
H96   H     H_    0.321879 0.443256 0.945093 0.119473
H97   H     H_    0.135575 0.120844 0.451639 0.134067
H98   H     H_    0.692836 0.427200 0.061636 0.119099
H99   H     H_    0.699774 0.922035 0.046148 0.113660
H100  H     H_    0.338842 0.949633 0.953246 0.107632
H101  H     H_    0.199774 0.422035 0.046148 0.113697
H102  H     H_    0.838842 0.449633 0.953246 0.107633
H103  H     H_    0.705447 0.938754 0.923359 0.103390
H104  H     H_    0.312505 0.956661 0.076607 0.097575
H105  H     H_    0.205447 0.438753 0.923359 0.103487
H106  H     H_    0.812505 0.456661 0.076606 0.097658
H107  H     H_    0.697168 0.238034 0.084514 0.121929
H108  H     H_    0.365540 0.567361 0.544209 0.127928
H109  H     H_    0.286035 0.250592 0.915652 0.109693
H110  H     H_    0.197168 0.738034 0.084515 0.121855
H111  H     H_    0.786035 0.750592 0.915651 0.109616
H112  H     H_    0.788135 0.250534 0.085988 0.107647
H113  H     H_    0.196259 0.229913 0.910393 0.154252
H114  H     H_    0.288135 0.750534 0.085989 0.107558
H115  H     H_    0.696259 0.729914 0.910393 0.154154
H116  H     H_    0.777778 0.293993 0.962772 0.110870
H117  H     H_    0.188423 0.248724 0.030111 0.110229
H118  H     H_    0.277778 0.793993 0.962772 0.110837
H119  H     H_    0.635728 0.568697 0.459934 0.125834
H120  H     H_    0.688423 0.748724 0.030111 0.110211
H121  H     H_    0.692327 0.243615 0.964727 0.126415
H122  H     H_    0.277625 0.277959 0.037996 0.126507
H123  H     H_    0.192327 0.743615 0.964727 0.126420
H124  H     H_    0.777625 0.777959 0.037995 0.126476
H125  H     H_    0.642038 0.044930 0.049504 0.132962
H126  H     H_    0.356064 0.103462 0.954112 0.127245
H127  H     H_    0.142038 0.544930 0.049505 0.132998
H128  H     H_    0.856064 0.603462 0.954111 0.127245
H129  H     H_    0.687134 0.236989 0.562259 0.137924
H130  H     H_    0.808156 0.907281 0.470191 0.124543
H131  H     H_    0.326924 0.219185 0.431798 0.135405
H132  H     H_    0.186382 0.738953 0.564593 0.139754
H133  H     H_    0.813423 0.736045 0.437068 0.138731
H134  H     H_    0.652031 0.066096 0.926552 0.110977
H135  H     H_    0.349150 0.102444 0.074387 0.122658
H136  H     H_    0.152031 0.566095 0.926553 0.111058
H137  H     H_    0.849150 0.602444 0.074386 0.122665
H138  H     H_    0.032291 0.544304 0.059004 0.155030
H139  H     H_    0.949259 0.535113 0.943927 0.153265
H140  H     H_    0.532291 0.044303 0.059004 0.154998
O1    O     O_R   0.957210 0.449410 0.665480 -0.533406
O2    O     O_R   0.167480 0.095300 0.164000 -0.527193
O3    O     O_R   0.332520 0.595300 0.836000 -0.530405
O4    O     O_R   0.667480 0.595300 0.164000 -0.526870
O5    O     O_R   0.946380 0.253940 0.826940 -0.463357
O6    O     O_R   0.053620 0.253940 0.173060 -0.448260
O7    O     O_R   0.446380 0.753940 0.826940 -0.463642
O8    O     O_R   0.553620 0.753940 0.173060 -0.447808
O9    O     O_3   0.834560 0.334570 0.748840 -0.286868
O10   O     O_3   0.165440 0.334570 0.251160 -0.282682
O11   O     O_3   0.334560 0.834570 0.748840 -0.286954
O12   O     O_R   0.042790 0.449410 0.334520 -0.534839
O13   O     O_3   0.665440 0.834570 0.251160 -0.285505
O14   O     O_R   0.820730 0.541240 0.668250 -0.515460
O15   O     O_R   0.179270 0.541240 0.331750 -0.515059
O16   O     O_R   0.320730 0.041240 0.668250 -0.515317
O17   O     O_R   0.679270 0.041240 0.331750 -0.515684
O18   O     O_R   0.714240 0.455060 0.663710 -0.528443
O19   O     O_R   0.285760 0.455060 0.336290 -0.529228
O20   O     O_R   0.214240 0.955060 0.663710 -0.528286
O21   O     O_R   0.785760 0.955060 0.336290 -0.529735
O22   O     O_R   0.736780 0.204870 0.675910 -0.516153
O23   O     O_R   0.457210 0.949410 0.665480 -0.533801
O24   O     O_R   0.263220 0.204870 0.324090 -0.516032
O25   O     O_R   0.236780 0.704870 0.675910 -0.516870
O26   O     O_R   0.763220 0.704870 0.324090 -0.516771
O27   O     O_R   0.833070 0.087590 0.673490 -0.530645
O28   O     O_R   0.166930 0.087590 0.326510 -0.531354
O29   O     O_R   0.333070 0.587590 0.673490 -0.530706
O30   O     O_R   0.666930 0.587590 0.326510 -0.530793
O31   O     O_R   0.946890 0.246800 0.676300 -0.509227
O32   O     O_R   0.053110 0.246800 0.323700 -0.509880
O33   O     O_R   0.446890 0.746800 0.676300 -0.509302
O34   O     O_R   0.542790 0.949410 0.334520 -0.535221
O35   O     O_R   0.553110 0.746800 0.323700 -0.510708
O36   O     O_R   0.956650 0.457120 0.827980 -0.543458
O37   O     O_R   0.043350 0.457120 0.172020 -0.546532
O38   O     O_R   0.456650 0.957120 0.827980 -0.543755
O39   O     O_R   0.543350 0.957120 0.172020 -0.546141
O40   O     O_R   0.820220 0.548390 0.818890 -0.511678
O41   O     O_R   0.179780 0.548390 0.181110 -0.510317
O42   O     O_R   0.320220 0.048390 0.818890 -0.511456
O43   O     O_R   0.679780 0.048390 0.181110 -0.509871
O44   O     O_R   0.713680 0.462770 0.826210 -0.517517
O45   O     O_R   0.736260 0.212010 0.826560 -0.510324
O46   O     O_R   0.286320 0.462770 0.173790 -0.519680
O47   O     O_R   0.213680 0.962770 0.826210 -0.517241
O48   O     O_R   0.786320 0.962770 0.173790 -0.519368
O49   O     O_R   0.263740 0.212010 0.173440 -0.510840
O50   O     O_R   0.236260 0.712010 0.826560 -0.510085
O51   O     O_R   0.763740 0.712010 0.173440 -0.510319
O52   O     O_R   0.832520 0.095300 0.836000 -0.530639

loop_
_geom_bond_atom_site_label_1
_geom_bond_atom_site_label_2
_ccdc_geom_bond_type
C70   H125  S    
C73   C82   S    
Cr11  O26   S    
C76   H114  S    
C21   C110  S    
C88   H41   S    
Cr7   O13   S    
C40   H51   S    
C57   H85   S    
Cr8   O18   S    
C48   H67   S    
C6    C85   S    
C1    O18   A    
Cr2   O28   S    
C9    C114  S    
Cr1   O1    S    
C94   H118  S    
Cr3   O3    S    
C45   C48   S    
Cr10  O20   S    
C74   C92   S    
C105  H16   S    
C41   H57   S    
C76   C94   S    
C107  H14   S    
C2    C22   S    
C3    O43   A    
C97   C115  S    
C64   O30   A    
C73   H128  S    
C25   C34   S    
Cr4   O8    S    
Cr12  O5    S    
C23   H13   S    
C29   C64   S    
C67   H95   S    
C37   H108  S    
C96   C114  S    
C11   O8    A    
C85   C90   S    
C84   C93   S    
C112  O23   A    
C27   C31   S    
C28   C32   S    
C38   C99   S    
C35   C66   S    
C118  O44   A    
C119  O41   A    
C13   C33   S    
C39   H55   S    
C78   C82   S    
C40   H56   S    
C16   C20   S    
C119  O46   A    
C37   H45   S    
C43   H61   S    
C66   C110  S    
C97   H139  S    
C102  H17   S    
C30   H30   S    
C33   O19   A    
C98   H140  S    
C65   H94   S    
C31   H31   S    
C74   C79   S    
C32   H32   S    
Cr10  O25   S    
C82   C118  S    
Cr12  O31   S    
Cr6   O38   S    
C75   C93   S    
C105  F1    S    
C104  C117  S    
C53   C109  S    
C72   H127  S    
C5    O49   A    
C70   C79   S    
C58   H87   S    
C68   H92   S    
C81   C119  S    
C61   O27   A    
C106  C115  S    
C86   C91   S    
C103  C116  S    
C36   H97   S    
C99   H38   S    
Cr1   O36   S    
C49   C53   S    
C59   H79   S    
C70   H99   S    
C2    C14   S    
C86   C95   S    
C88   H37   S    
C28   C63   S    
C103  H20   S    
C48   C52   S    
C44   O20   A    
C72   H101  S    
C14   H82   S    
C100  C117  S    
C20   H133  S    
C104  C107  S    
C108  H12   S    
Cr7   O39   S    
C112  O33   A    
C96   H138  S    
Cr4   O30   S    
C12   C110  S    
C92   H121  S    
Cr4   O4    S    
C113  O35   A    
C100  H3    S    
C51   H71   S    
C43   C52   S    
C7    C86   S    
Cr9   O19   S    
C4    O52   A    
C72   C90   S    
C13   C23   S    
Cr4   O35   S    
C6    O50   A    
C94   H123  S    
C2    C44   S    
Cr12  O27   S    
C29   C38   S    
C1    O14   A    
C107  F3    S    
C111  O12   A    
C17   H21   S    
Cr11  O48   S    
Cr7   O17   S    
C71   H126  S    
C45   C53   S    
C98   H6    S    
Cr2   O32   S    
C68   C85   S    
C14   H53   S    
C89   H104  S    
C43   H73   S    
C70   C87   S    
Cr2   O2    S    
C47   C50   S    
C9    O37   A    
C92   H116  S    
C35   H43   S    
C95   H124  S    
C87   H103  S    
Cr11  O13   S    
C99   H42   S    
C59   H88   S    
C39   C40   S    
C5    C84   S    
Cr6   O23   S    
C46   C51   S    
C27   C62   S    
C69   H93   S    
C102  H11   S    
C74   H112  S    
C58   C67   S    
Cr12  O9    S    
C67   H91   S    
C8    O36   A    
C19   C28   S    
Cr5   O15   S    
C34   H33   S    
C21   H130  S    
Cr6   O16   S    
C50   H70   S    
C57   H77   S    
C26   C30   S    
C45   H72   S    
C7    O51   A    
C4    O45   A    
C15   H83   S    
C23   H28   S    
C101  C106  S    
C118  O40   A    
C21   H26   S    
C108  C117  S    
C16   H75   S    
C5    O2    A    
C96   H4    S    
C109  O1    A    
C77   H40   S    
C109  O31   A    
C62   O28   A    
C60   H80   S    
C73   H102  S    
C10   C117  S    
C15   H64   S    
C60   C69   S    
C9    O6    A    
C16   H84   S    
C104  H19   S    
C107  C116  S    
C55   O17   A    
C106  F2    S    
C1    C24   S    
C95   H120  S    
C68   H96   S    
C47   C56   S    
C83   C87   S    
C78   H115  S    
C41   C42   S    
C37   C88   S    
C36   H44   S    
Cr1   O40   S    
C15   C19   S    
C50   C54   S    
Cr1   O14   S    
C26   C61   S    
Cr8   O9    S    
C36   C77   S    
C87   H134  S    
C18   H131  S    
C93   H117  S    
Cr8   O45   S    
C102  C105  S    
C14   C18   S    
Cr5   O41   S    
C102  C115  S    
C42   C56   S    
Cr10  O50   S    
C39   H50   S    
C55   O21   A    
Cr7   O43   S    
Cr8   O44   S    
C12   C17   S    
C72   C81   S    
C58   C80   S    
C38   H119  S    
C101  C114  S    
C6    O3    A    
C32   H48   S    
C90   H136  S    
C64   O26   A    
C47   H60   S    
Cr4   O13   S    
C35   H86   S    
C25   H29   S    
C29   C34   S    
C41   H52   S    
C10   O7    A    
C34   H49   S    
C18   H22   S    
Cr11  O51   S    
C91   H106  S    
C78   C95   S    
C46   C54   S    
C25   H24   S    
Cr3   O33   S    
Cr1   O9    S    
C11   C116  S    
Cr2   O6    S    
C97   H5    S    
C3    C79   S    
Cr3   O11   S    
C74   H107  S    
C10   O38   A    
C49   H69   S    
C98   C100  S    
C31   H46   S    
C66   H39   S    
C7    O4    A    
C12   H81   S    
Cr10  O47   S    
C50   H65   S    
Cr7   O34   S    
C48   H68   S    
Cr5   O10   S    
C106  H15   S    
Cr9   O49   S    
C59   C81   S    
C57   C65   S    
Cr10  O11   S    
C100  H7    S    
C108  F4    S    
C27   C36   S    
C21   C30   S    
C22   H2    S    
C113  O34   A    
C19   H23   S    
C23   C32   S    
C2    C77   S    
C4    C83   S    
C77   H36   S    
C65   H90   S    
C93   H122  S    
Cr11  O21   S    
C75   H113  S    
C80   C120  S    
C22   H27   S    
C24   C99   S    
C62   O24   A    
C57   C79   S    
C63   O29   A    
C103  H8    S    
C46   H59   S    
C83   C92   S    
C17   C26   S    
C28   C37   S    
Cr9   O10   S    
C51   C56   S    
C46   H76   S    
C65   C83   S    
C120  O47   A    
C54   C113  S    
C60   H89   S    
C42   H58   S    
C42   H54   S    
C17   H129  S    
C8    C115  S    
C60   C82   S    
C103  C108  S    
C120  O42   A    
C75   C80   S    
C75   H109  S    
C39   C52   S    
Cr5   O12   S    
C67   C84   S    
C16   C24   S    
Cr6   O11   S    
C71   C80   S    
C33   O15   A    
C20   C29   S    
C111  O32   A    
C41   C54   S    
C101  H10   S    
C22   C31   S    
C105  C114  S    
C91   H137  S    
C24   C25   S    
C73   C91   S    
Cr5   O37   S    
Cr6   O42   S    
C43   C49   S    
C52   C111  S    
C45   H62   S    
C38   H47   S    
C69   H98   S    
C59   C68   S    
C85   C94   S    
C98   C116  S    
C3    O48   A    
C71   C89   S    
Cr12  O52   S    
C96   C97   S    
C78   H111  S    
C71   H100  S    
C51   H63   S    
C63   O25   A    
C13   C15   S    
C55   C110  S    
C90   H105  S    
C84   C89   S    
C58   H78   S    
C49   H66   S    
C61   O22   A    
C44   O16   A    
C89   H135  S    
C104  H9    S    
C66   H34   S    
C76   H110  S    
C18   C27   S    
C101  H18   S    
C76   C81   S    
Cr8   O22   S    
Cr9   O24   S    
Cr3   O29   S    
Cr9   O46   S    
Cr2   O10   S    
Cr3   O7    S    
C8    O5    A    
C11   O39   A    
C20   H25   S    
C13   C88   S    
C26   C35   S    
C30   H35   S    
C40   C53   S    
C47   H74   S    
C12   H1    S    
C56   C112  S    
C69   C86   S    
C19   H132  S    
