data_mof_unit_40377.cif
_audit_creation_date              2012-12-11T15:59:37-0500
_audit_creation_method            fapswitch 2.2
_symmetry_space_group_name_H-M    P1
_symmetry_Int_Tables_number       1
_space_group_crystal_system       triclinic
_cell_length_a                    10.7227
_cell_length_b                    10.786481
_cell_length_c                    17.072057
_cell_angle_alpha                 99.920838
_cell_angle_beta                  99.610744
_cell_angle_gamma                 60.424636
_cell_volume                      1683.85676421

loop_
_atom_site_label
_atom_site_type_symbol
_atom_type_description
_atom_site_fract_x
_atom_site_fract_y
_atom_site_fract_z
_atom_type_partial_charge
C1    C     C_R   0.355729 0.776864 0.401574 0.555180
C2    C     C_R   0.803596 0.243849 0.192065 -0.024466
C3    C     C_R   0.823581 0.221273 0.273346 -0.011663
C4    C     C_R   0.914933 0.391230 0.309871 -0.151549
C5    C     C_R   0.923741 0.390398 0.230248 -0.157696
C6    C     C_R   0.735287 0.177307 0.135350 0.153977
C7    C     C_R   0.723110 0.064642 0.156802 -0.153061
C8    C     C_R   0.765511 0.026929 0.234246 -0.106199
C9    C     C_R   0.813195 0.104695 0.292720 0.386416
C10   C     C_R   0.854269 0.316233 0.331815 0.008254
C11   C     C_R   0.318030 0.863461 0.169371 0.018926
C12   C     C_R   0.366397 0.343175 0.358578 0.545350
C13   C     C_R   0.455143 0.812231 0.211662 -0.028470
C14   C     C_R   0.466850 0.820619 0.296119 -0.007741
C15   C     C_R   0.207810 0.902450 0.289631 -0.157565
C16   C     C_R   0.195259 0.913205 0.209808 -0.144282
C17   C     C_R   0.579941 0.752714 0.171385 -0.179800
C18   C     C_R   0.712881 0.717296 0.213436 -0.138562
C19   C     C_R   0.724508 0.742469 0.296100 0.369765
C20   C     C_R   0.603111 0.798053 0.338473 0.201497
C21   C     C_R   0.342368 0.846899 0.332344 -0.003958
C22   C     C_R   0.299006 0.275428 0.799183 0.007266
C23   C     C_R   0.780551 0.372388 0.404867 0.572100
C24   C     C_R   0.426459 0.175616 0.762531 0.015919
C25   C     C_R   0.478111 0.224790 0.711846 -0.027625
C26   C     C_R   0.246145 0.443996 0.706177 -0.135413
C27   C     C_R   0.208382 0.408025 0.769309 -0.140775
C28   C     C_R   0.508091 0.030255 0.778183 -0.157137
C29   C     C_R   0.647243 0.944369 0.755700 -0.085200
C30   C     C_R   0.708023 0.002216 0.717645 0.387365
C31   C     C_R   0.624649 0.141131 0.696101 -0.068524
C32   C     C_R   0.379906 0.352720 0.676256 -0.005730
C33   C     C_1   0.818317 0.342297 0.708986 -0.045526
C34   C     C_R   0.357645 0.769619 0.627359 0.541575
C35   C     C_1   0.845620 0.313570 0.776580 -0.032922
C36   C     C_1   0.338868 0.809485 0.709421 -0.037401
C37   C     C_1   0.313603 0.836791 0.777619 -0.039982
C38   C     C_R   0.898420 0.308332 0.090207 0.562589
C39   C     C_R   0.290935 0.261665 0.122264 0.567482
C40   C     C_R   0.291356 0.896325 0.087322 0.530274
C41   C     C_R   0.886831 0.297142 0.858941 0.546649
C42   C     C_R   0.278886 0.252244 0.877053 0.548943
C43   C     C_R   0.279732 0.883826 0.857464 0.544550
C44   C     C_R   0.406993 0.375194 0.600117 0.530356
C45   C     C_R   0.773061 0.380978 0.629781 0.541830
C46   C     C_1   0.325533 0.317016 0.276831 -0.037372
C47   C     C_1   0.305175 0.293092 0.206257 -0.041903
C48   C     C_R   0.860863 0.324989 0.170637 0.005346
Cr1   Cr    Cr6+3 0.608100 0.610860 0.522250 1.040497
Cr2   Cr    Cr6+3 0.288890 0.599990 0.488420 1.107466
Cr3   Cr    Cr6+3 0.603040 0.289190 0.489390 1.063116
Cr4   Cr    Cr6+3 0.053960 0.052250 0.967380 1.045130
Cr5   Cr    Cr6+3 0.059890 0.373160 0.992710 1.006825
Cr6   Cr    Cr6+3 0.373370 0.061690 0.991710 0.970293
H1    H     H_    0.949916 0.455329 0.354211 0.197902
H2    H     H_    0.806659 0.676710 0.181295 0.145177
H3    H     H_    0.170967 0.543380 0.681015 0.175248
H4    H     H_    0.466115 0.982528 0.808809 0.160274
H5    H     H_    0.108987 0.484364 0.795114 0.155386
H6    H     H_    0.709013 0.834599 0.770052 0.139806
H7    H     H_    0.675661 0.181337 0.666489 0.171977
H8    H     H_    0.979251 0.442980 0.215464 0.162817
H9    H     H_    0.681184 0.005279 0.113345 0.140537
H10   H     H_    0.759884 0.937928 0.249594 0.182343
H11   H     H_    0.112716 0.928466 0.316978 0.205286
H12   H     H_    0.576270 0.732058 0.106986 0.142984
H13   H     H_    0.087379 0.959193 0.179488 0.155126
O1    O     O_R   0.749810 0.499790 0.438040 -0.511816
O2    O     O_R   0.298970 0.468800 0.557390 -0.490657
O3    O     O_R   0.489400 0.255930 0.561910 -0.554820
O4    O     O_R   0.723890 0.306050 0.584610 -0.517325
O5    O     O_3   0.500010 0.500010 0.500020 -0.295008
O6    O     O_R   0.171100 0.914680 0.053100 -0.519736
O7    O     O_R   0.941680 0.184840 0.050710 -0.474374
O8    O     O_R   0.922080 0.403420 0.072610 -0.545231
O9    O     O_R   0.196880 0.369150 0.083850 -0.493377
O10   O     O_R   0.411730 0.181020 0.091530 -0.517583
O11   O     O_R   0.365010 0.944360 0.063320 -0.522324
O12   O     O_R   0.477660 0.726260 0.439290 -0.478019
O13   O     O_R   0.159380 0.906670 0.876210 -0.468705
O14   O     O_R   0.930820 0.177420 0.886730 -0.472375
O15   O     O_R   0.910360 0.395420 0.895720 -0.526076
O16   O     O_R   0.186010 0.361730 0.919870 -0.494637
O17   O     O_R   0.400000 0.173010 0.914630 -0.529077
O18   O     O_R   0.354140 0.936940 0.899340 -0.541586
O19   O     O_3   0.162410 0.162370 0.983930 -0.292534
O20   O     O_R   0.260150 0.743000 0.412270 -0.473134
O21   O     O_R   0.297740 0.466550 0.394720 -0.469119
O22   O     O_R   0.488080 0.253500 0.386430 -0.520460
O23   O     O_R   0.722670 0.303800 0.421940 -0.426204
O24   O     O_R   0.751130 0.502220 0.613520 -0.498625
O25   O     O_R   0.478890 0.728510 0.601960 -0.506668
O26   O     O_R   0.261470 0.745430 0.587750 -0.486122
F1    F     F_    0.854137 0.719944 0.334890 -0.647468
N1    N     N_2   0.619968 0.838740 0.421977 -0.469924
H14   H     H_    0.722507 0.790176 0.450748 0.302780
C49   C     C_3   0.533278 0.986868 0.451129 -0.230572
H15   H     H_    0.491804 0.992203 0.507678 0.157208
H16   H     H_    0.440093 0.044988 0.407781 0.143841
H17   H     H_    0.602271 0.039100 0.463382 0.212193
F2    F     F_    0.846354 0.922576 0.699402 -0.625856
N2    N     N_2   0.676091 0.223878 0.057870 -0.481154
H18   H     H_    0.657789 0.152346 0.015617 0.266012
C50   C     C_3   0.564583 0.371894 0.054549 -0.256706
H19   H     H_    0.590062 0.421244 0.011911 0.141536
H20   H     H_    0.555023 0.436271 0.113751 0.141779
H21   H     H_    0.458836 0.376535 0.033248 0.191639
F3    F     F_    0.863403 0.055233 0.365622 -0.608992

loop_
_geom_bond_atom_site_label_1
_geom_bond_atom_site_label_2
_ccdc_geom_bond_type
C25   C31   A    
C1    C21   S    
Cr1   O1    S    
C45   O4    A    
C33   C45   S    
C31   H7    S    
N1    H14   S    
C34   O26   A    
Cr6   O17   S    
C49   H15   S    
C7    C8    A    
C2    C6    A    
C9    F3    S    
C26   C32   A    
C17   H12   S    
C39   O10   A    
C14   C21   A    
C36   C37   T    
Cr2   O2    S    
Cr4   O7    S    
Cr3   O23   S    
C30   C31   A    
C15   C16   A    
C15   H11   S    
C40   O6    A    
C18   C19   A    
C1    O20   A    
Cr2   O5    S    
C19   C20   A    
C8    C9    A    
Cr1   O5    S    
C44   O3    A    
Cr5   O19   S    
Cr3   O3    S    
C38   C48   S    
C18   H2    S    
Cr6   O10   S    
C25   C32   A    
C13   C14   A    
Cr5   O8    S    
Cr3   O4    S    
Cr1   O24   S    
C45   O24   A    
C50   H20   S    
C50   H19   S    
C49   H16   S    
C38   O8    A    
C5    C48   A    
C12   O21   A    
N2    H18   S    
C43   O18   A    
C14   C20   A    
C12   O22   A    
C42   O17   A    
C24   C25   A    
C12   C46   S    
Cr4   O6    S    
Cr6   O19   S    
C2    C48   A    
C43   O13   A    
Cr1   O12   S    
Cr5   O15   S    
C23   O1    A    
C37   C43   S    
C29   C30   A    
C3    C9    A    
C11   C16   A    
Cr4   O14   S    
C29   H6    S    
C41   O14   A    
C17   C18   A    
C32   C44   S    
C23   O23   A    
C44   O2    A    
C16   H13   S    
C39   O9    A    
N2    C50   S    
C7    H9    S    
C19   F1    S    
Cr2   O20   S    
C8    H10   S    
C40   O11   A    
C20   N1    S    
C28   H4    S    
C22   C27   A    
C4    H1    S    
C26   C27   A    
C1    O12   A    
C22   C24   A    
Cr5   O9    S    
Cr3   O5    S    
Cr1   O25   S    
C4    C10   A    
C49   H17   S    
C39   C47   S    
C38   O7    A    
C46   C47   T    
C28   C29   A    
C42   O16   A    
C24   C28   A    
C4    C5    A    
Cr6   O18   S    
N1    C49   S    
Cr2   O26   S    
C6    C7    A    
Cr2   O21   S    
C10   C23   S    
C13   C17   A    
Cr5   O16   S    
Cr4   O19   S    
C2    C3    A    
C3    C10   A    
C27   H5    S    
Cr3   O22   S    
C11   C13   A    
C22   C42   S    
C41   O15   A    
C30   F2    S    
C33   C35   T    
C5    H8    S    
C34   C36   S    
C6    N2    S    
C11   C40   S    
C35   C41   S    
C26   H3    S    
C34   O25   A    
C15   C21   A    
Cr4   O13   S    
C50   H21   S    
Cr6   O11   S    
