data_mof_unit_19598.cif
_audit_creation_date              2012-12-11T14:15:07-0500
_audit_creation_method            fapswitch 2.2
_symmetry_space_group_name_H-M    P1
_symmetry_Int_Tables_number       1
_space_group_crystal_system       triclinic
_cell_length_a                    24.532146
_cell_length_b                    17.273149
_cell_length_c                    15.544468
_cell_angle_alpha                 90.586301
_cell_angle_beta                  129.348569
_cell_angle_gamma                 89.487301
_cell_volume                      5093.3989439

loop_
_atom_site_label
_atom_site_type_symbol
_atom_type_description
_atom_site_fract_x
_atom_site_fract_y
_atom_site_fract_z
_atom_type_partial_charge
C1    C     C_R   0.348348 0.362481 0.239420 -0.089788
C2    C     C_R   0.683352 0.613154 0.501235 -0.008518
C3    C     C_3   0.661527 0.033088 0.834656 -0.240887
C4    C     C_3   0.629738 0.958228 0.836663 -0.927526
C5    C     C_3   0.300788 0.075918 0.045969 -0.395278
C6    C     C_3   0.348334 0.033280 0.157475 -0.240644
C7    C     C_3   0.380508 0.960557 0.148939 -0.933039
C8    C     C_R   0.867544 0.190729 0.502373 0.001524
C9    C     C_R   0.181216 0.118905 0.499957 -0.015605
C10   C     C_R   0.354969 0.635169 0.142897 0.102936
C11   C     C_R   0.646467 0.634297 0.858831 0.101859
C12   C     C_R   0.853464 0.129688 0.138281 0.101050
C13   C     C_R   0.148929 0.127746 0.863835 0.087520
C14   C     C_2   0.729509 0.680791 0.426827 -0.359886
C15   C     C_2   0.341801 0.782562 0.582507 -0.344222
C16   C     C_2   0.224723 0.191870 0.426057 -0.347189
C17   C     C_R   0.652322 0.363019 0.761112 -0.117173
C18   C     C_2   0.786223 0.299030 0.420326 -0.291154
C19   C     C_2   0.742057 0.636120 0.506484 -0.115411
C20   C     C_2   0.302787 0.726424 0.507036 -0.231677
C21   C     C_2   0.238734 0.144907 0.504508 -0.208049
C22   C     C_2   0.848313 0.270461 0.505785 -0.176427
C23   C     C_2   0.277460 0.248305 0.457868 0.490279
C24   C     C_2   0.747460 0.346988 0.444067 0.497590
C25   C     C_2   0.781714 0.738862 0.458921 0.481254
C26   C     C_2   0.307344 0.846513 0.594651 0.536977
C27   C     C_2   0.273268 0.319761 0.489661 0.120671
C28   C     C_R   0.848402 0.862680 0.238659 -0.089437
C29   C     C_2   0.723834 0.315293 0.494816 -0.009598
C30   C     C_2   0.775904 0.810578 0.488467 0.121549
C31   C     C_2   0.248094 0.878838 0.502615 0.071508
C32   C     C_2   0.647279 0.245368 0.852749 -0.202358
C33   C     C_2   0.353826 0.245462 0.144489 -0.208958
C34   C     C_2   0.147223 0.744639 0.850709 -0.202077
C35   C     C_2   0.853821 0.745472 0.144427 -0.204402
C36   C     C_2   0.697551 0.205586 0.860903 -0.189388
C37   C     C_2   0.306280 0.203573 0.139723 -0.174560
C38   C     C_2   0.198900 0.706056 0.861554 -0.187885
C39   C     C_R   0.151461 0.862025 0.757752 -0.121777
C40   C     C_2   0.805007 0.705097 0.138255 -0.174473
C41   C     C_2   0.309922 0.669210 0.031789 -0.265620
C42   C     C_2   0.692621 0.667270 0.971190 -0.268724
C43   C     C_2   0.808552 0.163445 0.026829 -0.268192
C44   C     C_2   0.194874 0.159625 0.976897 -0.269996
C45   C     C_R   0.608793 0.386075 0.406228 0.544413
C46   C     C_R   0.386021 0.395002 0.590341 0.511054
C47   C     C_R   0.115653 0.904639 0.408046 0.485776
C48   C     C_R   0.887138 0.890867 0.590082 0.500438
C49   C     C_2   0.241918 0.649551 0.950872 0.199892
C50   C     C_R   0.397371 0.624487 0.593997 0.518846
C51   C     C_2   0.761303 0.648353 0.048825 0.193058
C52   C     C_2   0.739548 0.147047 0.947601 0.201626
C53   C     C_2   0.264522 0.144933 0.052263 0.194244
C54   C     C_R   0.683666 0.384302 0.590825 -0.241458
C55   C     C_R   0.312582 0.396362 0.406885 -0.200744
C56   C     C_R   0.189606 0.905549 0.591137 -0.187275
C57   C     C_R   0.813890 0.891651 0.406342 -0.208782
C58   C     C_R   0.560796 0.358860 0.759102 -0.168319
C59   C     C_R   0.438244 0.359654 0.237474 -0.137084
C60   C     C_R   0.060889 0.858345 0.758402 -0.170401
C61   C     C_R   0.614208 0.597777 0.408307 0.527574
C62   C     C_R   0.939651 0.859173 0.239564 -0.116801
C63   C     C_R   0.379285 0.319267 0.205143 0.111275
C64   C     C_R   0.620903 0.319129 0.792937 0.151996
C65   C     C_R   0.880079 0.819027 0.205825 0.106404
C66   C     C_R   0.120452 0.818148 0.790326 0.156451
C67   C     C_R   0.673629 0.358418 0.497213 -0.004883
C68   C     C_R   0.318391 0.377020 0.497527 0.047502
C69   C     C_R   0.187001 0.895404 0.499736 -0.058613
C70   C     C_R   0.820696 0.869053 0.496818 0.062537
C71   C     C_R   0.323233 0.627937 0.408640 -0.224169
C72   C     C_R   0.913957 0.143717 0.593272 0.503115
C73   C     C_R   0.687897 0.600830 0.592616 -0.235999
C74   C     C_R   0.841964 0.146069 0.409010 -0.197310
C75   C     C_R   0.187110 0.103329 0.592057 -0.227128
C76   C     C_R   0.424901 0.613824 0.202339 -0.105912
C77   C     C_R   0.576892 0.612374 0.800584 -0.100365
C78   C     C_R   0.924021 0.111021 0.200036 -0.091539
C79   C     C_R   0.079366 0.106539 0.805088 -0.047198
C80   C     C_R   0.666220 0.612692 0.796204 -0.128111
C81   C     C_R   0.333931 0.612327 0.203090 -0.133378
C82   C     C_R   0.167361 0.109603 0.798601 -0.128831
C83   C     C_R   0.112232 0.102596 0.407326 0.508456
C84   C     C_R   0.832803 0.107851 0.199156 -0.144473
C85   C     C_3   0.216557 0.346390 0.496285 -0.513690
C86   C     C_3   0.247258 0.373799 0.613362 -0.196574
C87   C     C_3   0.283211 0.308241 0.698118 -0.792098
C88   C     C_3   0.740016 0.233244 0.540644 -0.452875
C89   C     C_3   0.698556 0.171990 0.447965 -0.235307
C90   C     C_3   0.718556 0.090257 0.495779 -0.908087
C91   C     C_3   0.717115 0.836542 0.490414 -0.518762
C92   C     C_3   0.745145 0.868318 0.604366 -0.196227
C93   C     C_3   0.781941 0.806006 0.694063 -0.798598
C94   C     C_R   0.337536 0.660395 0.502983 0.017696
C95   C     C_3   0.241789 0.888454 0.398870 -0.514601
C96   C     C_3   0.251774 0.973542 0.384750 -0.237465
C97   C     C_3   0.232018 0.987935 0.271354 -0.929044
C98   C     C_3   0.208292 0.575971 0.950761 -0.397797
C99   C     C_3   0.170126 0.531667 0.840368 -0.240688
C100  C     C_3   0.140581 0.455116 0.842986 -0.924179
C101  C     C_3   0.794972 0.575607 0.044714 -0.400174
C102  C     C_3   0.836534 0.531314 0.154846 -0.233695
C103  C     C_3   0.866204 0.455506 0.148176 -0.935251
C104  C     C_3   0.704049 0.075228 0.947313 -0.397605
H1    H     H_    0.300121 0.350047 0.224866 0.097664
H2    H     H_    0.288516 0.221453 0.185536 0.136573
H3    H     H_    0.415019 0.931400 0.230974 0.253039
H4    H     H_    0.391728 0.071918 0.222601 0.207700
H5    H     H_    0.316996 0.016392 0.183298 0.201925
H6    H     H_    0.261469 0.033582 0.982259 0.195247
H7    H     H_    0.332834 0.096117 0.022857 0.171846
H8    H     H_    0.608667 0.351242 0.287954 0.308416
H9    H     H_    0.449612 0.436200 0.738296 0.318682
H10   H     H_    0.115645 0.948839 0.295787 0.338289
H11   H     H_    0.948160 0.932988 0.737641 0.309507
H12   H     H_    0.388119 0.653261 0.704496 0.322222
H13   H     H_    0.218651 0.725514 0.819739 0.131480
H14   H     H_    0.631312 0.571477 0.306076 0.345265
H15   H     H_    0.925969 0.207425 0.707503 0.300143
H16   H     H_    0.124314 0.091497 0.296090 0.312564
H17   H     H_    0.787697 0.723197 0.184608 0.139004
H18   H     H_    0.331786 0.718637 0.020151 0.133915
H19   H     H_    0.671046 0.715950 0.986049 0.132797
H20   H     H_    0.831473 0.211354 0.014624 0.131109
H21   H     H_    0.171758 0.205341 0.993435 0.134492
H22   H     H_    0.629151 0.226610 0.897308 0.137180
H23   H     H_    0.370496 0.228196 0.096899 0.135973
H24   H     H_    0.128829 0.725731 0.894838 0.137683
H25   H     H_    0.701559 0.351553 0.778166 0.088587
H26   H     H_    0.870159 0.727765 0.096517 0.136368
H27   H     H_    0.732654 0.382632 0.675238 0.129264
H28   H     H_    0.265203 0.394471 0.320878 0.109264
H29   H     H_    0.235792 0.915137 0.676162 0.196956
H30   H     H_    0.766516 0.889011 0.320440 0.110324
H31   H     H_    0.524104 0.340256 0.770823 0.141587
H32   H     H_    0.472672 0.342259 0.220394 0.158880
H33   H     H_    0.024799 0.839679 0.771299 0.144952
H34   H     H_    0.976350 0.841718 0.226694 0.164643
H35   H     H_    0.278684 0.639970 0.322960 0.130154
H36   H     H_    0.799458 0.850807 0.221968 0.095183
H37   H     H_    0.735849 0.597951 0.678108 0.128133
H38   H     H_    0.804391 0.164221 0.323768 0.128312
H39   H     H_    0.235407 0.100875 0.677270 0.132124
H40   H     H_    0.454708 0.615399 0.172955 0.162939
H41   H     H_    0.549669 0.611332 0.834245 0.171537
H42   H     H_    0.953750 0.112028 0.170578 0.169824
H43   H     H_    0.053993 0.100489 0.841457 0.159862
H44   H     H_    0.718496 0.614875 0.820964 0.097968
H45   H     H_    0.281001 0.613722 0.175804 0.095719
H46   H     H_    0.219354 0.111810 0.822348 0.099649
H47   H     H_    0.199266 0.849851 0.770230 0.101365
H48   H     H_    0.779571 0.107085 0.170612 0.094102
H49   H     H_    0.676143 0.692118 0.351529 0.149724
H50   H     H_    0.398881 0.777772 0.642847 0.165634
H51   H     H_    0.171037 0.205852 0.353857 0.152963
H52   H     H_    0.755670 0.272795 0.338251 0.130698
H53   H     H_    0.325001 0.174747 0.429721 0.322398
H54   H     H_    0.751566 0.434983 0.372013 0.320385
H55   H     H_    0.831457 0.666417 0.433959 0.326383
H56   H     H_    0.372663 0.833101 0.755051 0.315656
H57   H     H_    0.244955 0.261292 0.672828 0.240878
H58   H     H_    0.794903 0.632996 0.586393 0.147409
H59   H     H_    0.328216 0.284310 0.705635 0.273461
H60   H     H_    0.303462 0.330695 0.780802 0.232925
H61   H     H_    0.203588 0.397053 0.610113 0.171211
H62   H     H_    0.284944 0.421869 0.641016 0.234210
H63   H     H_    0.187297 0.395397 0.437817 0.161954
H64   H     H_    0.176709 0.301201 0.469588 0.205018
H65   H     H_    0.775439 0.079214 0.540521 0.271563
H66   H     H_    0.707312 0.082494 0.554033 0.255846
H67   H     H_    0.687403 0.047247 0.427212 0.239810
H68   H     H_    0.641159 0.181035 0.401257 0.186844
H69   H     H_    0.245700 0.730367 0.446242 0.153230
H70   H     H_    0.708878 0.176834 0.388399 0.197968
H71   H     H_    0.797304 0.221317 0.596240 0.203075
H72   H     H_    0.725092 0.227608 0.594602 0.195659
H73   H     H_    0.744694 0.758444 0.671244 0.238127
H74   H     H_    0.828126 0.782010 0.705031 0.275546
H75   H     H_    0.800573 0.831588 0.774417 0.234261
H76   H     H_    0.699986 0.891475 0.597170 0.172230
H77   H     H_    0.781612 0.917325 0.629665 0.232441
H78   H     H_    0.686632 0.883168 0.427922 0.162581
H79   H     H_    0.678799 0.789975 0.466028 0.201832
H80   H     H_    0.292225 0.139824 0.582724 0.164764
H81   H     H_    0.264357 0.950745 0.260284 0.263811
H82   H     H_    0.175322 0.975209 0.203913 0.271730
H83   H     H_    0.241750 0.049554 0.265303 0.247431
H84   H     H_    0.219509 0.011327 0.394566 0.201732
H85   H     H_    0.307825 0.989964 0.450948 0.204376
H86   H     H_    0.283240 0.856275 0.404386 0.215025
H87   H     H_    0.191625 0.863800 0.324568 0.224997
H88   H     H_    0.183881 0.417256 0.909591 0.263193
H89   H     H_    0.102497 0.465741 0.858017 0.261549
H90   H     H_    0.112872 0.424744 0.761872 0.254773
H91   H     H_    0.876645 0.299384 0.585870 0.120288
H92   H     H_    0.125875 0.567191 0.770926 0.209652
H93   H     H_    0.207484 0.519443 0.824131 0.199782
H94   H     H_    0.248545 0.536266 0.017918 0.195869
H95   H     H_    0.170232 0.591239 0.964514 0.172119
H96   H     H_    0.822761 0.417183 0.082553 0.263641
H97   H     H_    0.902076 0.467156 0.129255 0.260391
H98   H     H_    0.896409 0.425127 0.229169 0.255915
H99   H     H_    0.881034 0.567300 0.223293 0.207906
H100  H     H_    0.801412 0.518089 0.174886 0.200685
H101  H     H_    0.754441 0.535532 0.978188 0.195965
H102  H     H_    0.716766 0.224816 0.818179 0.123312
H103  H     H_    0.830830 0.591896 0.027281 0.171919
H104  H     H_    0.672066 0.918075 0.900137 0.262469
H105  H     H_    0.593999 0.970875 0.855921 0.263194
H106  H     H_    0.598916 0.929416 0.753962 0.253622
H107  H     H_    0.618061 0.070948 0.768243 0.209161
H108  H     H_    0.696435 0.018912 0.814102 0.198194
H109  H     H_    0.743654 0.033511 0.011498 0.195269
H110  H     H_    0.668530 0.092264 0.965604 0.171838
H111  H     H_    0.338384 0.919605 0.086786 0.263995
H112  H     H_    0.412692 0.975938 0.124153 0.262954
N1    N     N_R   0.389060 0.424180 0.294540 -0.050321
N2    N     N_R   0.374530 0.423490 0.443400 -0.058092
N3    N     N_R   0.125470 0.923490 0.556600 -0.079800
N4    N     N_R   0.874530 0.923490 0.443400 -0.057320
N5    N     N_R   0.555250 0.423100 0.705420 -0.052693
N6    N     N_R   0.444750 0.423100 0.294580 -0.037967
N7    N     N_R   0.055250 0.923100 0.705420 -0.053795
N8    N     N_R   0.944750 0.923100 0.294580 -0.036327
N9    N     N_R   0.375210 0.577180 0.443400 -0.069660
N10   N     N_R   0.624790 0.577180 0.556600 -0.066814
N11   N     N_R   0.875210 0.077180 0.443400 -0.072079
N12   N     N_R   0.610940 0.424180 0.705460 -0.042391
N13   N     N_R   0.124790 0.077180 0.556600 -0.067890
N14   N     N_R   0.445430 0.577570 0.294580 -0.044438
N15   N     N_R   0.554570 0.577570 0.705420 -0.048870
N16   N     N_R   0.945430 0.077570 0.294580 -0.041220
N17   N     N_R   0.054570 0.077570 0.705420 -0.050686
N18   N     N_R   0.611620 0.576500 0.705460 -0.046076
N19   N     N_R   0.388380 0.576500 0.294540 -0.047082
N20   N     N_R   0.111620 0.076500 0.705460 -0.047847
N21   N     N_R   0.888380 0.076500 0.294540 -0.045978
N22   N     N_R   0.421010 0.576890 0.556640 -0.083779
N23   N     N_R   0.889060 0.924180 0.294540 -0.049075
N24   N     N_R   0.578990 0.576890 0.443360 -0.077965
N25   N     N_R   0.921010 0.076890 0.556640 -0.082660
N26   N     N_R   0.078990 0.076890 0.443360 -0.073202
N27   N     N_R   0.110940 0.924180 0.705460 -0.043795
N28   N     N_R   0.579670 0.423790 0.443360 -0.076702
N29   N     N_R   0.420330 0.423790 0.556640 -0.103151
N30   N     N_R   0.079670 0.923790 0.443360 -0.072221
N31   N     N_R   0.920330 0.923790 0.556640 -0.102508
N32   N     N_R   0.625470 0.423490 0.556600 -0.066322
Ni1   Ni    Ni4+2 0.383200 0.500680 0.370150 0.192716
Ni2   Ni    Ni4+2 0.616800 0.500680 0.629850 0.195219
Ni3   Ni    Ni4+2 0.883200 0.000680 0.370150 0.194953
Ni4   Ni    Ni4+2 0.116800 0.000680 0.629850 0.190788
Ni5   Ni    Ni4+2 0.512440 0.500680 0.370150 0.298609
Ni6   Ni    Ni4+2 0.487560 0.500680 0.629850 0.233234
Ni7   Ni    Ni4+2 0.012440 0.000680 0.370150 0.280287
Ni8   Ni    Ni4+2 0.987560 0.000680 0.629850 0.225532
O1    O     O_3   0.331809 0.229019 0.456311 -0.769932
O2    O     O_3   0.590083 0.579613 0.302912 -0.758805
O3    O     O_3   0.942443 0.156734 0.701897 -0.803953
O4    O     O_3   0.085209 0.092156 0.298812 -0.797391
O5    O     O_3   0.730858 0.422921 0.408179 -0.745694
O6    O     O_3   0.836896 0.720928 0.458962 -0.765392
O7    O     O_3   0.330769 0.865309 0.699733 -0.799866
O8    O     O_3   0.583830 0.390781 0.298368 -0.743595
O9    O     O_3   0.407308 0.402687 0.695744 -0.785226
O10   O     O_3   0.086048 0.912572 0.298449 -0.780066
O11   O     O_3   0.907678 0.896877 0.695157 -0.789895
O12   O     O_3   0.422355 0.624856 0.702058 -0.802315

loop_
_geom_bond_atom_site_label_1
_geom_bond_atom_site_label_2
_ccdc_geom_bond_type
C3    C104  S    
C41   H18   S    
C21   H80   S    
H15   O3    S    
C13   C79   A    
N10   Ni2   S    
C16   C21   D    
N26   Ni7   S    
C82   N20   A    
C96   H84   S    
C87   H59   S    
C95   C96   S    
C86   H62   S    
N14   Ni5   S    
C9    C21   S    
C39   C66   A    
N18   Ni2   S    
C56   N3    A    
C56   H29   S    
C93   H75   S    
C38   C49   S    
C73   H37   S    
C100  H89   S    
C97   H81   S    
C40   H17   S    
C86   H61   S    
C83   N26   A    
N24   Ni5   S    
C101  C102  S    
C88   H71   S    
C98   H95   S    
N22   Ni6   S    
C18   C24   S    
C32   C36   D    
C5    C53   S    
C104  H109  S    
C12   C43   S    
C91   H79   S    
C92   H77   S    
H10   O10   S    
C17   C64   A    
C73   N10   A    
C17   N12   A    
C81   H45   S    
C43   C52   D    
C5    H6    S    
C35   C65   S    
C99   H93   S    
C78   N16   A    
C39   H47   S    
C59   H32   S    
C33   H23   S    
C4    H106  S    
C12   C84   A    
C11   C42   S    
C75   N13   A    
C32   H22   S    
C27   C85   S    
N15   Ni6   S    
C102  H100  S    
C24   C29   D    
C47   C69   A    
C15   H50   S    
C27   C68   S    
C11   C77   A    
C95   H86   S    
C49   C98   S    
C29   C67   S    
C38   H13   S    
C10   C76   A    
C44   C53   D    
H53   O1    S    
C84   N21   A    
N7    N27   A    
C29   C88   S    
C28   H36   S    
C90   H67   S    
C45   C67   A    
H56   O7    S    
C8    C22   S    
C81   N19   A    
C83   O4    S    
C62   N8    A    
C57   C70   A    
C89   H68   S    
C92   H76   S    
C39   N27   A    
C7    H112  S    
N17   Ni8   S    
C2    C61   A    
C95   H87   S    
C60   H33   S    
C37   C53   S    
N31   Ni8   S    
C87   H60   S    
C74   H38   S    
C60   C66   A    
C26   C31   D    
C18   C22   D    
C8    C72   A    
C10   C41   S    
C58   C64   A    
N9    N22   A    
C71   N9    A    
C34   C66   S    
C100  H88   S    
N16   Ni7   S    
N1    Ni1   S    
C61   O2    S    
N20   Ni4   S    
N7    Ni8   S    
C25   C30   D    
C41   C49   D    
C30   C70   S    
C58   N5    A    
H11   O11   S    
C42   H19   S    
C4    H104  S    
C55   N2    A    
N12   Ni2   S    
C3    H107  S    
C97   H82   S    
C50   O12   S    
C44   H21   S    
C77   N15   A    
N10   N24   A    
N32   Ni2   S    
C98   H94   S    
C17   H25   S    
C85   H63   S    
N2    N29   A    
C80   N18   A    
C50   N22   A    
C79   N17   A    
C91   C92   S    
C71   C94   A    
C93   H73   S    
C86   C87   S    
C50   C94   A    
C45   O8    S    
C79   H43   S    
C26   O7    S    
C5    H7    S    
C48   O11   S    
C85   C86   S    
H55   O6    S    
N23   Ni3   S    
C13   C82   A    
C33   C37   D    
C4    H105  S    
N28   N32   A    
C12   C78   A    
C15   C20   D    
C19   H58   S    
C96   H85   S    
C24   O5    S    
C102  H99   S    
C103  H97   S    
C46   C68   A    
C74   N11   A    
C54   H27   S    
C59   N6    A    
N17   N20   A    
C20   H69   S    
C35   H26   S    
C23   O1    S    
C80   H44   S    
C33   C63   S    
H54   O5    S    
C96   C97   S    
C90   H66   S    
C16   H51   S    
C8    C74   A    
N3    N30   A    
N14   N19   A    
N25   Ni8   S    
C36   H102  S    
C62   H34   S    
C45   N28   A    
C32   C64   S    
C82   H46   S    
C2    C73   A    
C75   H39   S    
C9    C83   A    
H14   O2    S    
C84   H48   S    
C47   O10   S    
C87   H57   S    
N4    N31   A    
H8    O8    S    
C55   H28   S    
C16   C23   S    
C23   C27   D    
N3    Ni4   S    
C14   H49   S    
C76   N14   A    
N16   N21   A    
N2    Ni1   S    
C7    H3    S    
C22   H91   S    
C91   H78   S    
N19   Ni1   S    
C3    C4    S    
C60   N7    A    
C76   H40   S    
C18   H52   S    
N11   Ni3   S    
N6    Ni5   S    
C55   C68   A    
N1    N6    A    
C97   H83   S    
C20   C94   S    
N5    Ni6   S    
C52   C104  S    
N9    Ni1   S    
N27   Ni4   S    
C62   C65   A    
C2    C19   S    
C34   C38   D    
C61   N24   A    
C72   N25   A    
N21   Ni3   S    
N13   N26   A    
C3    H108  S    
C46   N29   A    
C48   C70   A    
C30   C91   S    
H12   O12   S    
C36   C52   S    
N11   N25   A    
C101  H101  S    
C93   H74   S    
C15   C26   S    
C71   H35   S    
C6    C7    S    
C54   C67   A    
C57   N4    A    
C100  H90   S    
C58   H31   S    
C51   C101  S    
C40   C51   S    
N29   Ni6   S    
C42   C51   D    
C10   C81   A    
C59   C63   A    
C88   H72   S    
C99   C100  S    
N28   Ni5   S    
C28   C65   A    
C103  H98   S    
C89   H70   S    
C37   H2    S    
C28   N23   A    
H16   O4    S    
C48   N31   A    
C25   O6    S    
C1    C63   A    
C5    C6    S    
C77   H41   S    
C54   N32   A    
C46   O9    S    
C31   C95   S    
C99   H92   S    
C90   H65   S    
C14   C19   D    
C92   C93   S    
C6    H5    S    
C35   C40   D    
N15   N18   A    
C103  H96   S    
C13   C44   S    
C14   C25   S    
C102  C103  S    
C57   H30   S    
N8    N23   A    
H9    O9    S    
N13   Ni4   S    
C101  H103  S    
C11   C80   A    
C78   H42   S    
C104  H110  S    
C31   C69   S    
C88   C89   S    
C85   H64   S    
C72   O3    S    
C34   H24   S    
C98   C99   S    
N30   Ni7   S    
N4    Ni3   S    
C6    H4    S    
C56   C69   A    
C1    N1    A    
C9    C75   A    
C89   C90   S    
C43   H20   S    
C47   N30   A    
C7    H111  S    
N8    Ni7   S    
C1    H1    S    
N5    N12   A    
