data_mof_unit_13319.cif
_audit_creation_date              2012-12-11T17:15:53-0500
_audit_creation_method            fapswitch 2.2
_symmetry_space_group_name_H-M    P1
_symmetry_Int_Tables_number       1
_space_group_crystal_system       triclinic
_cell_length_a                    14.616771
_cell_length_b                    7.410341
_cell_length_c                    13.615909
_cell_angle_alpha                 89.999978
_cell_angle_beta                  100.378907
_cell_angle_gamma                 90.000109
_cell_volume                      1450.67963082

loop_
_atom_site_label
_atom_site_type_symbol
_atom_type_description
_atom_site_fract_x
_atom_site_fract_y
_atom_site_fract_z
_atom_type_partial_charge
O1    O     O_R   0.398210 0.494340 0.401550 -0.523511
O2    O     O_R   0.601790 0.994340 0.598450 -0.523511
O3    O     O_R   0.586310 0.821730 0.403360 -0.544913
O4    O     O_R   0.413690 0.321730 0.596640 -0.544913
C1    C     C_R   0.618365 0.655443 0.385621 0.660367
C2    C     C_R   0.381635 0.155443 0.614380 0.660367
O5    O     O_R   0.397970 0.823900 0.389580 -0.533832
O6    O     O_R   0.602030 0.323900 0.610420 -0.533833
O7    O     O_R   0.412100 0.996500 0.584560 -0.539817
O8    O     O_R   0.587900 0.496500 0.415440 -0.539817
C3    C     C_R   0.367014 0.655169 0.361849 0.742512
C4    C     C_R   0.632986 0.155169 0.638151 0.742510
O9    O     O_3   0.504860 0.661550 0.563990 -0.378341
O10   O     O_3   0.495140 0.161550 0.436010 -0.378341
V1    V     V_3+5 0.499100 0.935510 0.488130 1.429238
V2    V     V_3+5 0.500900 0.435510 0.511870 1.429237
C5    C     C_1   0.714075 0.144528 0.718912 -0.157548
C6    C     C_1   0.285925 0.644527 0.281088 -0.157550
C7    C     C_1   0.782819 0.133775 0.784887 -0.153774
C8    C     C_1   0.217181 0.633775 0.215113 -0.153774
C9    C     C_3   0.253864 0.293228 0.834638 -0.362239
C10   C     C_3   0.746136 0.793227 0.165362 -0.362237
H1    H     H_    0.217527 0.420835 0.845091 0.192434
H2    H     H_    0.782473 0.920835 0.154909 0.192434
H3    H     H_    0.298386 0.263150 0.908080 0.161486
H4    H     H_    0.701614 0.763149 0.091919 0.161485
C11   C     C_3   0.316954 0.317018 0.753097 -0.014222
C12   C     C_3   0.683046 0.817017 0.246901 -0.014224
H5    H     H_    0.389537 0.318274 0.795389 0.152404
H6    H     H_    0.610463 0.818271 0.204609 0.152405
H7    H     H_    0.106463 0.313259 0.693259 0.168328
H8    H     H_    0.893537 0.813261 0.306740 0.168328
H9    H     H_    0.182612 0.199717 0.553632 0.118018
H10   H     H_    0.817390 0.699721 0.446367 0.118018
C13   C     C_3   0.132647 0.172994 0.698941 -0.290022
C14   C     C_3   0.867353 0.672996 0.301058 -0.290024
C15   C     C_3   0.234425 0.953443 0.808240 -0.006842
C16   C     C_3   0.765575 0.453442 0.191760 -0.006844
C17   C     C_3   0.181873 0.136418 0.807989 0.044461
C18   C     C_3   0.818127 0.636418 0.192011 0.044463
H11   H     H_    0.261719 0.911556 0.886416 0.147287
H12   H     H_    0.738281 0.411555 0.113585 0.147287
C19   C     C_3   0.307182 0.147987 0.683259 0.038213
C20   C     C_3   0.692819 0.647988 0.316741 0.038214
C21   C     C_3   0.202738 0.134196 0.626714 -0.362130
C22   C     C_3   0.797262 0.634199 0.373286 -0.362133
C23   C     C_3   0.318587 0.975488 0.751464 -0.071864
C24   C     C_3   0.681413 0.475487 0.248537 -0.071864
H13   H     H_    0.319803 0.859696 0.702590 0.155717
H14   H     H_    0.680200 0.359695 0.297414 0.155722
H15   H     H_    0.068860 0.090499 0.677227 0.160571
H16   H     H_    0.931140 0.590501 0.322772 0.160572
H17   H     H_    0.190505 0.996596 0.601873 0.179809
H18   H     H_    0.809496 0.496600 0.398128 0.179808
O11   O     O_R   0.912140 0.786650 0.084610 -0.537440
O12   O     O_R   0.087860 0.286650 0.915390 -0.537440
O13   O     O_R   0.102040 0.454810 0.110430 -0.528900
O14   O     O_R   0.897960 0.954810 0.889570 -0.528901
C25   C     C_R   0.134819 0.623343 0.136023 0.717521
C26   C     C_R   0.865181 0.123343 0.863977 0.717520
O15   O     O_R   0.913690 0.457060 0.096650 -0.518653
O16   O     O_R   0.086310 0.957060 0.903350 -0.518653
O17   O     O_R   0.898200 0.284560 0.901540 -0.530845
O18   O     O_R   0.101800 0.784560 0.098460 -0.530845
C27   C     C_R   0.886929 0.626329 0.118958 0.667558
C28   C     C_R   0.113071 0.126329 0.881042 0.667557
O19   O     O_3   0.995160 0.617270 0.936040 -0.365544
O20   O     O_3   0.004840 0.117270 0.063960 -0.365545
V3    V     V_3+5 0.000900 0.343280 0.011870 1.496776
V4    V     V_3+5 0.999100 0.843280 0.988130 1.496775
C29   C     C_3   0.307432 0.505189 0.697858 -0.276183
C30   C     C_3   0.241524 0.512648 0.592776 -0.238220
C31   C     C_3   0.232192 0.684652 0.531787 -0.782704
H19   H     H_    0.166240 0.751490 0.538117 0.232701
H20   H     H_    0.294404 0.770013 0.548025 0.248573
H21   H     H_    0.220600 0.650519 0.451428 0.190042
H22   H     H_    0.266053 0.417465 0.541450 0.196744
H23   H     H_    0.170008 0.477960 0.599826 0.214146
H24   H     H_    0.291652 0.600833 0.752523 0.184330
H25   H     H_    0.376900 0.556207 0.689281 0.194056
C32   C     C_3   0.692567 0.005189 0.302140 -0.276185
C33   C     C_3   0.758475 0.012649 0.407222 -0.238217
C34   C     C_3   0.767805 0.184651 0.468215 -0.782698
H26   H     H_    0.833754 0.251495 0.461884 0.232698
H27   H     H_    0.705589 0.270005 0.451981 0.248576
H28   H     H_    0.779400 0.150510 0.548572 0.190040
H29   H     H_    0.733947 0.917463 0.458547 0.196743
H30   H     H_    0.829992 0.977965 0.400171 0.214145
H31   H     H_    0.708346 0.100833 0.247474 0.184330
H32   H     H_    0.623098 0.056206 0.310716 0.194058
I1    I     I_    0.129043 0.746413 0.745177 -0.526482
I2    I     I_    0.870956 0.246414 0.254823 -0.526483
I3    I     I_    0.450832 0.955243 0.852006 -0.449266
I4    I     I_    0.549168 0.455235 0.147997 -0.449265

loop_
_geom_bond_atom_site_label_1
_geom_bond_atom_site_label_2
_ccdc_geom_bond_type
C3    C6    S    
C11   H5    S    
H9    C21   S    
C31   H19   S    
O1    C3    A    
O2    C4    A    
C2    O7    A    
C29   H24   S    
C32   C33   S    
C11   C29   S    
C23   H13   S    
O5    C3    A    
C25   O18   A    
C24   I4    S    
C26   O17   A    
H8    C14   S    
C10   H2    S    
C16   H12   S    
O12   C28   A    
O13   C25   A    
O14   C26   A    
C33   H29   S    
C16   I2    S    
O16   V4    S    
C30   H23   S    
O17   V3    S    
O20   V3    S    
C4    C5    S    
C14   C22   S    
H10   C22   S    
O18   V4    S    
C15   C23   S    
C16   C24   S    
C14   H16   S    
C32   H31   S    
O5    V1    S    
C9    C11   S    
C21   H17   S    
O6    V2    S    
C10   C12   S    
C31   H20   S    
C29   H25   S    
O11   C27   A    
C20   C22   S    
C15   I1    S    
C14   C18   S    
O4    C2    A    
O16   C28   A    
O14   V4    S    
C12   C20   S    
O4    V2    S    
C13   C17   S    
C30   H22   S    
O15   C27   A    
C34   H26   S    
C9    C17   S    
O6    C4    A    
C10   C18   S    
C22   H18   S    
C23   I3    S    
O1    V2    S    
C8    C25   S    
O2    V1    S    
C19   C21   S    
C32   H32   S    
C34   H27   S    
C1    C20   S    
O12   V3    S    
C18   C27   S    
C9    H1    S    
C13   H15   S    
C17   C28   S    
H7    C13   S    
C13   C21   S    
O3    V1    S    
O15   V3    S    
C9    H3    S    
C12   C32   S    
C30   C31   S    
O3    C1    A    
C7    C26   S    
C2    C19   S    
O19   V4    S    
C12   H6    S    
O7    V1    S    
C29   C30   S    
C15   C17   S    
O8    V2    S    
C16   C18   S    
C33   H30   S    
C24   H14   S    
C5    C7    T    
C6    C8    T    
C15   H11   S    
O11   V4    S    
C11   C19   S    
C1    O8    A    
C34   H28   S    
C31   H21   S    
C33   C34   S    
C10   H4    S    
O9    V2    S    
O10   V1    S    
O13   V3    S    
C19   C23   S    
C20   C24   S    
