data_mof_unit_35269.cif
_audit_creation_date              2012-12-10T17:49:39-0500
_audit_creation_method            fapswitch 2.2
_symmetry_space_group_name_H-M    P1
_symmetry_Int_Tables_number       1
_space_group_crystal_system       triclinic
_cell_length_a                    10.498147
_cell_length_b                    10.703481
_cell_length_c                    9.895627
_cell_angle_alpha                 89.471827
_cell_angle_beta                  91.456585
_cell_angle_gamma                 92.501213
_cell_volume                      1110.48421163

loop_
_atom_site_label
_atom_site_type_symbol
_atom_type_description
_atom_site_fract_x
_atom_site_fract_y
_atom_site_fract_z
_atom_type_partial_charge
C1    C     C_R   0.510237 0.260466 0.501955 0.858026
C2    C     C_3   0.958143 0.589503 0.413758 -0.203545
C3    C     C_3   0.030091 0.473643 0.373849 0.128558
C4    C     C_3   0.121744 0.497822 0.494838 -0.032109
C5    C     C_R   0.534533 0.110234 0.760885 -0.199206
C6    C     C_R   0.492208 0.048682 0.877128 -0.178958
C7    C     C_R   0.421064 0.935714 0.866803 0.152351
C8    C     C_R   0.406783 0.878675 0.740043 -0.198180
C9    C     C_R   0.461331 0.935480 0.623672 0.064277
C10   C     C_R   0.506502 0.059651 0.631117 0.094558
C11   C     C_R   0.520736 0.127046 0.507646 -0.117503
C12   C     C_R   0.257138 0.497716 0.498218 0.850337
C13   C     C_R   0.523116 0.064754 0.384526 -0.229326
C14   C     C_R   0.506687 0.937422 0.382031 -0.228521
C15   C     C_R   0.477091 0.872065 0.500683 -0.116805
C16   C     C_R   0.338560 0.328692 0.137368 -0.189661
C17   C     C_R   0.261950 0.241550 0.065695 -0.214683
C18   C     C_R   0.259423 0.243747 0.925853 -0.188152
C19   C     C_R   0.336186 0.330656 0.856911 -0.152118
C20   C     C_R   0.419488 0.416331 0.926253 0.161202
C21   C     C_R   0.420002 0.415945 0.070922 0.167716
C22   C     C_R   0.577616 0.579624 0.072898 -0.146638
C23   C     C_R   0.488659 0.739107 0.499643 0.881499
C24   C     C_R   0.577681 0.579497 0.929646 -0.139064
C25   C     C_R   0.742383 0.504347 0.501781 0.872126
C26   C     C_3   0.040090 0.413217 0.587885 -0.208358
C27   C     C_3   0.947920 0.388921 0.466280 0.102789
C28   C     C_3   0.876971 0.504000 0.505259 -0.035828
C29   C     C_3   0.966654 0.528983 0.627207 -0.155090
C30   C     C_3   0.051059 0.613503 0.535277 -0.190397
H1    H     H_    0.352598 0.790522 0.733422 0.160760
H2    H     H_    0.518889 0.890219 0.287242 0.165094
H3    H     H_    0.640781 0.644812 0.127836 0.143137
H4    H     H_    0.328988 0.327023 0.244254 0.205008
H5    H     H_    0.201467 0.174161 0.119082 0.145761
H6    H     H_    0.197426 0.177963 0.870168 0.137625
H7    H     H_    0.328327 0.326803 0.749637 0.203885
H8    H     H_    0.640852 0.644625 0.876756 0.151245
H9    H     H_    0.077864 0.342221 0.659056 0.132147
H10   H     H_    0.935712 0.553964 0.729407 0.148173
H11   H     H_    0.097815 0.705061 0.563158 0.129772
H12   H     H_    0.920352 0.662634 0.345252 0.133723
H13   H     H_    0.538399 0.114164 0.289806 0.170497
H14   H     H_    0.592118 0.195427 0.775128 0.175720
H15   H     H_    0.512293 0.091208 0.974734 0.142093
N1    N     N_R   0.498800 0.498800 0.142780 -0.119236
N2    N     N_R   0.498760 0.498720 0.857170 -0.123425
O1    O     O_R   0.500000 0.316780 0.614690 -0.649877
O2    O     O_R   0.499990 0.316750 0.385360 -0.638010
O3    O     O_R   0.313960 0.499980 0.614650 -0.637518
O4    O     O_R   0.313940 0.499960 0.385310 -0.648745
O5    O     O_R   0.500010 0.683250 0.614640 -0.623172
O6    O     O_R   0.500000 0.683220 0.385310 -0.618798
O7    O     O_R   0.686060 0.500040 0.614690 -0.623536
O8    O     O_R   0.686040 0.500020 0.385350 -0.627325
Zn1   Zn    Zn3+2 0.500010 0.500020 0.653130 0.915108
Zn2   Zn    Zn3+2 0.499990 0.499980 0.346870 0.910969
C31   C     C_3   0.880155 0.261664 0.436458 -0.416065
C32   C     C_3   0.973340 0.155424 0.432792 -0.349766
C33   C     C_3   0.903164 0.030899 0.400466 -0.876709
H16   H     H_    0.831274 0.007499 0.478307 0.269182
H17   H     H_    0.854455 0.035654 0.299664 0.259847
H18   H     H_    0.972446 0.955415 0.399173 0.242523
H19   H     H_    0.046025 0.174955 0.355145 0.210727
H20   H     H_    0.023317 0.146935 0.532578 0.214033
H21   H     H_    0.810566 0.240883 0.517330 0.191892
H22   H     H_    0.826042 0.267033 0.339006 0.205778
C34   C     C_3   0.368172 0.872564 0.991609 -0.430217
C35   C     C_3   0.221973 0.863432 0.987028 -0.341643
C36   C     C_3   0.170448 0.809669 0.119307 -0.876151
H23   H     H_    0.210090 0.716874 0.140685 0.268241
H24   H     H_    0.196736 0.873544 0.204403 0.260877
H25   H     H_    0.064861 0.798454 0.111596 0.239142
H26   H     H_    0.184066 0.957758 0.970054 0.220118
H27   H     H_    0.187438 0.801989 0.902631 0.214596
H28   H     H_    0.405724 0.777420 0.001030 0.209125
H29   H     H_    0.400500 0.925655 0.083062 0.198616
C37   C     C_3   0.061526 0.444235 0.227860 -0.411764
C38   C     C_3   0.947235 0.461799 0.130744 -0.336979
C39   C     C_3   0.971837 0.410148 0.991147 -0.880655
H30   H     H_    0.056488 0.459344 0.946746 0.272658
H31   H     H_    0.987875 0.308389 0.997959 0.263701
H32   H     H_    0.887281 0.423826 0.923870 0.245632
H33   H     H_    0.860178 0.413371 0.170337 0.233055
H34   H     H_    0.928866 0.562964 0.120537 0.212262
H35   H     H_    0.142342 0.506444 0.195131 0.219052
H36   H     H_    0.090115 0.346343 0.224865 0.198523

loop_
_geom_bond_atom_site_label_1
_geom_bond_atom_site_label_2
_ccdc_geom_bond_type
C37   H36   S    
C16   C21   A    
C6    H15   S    
C19   C20   A    
C1    C11   S    
C38   H34   S    
C7    C8    A    
C25   C28   S    
C26   C27   S    
C33   H18   S    
C28   C29   S    
C5    C6    A    
C26   H9    S    
C16   C17   A    
O2    Zn2   S    
C33   H17   S    
C18   C19   A    
C19   H7    S    
C16   H4    S    
C7    C34   S    
C31   H21   S    
C8    C9    A    
C24   H8    S    
C30   H11   S    
C36   H23   S    
O4    Zn2   S    
C4    C12   S    
C9    C10   A    
C37   H35   S    
C15   C23   S    
C32   C33   S    
C13   C14   A    
C8    H1    S    
C39   H32   S    
C23   O6    A    
O7    Zn1   S    
C36   H24   S    
C25   O7    A    
C39   H31   S    
O6    Zn2   S    
C37   C38   S    
C34   C35   S    
C31   C32   S    
O3    Zn1   S    
C33   H16   S    
C29   C30   S    
C12   O3    A    
C36   H25   S    
C17   C18   A    
C32   H19   S    
C35   H26   S    
C22   N1    A    
C5    H14   S    
O8    Zn2   S    
N1    Zn2   S    
C22   C24   A    
C3    C4    S    
C13   H13   S    
C12   O4    A    
C21   N1    A    
C34   H29   S    
O1    Zn1   S    
C22   H3    S    
C24   N2    A    
C25   O8    A    
C14   H2    S    
C39   H30   S    
C27   C31   S    
C4    C26   S    
C1    O1    A    
C6    C7    A    
C34   H28   S    
C2    C30   S    
C3    C27   S    
C2    C3    S    
C9    C15   A    
C5    C10   A    
C32   H20   S    
C11   C13   A    
C23   O5    A    
C38   H33   S    
C1    O2    A    
C2    H12   S    
C29   H10   S    
C35   H27   S    
C35   C36   S    
C20   N2    A    
C10   C11   A    
C38   C39   S    
C31   H22   S    
C20   C21   A    
C26   C29   S    
C27   C28   S    
C14   C15   A    
C2    C28   S    
C17   H5    S    
C3    C37   S    
C18   H6    S    
C4    C30   S    
O5    Zn1   S    
N2    Zn1   S    
