data_mof_unit_35191.cif
_audit_creation_date              2012-12-11T16:21:28-0500
_audit_creation_method            fapswitch 2.2
_symmetry_space_group_name_H-M    P1
_symmetry_Int_Tables_number       1
_space_group_crystal_system       triclinic
_cell_length_a                    7.195774
_cell_length_b                    36.339135
_cell_length_c                    41.955126
_cell_angle_alpha                 89.983335
_cell_angle_beta                  89.71946
_cell_angle_gamma                 90.097967
_cell_volume                      10970.6224612

loop_
_atom_site_label
_atom_site_type_symbol
_atom_type_description
_atom_site_fract_x
_atom_site_fract_y
_atom_site_fract_z
_atom_type_partial_charge
O1    O     O_R   0.564240 0.782760 0.216890 -0.531503
O2    O     O_R   0.435760 0.217240 0.783110 -0.538817
O3    O     O_R   0.435760 0.217240 0.716890 -0.539548
O4    O     O_R   0.564240 0.782760 0.283110 -0.530035
O5    O     O_R   0.064240 0.717240 0.283110 -0.520730
O6    O     O_R   0.935760 0.282760 0.716890 -0.540289
O7    O     O_R   0.935760 0.282760 0.783110 -0.538201
O8    O     O_R   0.064240 0.717240 0.216890 -0.542268
O9    O     O_R   0.234510 0.787070 0.282870 -0.536643
O10   O     O_R   0.765490 0.212930 0.717130 -0.536613
O11   O     O_R   0.765490 0.212930 0.782870 -0.527320
O12   O     O_R   0.234510 0.787070 0.217130 -0.542698
O13   O     O_R   0.734510 0.712930 0.217130 -0.540724
O14   O     O_R   0.265490 0.287070 0.782870 -0.529091
O15   O     O_R   0.265490 0.287070 0.717130 -0.528518
O16   O     O_R   0.734510 0.712930 0.282870 -0.544754
C1    C     C_R   0.402061 0.795521 0.293915 0.726991
C2    C     C_R   0.597227 0.204649 0.706276 0.716535
C3    C     C_R   0.596358 0.204330 0.793829 0.712816
C4    C     C_R   0.403570 0.795330 0.206219 0.712412
C5    C     C_R   0.902803 0.704509 0.206094 0.724657
C6    C     C_R   0.097242 0.294873 0.794075 0.725584
C7    C     C_R   0.097480 0.295698 0.706188 0.702431
C8    C     C_R   0.902702 0.704301 0.293667 0.731475
O17   O     O_3   0.397750 0.727090 0.250000 -0.377286
O18   O     O_3   0.602250 0.272910 0.750000 -0.375328
O19   O     O_3   0.897750 0.772910 0.250000 -0.373218
O20   O     O_3   0.102250 0.227090 0.750000 -0.379063
V1    V     V_3+5 0.122890 0.754250 0.250000 1.387209
V2    V     V_3+5 0.877110 0.245750 0.750000 1.392289
V3    V     V_3+5 0.622890 0.745750 0.250000 1.383085
V4    V     V_3+5 0.377110 0.254250 0.750000 1.402588
C9    C     C_R   0.930908 0.613772 0.430181 0.581759
C10   C     C_R   0.085225 0.383756 0.567340 0.576005
C11   C     C_R   0.211728 0.398081 0.922353 0.599753
C12   C     C_R   0.848793 0.601441 0.078746 0.611407
C13   C     C_R   0.372758 0.893889 0.075053 0.583097
C14   C     C_R   0.637601 0.114789 0.932590 0.565937
C15   C     C_R   0.707718 0.098411 0.580235 0.598998
C16   C     C_R   0.344876 0.897988 0.421346 0.611153
O21   O     O_2   0.867959 0.648114 0.435767 -0.508237
O22   O     O_2   0.064337 0.347536 0.561322 -0.509131
O23   O     O_2   0.376631 0.382701 0.914943 -0.467087
O24   O     O_2   0.725576 0.629359 0.078340 -0.505763
O25   O     O_2   0.256544 0.864852 0.072865 -0.505461
O26   O     O_2   0.653761 0.150807 0.939780 -0.512284
O27   O     O_2   0.872154 0.114009 0.587553 -0.469224
O28   O     O_2   0.222287 0.869872 0.421558 -0.507486
N1    N     N_R   0.976968 0.604022 0.399669 -0.537295
N2    N     N_R   0.092748 0.395490 0.598333 -0.541639
N3    N     N_R   0.063190 0.392852 0.902468 -0.556518
N4    N     N_R   0.967674 0.598619 0.103929 -0.533215
N5    N     N_R   0.476062 0.898127 0.102094 -0.537722
N6    N     N_R   0.598689 0.104416 0.901837 -0.544940
N7    N     N_R   0.558513 0.103492 0.600209 -0.556333
N8    N     N_R   0.464303 0.901383 0.396066 -0.533439
C17   C     C_R   0.046366 0.569848 0.392919 0.632536
C18   C     C_R   0.104897 0.432249 0.605272 0.640458
C19   C     C_R   0.898497 0.410627 0.908432 0.685814
C20   C     C_R   0.099281 0.571599 0.105195 0.606134
C21   C     C_R   0.599031 0.926666 0.105146 0.643829
C22   C     C_R   0.566251 0.068001 0.894985 0.647821
C23   C     C_R   0.394383 0.085422 0.594553 0.684922
C24   C     C_R   0.595341 0.928624 0.394995 0.603050
C25   C     C_R   0.824917 0.621718 0.349067 0.312201
C26   C     C_R   0.950872 0.372661 0.648714 0.324069
C27   C     C_R   0.013329 0.380309 0.844561 0.339200
C28   C     C_R   0.821924 0.618880 0.154429 0.294642
C29   C     C_R   0.379372 0.883759 0.157547 0.298043
C30   C     C_R   0.437357 0.130998 0.854412 0.330714
C31   C     C_R   0.511837 0.117331 0.658150 0.334778
C32   C     C_R   0.314821 0.880254 0.346459 0.294381
C33   C     C_R   0.815039 0.644958 0.322114 0.160834
C34   C     C_R   0.967117 0.351460 0.676862 0.169993
C35   C     C_R   0.998951 0.354517 0.819520 0.137968
C36   C     C_R   0.794037 0.646104 0.178095 0.143236
C37   C     C_R   0.364503 0.858650 0.183112 0.156918
C38   C     C_R   0.453804 0.150829 0.825415 0.162262
C39   C     C_R   0.501472 0.143674 0.682935 0.137649
C40   C     C_R   0.287825 0.852952 0.322939 0.140328
C41   C     C_R   0.028241 0.688445 0.347994 0.227245
C42   C     C_R   0.209052 0.314346 0.650930 0.227589
C43   C     C_R   0.175134 0.309947 0.850901 0.218377
C44   C     C_R   0.038471 0.683461 0.153289 0.205317
C45   C     C_R   0.490484 0.809625 0.149107 0.216739
C46   C     C_R   0.710884 0.185862 0.848518 0.231994
C47   C     C_R   0.665968 0.187946 0.649313 0.204557
C48   C     C_R   0.539013 0.816343 0.346480 0.221712
C49   C     C_R   0.049866 0.662831 0.373020 -0.204713
C50   C     C_R   0.212467 0.340306 0.625874 -0.208685
C51   C     C_R   0.158460 0.333669 0.877444 -0.190879
C52   C     C_R   0.055727 0.657078 0.129149 -0.195526
C53   C     C_R   0.509591 0.835643 0.124288 -0.177026
C54   C     C_R   0.720544 0.159268 0.872961 -0.205869
C55   C     C_R   0.647478 0.163679 0.623514 -0.176099
C56   C     C_R   0.559778 0.843907 0.369975 -0.215010
C57   C     C_R   0.948836 0.629951 0.373878 0.235306
C58   C     C_R   0.084105 0.369033 0.624292 0.232747
C59   C     C_R   0.079868 0.368934 0.874653 0.223848
C60   C     C_R   0.951535 0.624662 0.129807 0.254778
C61   C     C_R   0.453280 0.872235 0.128120 0.239277
C62   C     C_R   0.585132 0.131801 0.876445 0.221161
C63   C     C_R   0.574027 0.128136 0.627485 0.222658
C64   C     C_R   0.450021 0.875515 0.370016 0.261598
C65   C     C_R   0.015915 0.552428 0.448832 -0.154879
C66   C     C_R   0.083257 0.447386 0.548895 -0.157306
C67   C     C_R   0.034742 0.442478 0.953595 -0.174509
C68   C     C_R   0.988088 0.546916 0.054601 -0.161665
C69   C     C_R   0.513954 0.949240 0.052492 -0.161393
C70   C     C_R   0.589474 0.052027 0.951028 -0.163720
C71   C     C_R   0.531229 0.054207 0.548889 -0.174075
C72   C     C_R   0.483569 0.952105 0.446162 -0.161711
C73   C     C_R   0.948899 0.588271 0.455559 -0.063081
C74   C     C_R   0.093768 0.409355 0.541845 -0.060701
C75   C     C_R   0.194886 0.420319 0.949980 -0.081196
C76   C     C_R   0.854048 0.575457 0.053582 -0.078494
C77   C     C_R   0.388342 0.919370 0.049592 -0.063350
C78   C     C_R   0.653420 0.088095 0.957078 -0.059014
C79   C     C_R   0.691837 0.076287 0.552575 -0.080166
C80   C     C_R   0.349133 0.923540 0.446843 -0.078182
C81   C     C_R   0.899869 0.597263 0.487336 0.303375
C82   C     C_R   0.106042 0.398154 0.509605 0.307243
C83   C     C_R   0.336038 0.422247 0.973298 0.308857
C84   C     C_R   0.731044 0.577218 0.027368 0.297131
C85   C     C_R   0.281553 0.916145 0.021444 0.306456
C86   C     C_R   0.723666 0.096638 0.987649 0.312224
C87   C     C_R   0.833958 0.074552 0.529188 0.308319
C88   C     C_R   0.224978 0.921280 0.473092 0.297614
C89   C     C_R   0.061381 0.542751 0.417047 -0.072557
C90   C     C_R   0.084127 0.459024 0.581067 -0.066782
C91   C     C_R   0.887497 0.438710 0.931692 -0.078193
C92   C     C_R   0.112711 0.544909 0.080655 -0.075142
C93   C     C_R   0.616834 0.953657 0.080917 -0.081541
C94   C     C_R   0.538518 0.042101 0.919737 -0.073335
C95   C     C_R   0.383641 0.057612 0.571025 -0.078976
C96   C     C_R   0.608820 0.954710 0.420007 -0.074823
C97   C     C_R   0.912819 0.679043 0.321697 -0.214798
C98   C     C_R   0.091166 0.320864 0.677826 -0.213986
C99   C     C_R   0.089730 0.320123 0.821881 -0.210836
C100  C     C_R   0.911996 0.677697 0.179037 -0.210432
C101  C     C_R   0.416221 0.821327 0.178933 -0.200133
C102  C     C_R   0.587270 0.179805 0.822614 -0.221716
C103  C     C_R   0.588749 0.178397 0.679239 -0.209052
C104  C     C_R   0.409362 0.821963 0.321335 -0.229562
H1    H     H_    0.143881 0.668156 0.392496 0.161286
H2    H     H_    0.312590 0.337890 0.606706 0.162138
H3    H     H_    0.206072 0.324925 0.900612 0.165604
H4    H     H_    0.150868 0.661935 0.109488 0.164106
H5    H     H_    0.570279 0.827971 0.101646 0.157932
H6    H     H_    0.829624 0.160857 0.890366 0.174510
H7    H     H_    0.691218 0.172681 0.600036 0.166244
H8    H     H_    0.658674 0.840940 0.389106 0.155614
C105  C     C_R   0.040441 0.511336 0.531035 0.027643
C106  C     C_R   0.086785 0.489377 0.466817 0.026923
C107  C     C_R   0.141016 0.493669 0.029271 0.020019
C108  C     C_R   0.869459 0.492968 0.980714 0.020395
C109  C     C_R   0.485339 0.991882 0.971098 0.025817
C110  C     C_R   0.645645 0.006877 0.031030 0.021906
C111  C     C_R   0.637103 0.004677 0.472269 0.020053
C112  C     C_R   0.365029 0.004315 0.521190 0.019985
C113  C     C_R   0.087433 0.462440 0.491610 0.027036
C114  C     C_R   0.005316 0.536790 0.505944 0.025830
C115  C     C_R   0.866622 0.521090 0.004457 0.024383
C116  C     C_R   0.161958 0.469675 0.002600 0.024804
C117  C     C_R   0.648764 0.034311 0.006676 0.026565
C118  C     C_R   0.447540 0.968314 0.997444 0.024393
C119  C     C_R   0.361619 0.976780 0.496912 0.024260
C120  C     C_R   0.658572 0.027941 0.499354 0.024967
C121  C     C_R   0.070924 0.473769 0.523797 0.062447
C122  C     C_R   0.036260 0.526163 0.473900 0.061347
C123  C     C_R   0.998461 0.520503 0.029417 0.051144
C124  C     C_R   0.021926 0.468394 0.979040 0.059061
C125  C     C_R   0.575246 0.025982 0.976288 0.062069
C126  C     C_R   0.535857 0.974844 0.026964 0.054120
C127  C     C_R   0.493932 0.977910 0.471805 0.051049
C128  C     C_R   0.518165 0.028788 0.523088 0.058888
C129  C     C_R   0.045552 0.522331 0.563225 -0.251752
C130  C     C_R   0.134723 0.480687 0.435099 -0.247522
C131  C     C_R   0.256510 0.491174 0.056149 -0.248337
C132  C     C_R   0.724749 0.488738 0.958433 -0.274081
C133  C     C_R   0.435728 0.982418 0.939705 -0.253123
C134  C     C_R   0.748375 0.010448 0.059337 -0.247214
C135  C     C_R   0.752876 0.007860 0.445299 -0.249145
C136  C     C_R   0.220353 0.008068 0.543782 -0.273758
C137  C     C_R   0.065712 0.496961 0.588007 0.302661
C138  C     C_R   0.121663 0.506449 0.410464 0.294955
C139  C     C_R   0.244874 0.516096 0.081413 0.293136
C140  C     C_R   0.733071 0.462641 0.933989 0.326277
C141  C     C_R   0.462465 0.006728 0.914200 0.302898
C142  C     C_R   0.735617 0.984600 0.083975 0.298506
C143  C     C_R   0.741735 0.983492 0.419655 0.293330
C144  C     C_R   0.228861 0.033709 0.568596 0.326402
O29   O     O_2   0.138010 0.442690 0.635575 -0.506722
O30   O     O_2   0.102152 0.562447 0.362862 -0.510084
O31   O     O_2   0.216816 0.570862 0.130114 -0.522276
O32   O     O_2   0.745280 0.400797 0.892111 -0.461299
O33   O     O_2   0.560928 0.056957 0.864314 -0.502649
O34   O     O_2   0.704862 0.928480 0.131516 -0.517243
O35   O     O_2   0.712004 0.930210 0.369787 -0.520876
O36   O     O_2   0.241332 0.094812 0.611325 -0.462879
C145  C     C_R   0.932983 0.572148 0.511888 -0.256928
C146  C     C_R   0.101865 0.424426 0.485231 -0.253090
C147  C     C_R   0.319403 0.446974 0.998681 -0.263128
C148  C     C_R   0.738649 0.550374 0.003559 -0.247963
C149  C     C_R   0.317389 0.939428 0.995565 -0.253710
C150  C     C_R   0.721163 0.069941 0.011767 -0.254985
C151  C     C_R   0.817137 0.050298 0.503515 -0.262889
C152  C     C_R   0.232504 0.947584 0.497357 -0.248303
H9    H     H_    0.036537 0.550925 0.569958 0.119072
H10   H     H_    0.186375 0.453891 0.428575 0.120175
H11   H     H_    0.355403 0.469147 0.058814 0.125698
H12   H     H_    0.600203 0.505126 0.959609 0.126989
H13   H     H_    0.378390 0.955696 0.934193 0.122208
H14   H     H_    0.844169 0.032936 0.062815 0.123830
H15   H     H_    0.852054 0.029976 0.442917 0.125738
H16   H     H_    0.095572 0.991697 0.542552 0.126740
H17   H     H_    0.889006 0.580334 0.535458 0.122619
H18   H     H_    0.105832 0.413934 0.461217 0.118024
H19   H     H_    0.435407 0.448284 0.014802 0.125551
H20   H     H_    0.645208 0.554067 0.983818 0.124914
H21   H     H_    0.231283 0.935971 0.974763 0.123702
H22   H     H_    0.772433 0.078333 0.034757 0.118794
H23   H     H_    0.933780 0.049094 0.487327 0.125690
H24   H     H_    0.137994 0.943528 0.517060 0.124847
N9    N     N_2   0.120847 0.723543 0.348719 -0.499420
H25   H     H_    0.050046 0.744847 0.338044 0.263297
C153  C     C_3   0.220866 0.734922 0.376937 -0.550640
H26   H     H_    0.274418 0.763320 0.373584 0.208625
H27   H     H_    0.341753 0.716578 0.380984 0.209872
H28   H     H_    0.126901 0.734921 0.398026 0.209976
N10   N     N_2   0.322768 0.281910 0.649063 -0.507938
H29   H     H_    0.285044 0.260545 0.663865 0.256898
C154  C     C_3   0.381372 0.269163 0.617805 -0.549170
H30   H     H_    0.425457 0.239995 0.619106 0.212635
H31   H     H_    0.500950 0.285819 0.609179 0.219490
H32   H     H_    0.265073 0.270605 0.600522 0.208122
N11   N     N_2   0.269749 0.275295 0.853077 -0.503847
H33   H     H_    0.209854 0.253540 0.841123 0.270010
C155  C     C_3   0.367848 0.265226 0.881809 -0.536035
H34   H     H_    0.441322 0.238782 0.877892 0.204039
H35   H     H_    0.268557 0.261441 0.901885 0.185528
H36   H     H_    0.472828 0.286550 0.887789 0.226754
N12   N     N_2   0.142114 0.716609 0.149797 -0.523413
H37   H     H_    0.228368 0.722900 0.168463 0.261264
C156  C     C_3   0.036231 0.747676 0.138384 -0.472111
H38   H     H_    0.129770 0.771629 0.134780 0.198412
H39   H     H_    0.927737 0.755510 0.156004 0.204304
H40   H     H_    0.970446 0.740872 0.115224 0.209560
N13   N     N_2   0.551770 0.772339 0.144681 -0.520831
H41   H     H_    0.518316 0.753704 0.162270 0.250327
C157  C     C_3   0.549235 0.756512 0.112984 -0.509337
H42   H     H_    0.579155 0.726562 0.114420 0.209932
H43   H     H_    0.658990 0.769121 0.097856 0.196632
H44   H     H_    0.410748 0.760246 0.101893 0.218492
N14   N     N_2   0.821708 0.218755 0.850220 -0.498343
H45   H     H_    0.776577 0.240237 0.836246 0.265685
C158  C     C_3   0.878879 0.231426 0.881478 -0.556818
H46   H     H_    0.925523 0.260479 0.880101 0.203055
H47   H     H_    0.996859 0.214656 0.890209 0.208111
H48   H     H_    0.761132 0.230186 0.898678 0.212938
N15   N     N_2   0.748460 0.223101 0.643883 -0.520487
H49   H     H_    0.712146 0.243715 0.659577 0.269969
C159  C     C_3   0.944785 0.222507 0.636616 -0.495606
H50   H     H_    0.989921 0.250708 0.630189 0.202895
H51   H     H_    0.974563 0.204231 0.616014 0.220035
H52   H     H_    0.024270 0.213028 0.657716 0.185386
N16   N     N_2   0.639668 0.782270 0.348646 -0.513749
H53   H     H_    0.574894 0.759932 0.338388 0.270323
C160  C     C_3   0.730064 0.772677 0.378287 -0.569657
H54   H     H_    0.782548 0.744030 0.376942 0.211478
H55   H     H_    0.629706 0.774134 0.398462 0.210141
H56   H     H_    0.850625 0.791130 0.382505 0.219234
N17   N     N_2   0.812024 0.631197 0.495095 -0.466464
H57   H     H_    0.855238 0.642302 0.516450 0.244089
C161  C     C_3   0.611440 0.630023 0.492795 -0.464087
H58   H     H_    0.554081 0.657929 0.497134 0.197917
H59   H     H_    0.552912 0.610809 0.510878 0.165060
H60   H     H_    0.568225 0.620973 0.468631 0.207459
N18   N     N_2   0.128997 0.360479 0.501148 -0.468551
H61   H     H_    0.061860 0.353108 0.480426 0.242941
C162  C     C_3   0.320284 0.348255 0.501366 -0.474341
H62   H     H_    0.325550 0.318248 0.496480 0.194717
H63   H     H_    0.384261 0.353342 0.525020 0.209200
H64   H     H_    0.401668 0.362928 0.482683 0.166207
N19   N     N_2   0.493837 0.398620 0.972227 -0.453521
H65   H     H_    0.613098 0.410177 0.981443 0.246464
C163  C     C_3   0.460145 0.362270 0.985107 -0.481100
H66   H     H_    0.585680 0.344992 0.981569 0.195547
H67   H     H_    0.341833 0.348808 0.972786 0.202375
H68   H     H_    0.429251 0.364040 0.011047 0.164661
N20   N     N_2   0.601903 0.606576 0.023807 -0.467300
H69   H     H_    0.601456 0.617556 0.001124 0.246957
C164  C     C_3   0.415932 0.598071 0.034815 -0.466510
H70   H     H_    0.325087 0.622435 0.031550 0.193834
H71   H     H_    0.417345 0.591198 0.060536 0.216784
H72   H     H_    0.357138 0.574642 0.021105 0.172776
N21   N     N_2   0.132476 0.890479 0.019069 -0.466638
H73   H     H_    0.116839 0.879434 0.996585 0.246153
C165  C     C_3   0.958272 0.904035 0.031859 -0.461519
H74   H     H_    0.851868 0.881902 0.030937 0.195049
H75   H     H_    0.908640 0.927854 0.017622 0.172065
H76   H     H_    0.974784 0.912618 0.057113 0.209258
N22   N     N_2   0.806114 0.131479 0.994175 -0.469068
H77   H     H_    0.789019 0.140193 0.017409 0.244452
C166  C     C_3   0.997200 0.134639 0.983562 -0.480496
H78   H     H_    0.047905 0.163062 0.987909 0.199395
H79   H     H_    0.008753 0.128905 0.957626 0.201088
H80   H     H_    0.086460 0.115045 0.996869 0.172881
N23   N     N_2   0.992814 0.097975 0.530440 -0.454045
H81   H     H_    0.112204 0.086281 0.521280 0.246742
C167  C     C_3   0.961996 0.134383 0.517573 -0.479988
H82   H     H_    0.087975 0.151515 0.521273 0.195594
H83   H     H_    0.843125 0.147949 0.529784 0.203796
H84   H     H_    0.933469 0.132696 0.491599 0.163985
N24   N     N_2   0.094458 0.891969 0.476195 -0.467240
H85   H     H_    0.091718 0.880604 0.498734 0.246964
C168  C     C_3   0.909719 0.900795 0.465149 -0.469204
H86   H     H_    0.817667 0.876464 0.468082 0.193085
H87   H     H_    0.913431 0.908040 0.439505 0.216120
H88   H     H_    0.850738 0.924069 0.479078 0.173959
N25   N     N_2   0.869557 0.363652 0.704508 -0.529648
H89   H     H_    0.825164 0.343821 0.720242 0.277935
C169  C     C_3   0.954188 0.395276 0.719773 -0.565503
H90   H     H_    0.088440 0.387327 0.730774 0.194991
H91   H     H_    0.859112 0.406228 0.738363 0.219093
H92   H     H_    0.981111 0.417754 0.702406 0.232137
N26   N     N_2   0.717647 0.631996 0.294881 -0.520560
H93   H     H_    0.634551 0.650725 0.283398 0.276922
C170  C     C_3   0.829795 0.609828 0.273573 -0.576115
H94   H     H_    0.930667 0.627500 0.260476 0.182376
H95   H     H_    0.738259 0.595610 0.256293 0.209320
H96   H     H_    0.907074 0.588403 0.286968 0.226031
N27   N     N_2   0.649753 0.640527 0.200993 -0.523751
H97   H     H_    0.681818 0.648286 0.223858 0.263859
C171  C     C_3   0.468080 0.653165 0.191087 -0.447460
H98   H     H_    0.362684 0.645269 0.209269 0.184326
H99   H     H_    0.427747 0.640747 0.167971 0.201453
H100  H     H_    0.467386 0.683514 0.188449 0.190981
N28   N     N_2   0.895935 0.363796 0.791829 -0.539665
H101  H     H_    0.945639 0.352060 0.771239 0.256691
C172  C     C_3   0.696946 0.359070 0.795392 -0.494141
H102  H     H_    0.626182 0.368412 0.773379 0.184575
H103  H     H_    0.643302 0.375572 0.815723 0.215287
H104  H     H_    0.662334 0.329630 0.799485 0.218307
N29   N     N_2   0.344910 0.138977 0.798995 -0.533892
H105  H     H_    0.312546 0.158141 0.781957 0.280379
C173  C     C_3   0.403488 0.104040 0.785639 -0.549541
H106  H     H_    0.543518 0.106805 0.774606 0.197493
H107  H     H_    0.302929 0.094910 0.767325 0.210640
H108  H     H_    0.408782 0.082313 0.804215 0.244522
N30   N     N_2   0.302365 0.871791 0.213237 -0.521915
H109  H     H_    0.200530 0.855883 0.223685 0.262084
C174  C     C_3   0.450896 0.881731 0.234750 -0.568887
H110  H     H_    0.525046 0.856757 0.243081 0.187043
H111  H     H_    0.392260 0.896209 0.255719 0.199682
H112  H     H_    0.551386 0.900557 0.222839 0.215590
N31   N     N_2   0.139869 0.857838 0.300894 -0.526929
H113  H     H_    0.170850 0.851475 0.277633 0.262961
C175  C     C_3   0.961711 0.843553 0.311447 -0.417758
H114  H     H_    0.966050 0.813138 0.313642 0.211877
H115  H     H_    0.852944 0.851068 0.293936 0.181710
H116  H     H_    0.922120 0.855205 0.334947 0.196015
N32   N     N_2   0.401413 0.135033 0.711300 -0.534480
H117  H     H_    0.455049 0.146752 0.731586 0.254191
C176  C     C_3   0.202483 0.140347 0.708528 -0.503800
H118  H     H_    0.132323 0.132253 0.731065 0.185277
H119  H     H_    0.145159 0.123227 0.688960 0.212606
H120  H     H_    0.170353 0.169690 0.703655 0.209801
N33   N     N_2   0.801780 0.398230 0.644963 -0.496329
H121  H     H_    0.743955 0.408297 0.665681 0.294129
C177  C     C_3   0.660387 0.386363 0.622829 -0.555107
H122  H     H_    0.551088 0.407796 0.620960 0.210865
H123  H     H_    0.595951 0.360388 0.631425 0.206593
H124  H     H_    0.720435 0.381923 0.598728 0.212700
N34   N     N_2   0.713147 0.589318 0.351185 -0.497966
H125  H     H_    0.683282 0.576677 0.329840 0.294091
C178  C     C_3   0.550527 0.592995 0.371335 -0.507794
H126  H     H_    0.480897 0.565840 0.373682 0.224194
H127  H     H_    0.451491 0.612918 0.360694 0.211790
H128  H     H_    0.589529 0.602432 0.395563 0.196461
N35   N     N_2   0.723666 0.584877 0.155737 -0.505994
H129  H     H_    0.582415 0.587503 0.158935 0.306424
C179  C     C_3   0.803478 0.558295 0.177372 -0.522766
H130  H     H_    0.721032 0.532472 0.176850 0.192382
H131  H     H_    0.802265 0.569053 0.202145 0.201056
H132  H     H_    0.948375 0.551799 0.170225 0.232540
N36   N     N_2   0.965078 0.417953 0.839406 -0.492570
H133  H     H_    0.871864 0.422857 0.821354 0.288150
C180  C     C_3   0.122073 0.442863 0.838101 -0.586819
H134  H     H_    0.071624 0.471538 0.835325 0.189263
H135  H     H_    0.212910 0.435969 0.817455 0.202333
H136  H     H_    0.204147 0.441413 0.860396 0.224055
N37   N     N_2   0.273892 0.109708 0.861009 -0.487701
H137  H     H_    0.185533 0.105705 0.842076 0.294627
C181  C     C_3   0.172916 0.120390 0.889478 -0.581010
H138  H     H_    0.039494 0.105025 0.890848 0.193867
H139  H     H_    0.144156 0.150383 0.889022 0.196392
H140  H     H_    0.252493 0.113750 0.911243 0.210115
N38   N     N_2   0.322121 0.921015 0.161365 -0.516465
H141  H     H_    0.347781 0.932100 0.183521 0.283455
C182  C     C_3   0.135327 0.928298 0.150617 -0.443147
H142  H     H_    0.104656 0.958038 0.153441 0.202672
H143  H     H_    0.033624 0.912262 0.165046 0.222646
H144  H     H_    0.120340 0.921033 0.125045 0.216701
N39   N     N_2   0.209558 0.913389 0.346079 -0.503605
H145  H     H_    0.068611 0.909614 0.343569 0.308467
C183  C     C_3   0.281432 0.941031 0.324457 -0.522043
H146  H     H_    0.194892 0.966210 0.325938 0.196517
H147  H     H_    0.277021 0.930906 0.299529 0.200925
H148  H     H_    0.426458 0.948359 0.330774 0.227344
N40   N     N_2   0.463012 0.079830 0.664082 -0.490509
H149  H     H_    0.371250 0.075392 0.682609 0.288419
C184  C     C_3   0.619379 0.054876 0.665148 -0.579260
H150  H     H_    0.568276 0.026277 0.668471 0.188886
H151  H     H_    0.711731 0.062084 0.685375 0.201910
H152  H     H_    0.700085 0.055903 0.642550 0.223876
N41   N     N_2   0.057533 0.510069 0.619963 -0.471741
H153  H     H_    0.122765 0.535089 0.623207 0.243316
C185  C     C_3   0.872520 0.509637 0.633651 -0.465762
H154  H     H_    0.781294 0.529277 0.620799 0.164889
H155  H     H_    0.879470 0.517869 0.659099 0.192512
H156  H     H_    0.811318 0.481580 0.632356 0.226506
N42   N     N_2   0.165404 0.494859 0.378902 -0.473666
H157  H     H_    0.280024 0.477892 0.377584 0.242484
C186  C     C_3   0.008517 0.479854 0.361776 -0.469854
H158  H     H_    0.960266 0.453930 0.373227 0.159840
H159  H     H_    0.050532 0.473811 0.336826 0.193332
H160  H     H_    0.892168 0.499925 0.361282 0.221174
N43   N     N_2   0.364931 0.510824 0.107871 -0.474024
H161  H     H_    0.362485 0.484149 0.116299 0.244160
C187  C     C_3   0.552892 0.523637 0.102486 -0.468067
H162  H     H_    0.640194 0.516609 0.123292 0.202019
H163  H     H_    0.553934 0.553924 0.099503 0.230658
H164  H     H_    0.614580 0.510357 0.081044 0.169131
N44   N     N_2   0.588001 0.462048 0.910994 -0.437889
H165  H     H_    0.459018 0.468604 0.920164 0.246008
C188  C     C_3   0.628880 0.482960 0.882460 -0.500537
H166  H     H_    0.515726 0.478934 0.864905 0.191511
H167  H     H_    0.761188 0.473626 0.871446 0.224345
H168  H     H_    0.639487 0.512741 0.888224 0.164251
N45   N     N_2   0.400487 0.995931 0.883414 -0.471907
H169  H     H_    0.424937 0.968588 0.878300 0.245533
C189  C     C_3   0.210619 0.006338 0.876704 -0.464786
H170  H     H_    0.113246 0.991342 0.892767 0.166975
H171  H     H_    0.177090 0.999321 0.851628 0.198274
H172  H     H_    0.191385 0.036417 0.879933 0.227917
N46   N     N_2   0.841367 0.990741 0.112048 -0.486710
H173  H     H_    0.973807 0.000438 0.107555 0.240889
C190  C     C_3   0.746227 0.012530 0.135905 -0.488578
H174  H     H_    0.723214 0.040942 0.126944 0.166465
H175  H     H_    0.832160 0.013917 0.157780 0.188519
H176  H     H_    0.610244 0.999864 0.142219 0.222633
N47   N     N_2   0.864466 0.989102 0.393400 -0.472472
H177  H     H_    0.862473 0.015849 0.385151 0.244063
C191  C     C_3   0.052053 0.976529 0.399081 -0.469991
H178  H     H_    0.142672 0.984413 0.378776 0.198588
H179  H     H_    0.053604 0.946172 0.401383 0.231213
H180  H     H_    0.109933 0.989256 0.420998 0.169392
N48   N     N_2   0.083098 0.033992 0.591712 -0.439337
H181  H     H_    0.954295 0.027464 0.582615 0.245690
C192  C     C_3   0.123247 0.012932 0.620116 -0.498094
H182  H     H_    0.009106 0.016612 0.637720 0.191356
H183  H     H_    0.254762 0.022431 0.631167 0.223396
H184  H     H_    0.134991 0.983217 0.614176 0.164094

loop_
_geom_bond_atom_site_label_1
_geom_bond_atom_site_label_2
_ccdc_geom_bond_type
N48   H181  S    
N14   C158  S    
N31   H113  S    
N40   C184  S    
N21   C165  S    
C186  H158  S    
C106  C113  A    
N20   H69   S    
C10   O22   S    
C42   N10   S    
C20   C92   A    
C43   N11   S    
C34   N25   S    
C21   C93   A    
O15   V4    S    
N22   C166  S    
N27   H97   S    
C162  H64   S    
C19   C91   A    
C165  H75   S    
C180  H135  S    
C106  C122  A    
C66   C90   A    
C183  H148  S    
C87   C151  A    
C178  H128  S    
C14   O26   S    
C110  C126  A    
C86   N22   S    
C161  H58   S    
C190  H175  S    
C163  H67   S    
C11   C75   A    
C29   N38   S    
C192  H183  S    
C184  H151  S    
C156  H38   S    
C35   N28   S    
C174  H111  S    
N6    C62   S    
C135  H15   S    
C10   C74   A    
C87   N23   S    
C118  C126  A    
C10   N2    A    
C69   C93   A    
C169  H90   S    
C159  H50   S    
C185  H156  S    
C30   N37   S    
C53   C61   A    
C171  H99   S    
C188  H166  S    
C6    C99   S    
O16   V3    S    
C168  H88   S    
C41   C97   A    
C13   N5    A    
N46   C190  S    
O10   V2    S    
C153  H26   S    
O12   C4    A    
C80   C88   A    
O13   C5    A    
C24   O35   S    
O6    V2    S    
N13   C157  S    
C56   C64   A    
C11   N3    A    
N35   H129  S    
C186  H160  S    
C12   O24   S    
C13   O25   S    
C179  H130  S    
C15   O27   S    
C188  H168  S    
C16   O28   S    
O1    C4    A    
O2    C3    A    
N34   H125  S    
C29   C61   A    
C54   H6    S    
O7    C6    A    
C43   C51   A    
N37   H137  S    
C18   O29   S    
C83   C147  A    
C46   N14   S    
C81   C145  A    
N19   C163  S    
C176  H118  S    
C108  C132  A    
C82   C146  A    
C33   C97   A    
O10   C2    A    
N43   C187  S    
C85   C149  A    
N4    C60   S    
N18   C162  S    
C177  H123  S    
C37   C101  A    
C95   C144  A    
C189  H171  S    
N45   C189  S    
C165  H76   S    
N1    C57   S    
C171  H98   S    
C130  C138  A    
C13   C77   A    
C36   N27   S    
C54   C62   A    
C42   C98   A    
N25   H89   S    
C156  H40   S    
C49   C57   A    
C175  H114  S    
C191  H179  S    
C134  C142  A    
C169  H91   S    
N39   H145  S    
C37   N30   S    
C177  H122  S    
C110  C117  A    
N44   C188  S    
O17   V3    S    
C24   C96   A    
C156  H39   S    
C45   N13   S    
O12   V1    S    
O19   V1    S    
C29   C37   A    
C185  H154  S    
C31   N40   S    
C31   C39   A    
C182  H142  S    
C25   N34   S    
C39   N32   S    
C187  H163  S    
N43   H161  S    
C49   H1    S    
N48   C192  S    
N13   H41   S    
C1    C104  S    
O8    V1    S    
C65   C73   A    
C2    C103  S    
N20   C164  S    
C18   C90   A    
N15   H49   S    
N38   H141  S    
C56   H8    S    
C70   C125  A    
O1    V3    S    
N1    C17   A    
C130  H10   S    
O2    V4    S    
C158  H46   S    
C132  H12   S    
N4    C20   A    
N5    C21   A    
C71   C95   A    
C27   N36   S    
C143  N47   S    
C40   C104  A    
N7    C23   A    
C180  H136  S    
N8    C24   A    
C118  C149  A    
C11   O23   S    
C154  H30   S    
C12   N4    A    
C113  C121  A    
N11   H33   S    
C138  N42   S    
C170  H95   S    
C72   C96   A    
N41   C185  S    
C144  N48   S    
C55   C63   A    
N9    H25   S    
C172  H103  S    
C105  C129  A    
N2    C58   S    
C71   C128  A    
C113  C146  A    
C161  H60   S    
O11   V2    S    
C176  H120  S    
C45   C101  A    
N26   C170  S    
C157  H44   S    
C108  C124  A    
C139  N43   S    
C28   C60   A    
C164  H70   S    
C110  C134  A    
C187  H162  S    
N18   H61   S    
C177  H124  S    
C155  H35   S    
C33   N26   S    
C153  H27   S    
N47   C191  S    
C167  H83   S    
C70   C94   A    
C27   C35   A    
N25   C169  S    
C12   C76   A    
C182  H144  S    
C119  C127  A    
C192  H184  S    
C120  C128  A    
C31   C63   A    
C4    C101  S    
C149  H21   S    
C22   O33   S    
C112  C136  A    
N36   C180  S    
N16   H53   S    
C26   C58   A    
C8    C97   S    
C162  H63   S    
C88   N24   S    
C88   C152  A    
C9    C73   A    
C17   O30   S    
C158  H48   S    
C119  C152  A    
C146  H18   S    
C179  H132  S    
C32   C40   A    
C35   C99   A    
C173  H108  S    
C150  H22   S    
C15   C79   A    
N9    C153  S    
C175  H116  S    
C183  H147  S    
C38   N29   S    
C154  H32   S    
C178  H127  S    
C116  C124  A    
N24   H85   S    
C73   C81   A    
C190  H174  S    
C133  H13   S    
C44   C52   A    
C51   C59   A    
C89   C138  A    
C77   C85   A    
C20   O31   S    
N33   C177  S    
C79   C87   A    
C48   C56   A    
C184  H150  S    
C52   H4    S    
C7    C98   S    
C53   H5    S    
C155  H34   S    
C43   C99   A    
C174  H110  S    
C90   C137  A    
C69   C77   A    
C157  H42   S    
N42   C186  S    
O18   V4    S    
C34   C98   A    
O11   C3    A    
C148  H20   S    
C94   C141  A    
C185  H155  S    
C164  H72   S    
C38   C102  A    
C181  H140  S    
C136  H16   S    
C131  C139  A    
C9    N1    A    
N12   H37   S    
C129  C137  A    
C23   O36   S    
N21   H73   S    
C168  H87   S    
O5    C8    A    
C132  C140  A    
C133  C141  A    
C15   N7    A    
N30   H109  S    
C108  C115  A    
N5    C61   S    
C16   N8    A    
N32   H117  S    
C136  C144  A    
N29   C173  S    
C115  C123  A    
C47   N15   S    
C27   C59   A    
C40   N31   S    
C41   C49   A    
C188  H167  S    
C191  H178  S    
N31   C175  S    
O7    V2    S    
C160  H54   S    
C186  H159  S    
C109  C133  A    
C92   C139  A    
C51   H3    S    
C107  C131  A    
C93   C142  A    
C67   C124  A    
N27   C171  S    
C115  C148  A    
C65   C122  A    
C96   C143  A    
N46   H173  S    
N2    C18   A    
C75   C83   A    
N8    C64   S    
C32   N39   S    
C173  H106  S    
C151  H23   S    
N6    C22   A    
C192  H182  S    
C135  C143  A    
C165  H74   S    
C142  N46   S    
C116  C147  A    
C85   N21   S    
N28   H101  S    
C14   N6    A    
C190  H176  S    
C120  C151  A    
N10   C154  S    
C163  H68   S    
O4    C1    A    
C16   C80   A    
C84   C148  A    
C3    C102  S    
C106  C130  A    
C152  H24   S    
C174  H112  S    
C46   C102  A    
C72   C80   A    
C76   C84   A    
C69   C126  A    
O13   V3    S    
O14   V4    S    
C21   O34   S    
N32   C176  S    
C171  H100  S    
C181  H138  S    
N30   C174  S    
C48   N16   S    
C19   O32   S    
C32   C64   A    
C42   C50   A    
C105  C114  A    
C9    O21   S    
C68   C76   A    
C176  H119  S    
N26   H93   S    
C140  N44   S    
C170  H96   S    
N16   C160  S    
O14   C6    A    
C86   C150  A    
O20   V2    S    
C44   N12   S    
O3    V4    S    
C81   N17   S    
O4    V3    S    
C25   C57   A    
C14   C78   A    
C50   H2    S    
C166  H78   S    
C160  H56   S    
C105  C121  A    
N40   H149  S    
N35   C179  S    
C5    C100  S    
C109  C125  A    
C26   C34   A    
C159  H52   S    
C167  H82   S    
C131  H11   S    
C30   C38   A    
C170  H94   S    
C84   N20   S    
C82   N18   S    
N41   H153  S    
N38   C182  S    
N23   H81   S    
N37   C181  S    
N19   H65   S    
C41   N9    S    
C66   C74   A    
C17   C89   A    
C161  H59   S    
N39   C183  S    
C157  H43   S    
C117  C125  A    
N7    C63   S    
C25   C33   A    
C111  C120  A    
O3    C2    A    
C112  C119  A    
C129  H9    S    
C189  H172  S    
C83   N19   S    
N17   C161  S    
C163  H66   S    
N12   C156  S    
C114  C122  A    
C191  H180  S    
C183  H146  S    
C30   C62   A    
C46   C54   A    
C117  C150  A    
O9    V1    S    
C91   C140  A    
O15   C7    A    
O16   C8    A    
N22   H77   S    
C111  C127  A    
C112  C128  A    
C168  H86   S    
C45   C53   A    
C182  H143  S    
C187  H164  S    
O5    V1    S    
C36   C100  A    
N3    C59   S    
C39   C103  A    
N24   C168  S    
C68   C92   A    
C114  C145  A    
C67   C91   A    
N42   H157  S    
N15   C159  S    
C65   C89   A    
C166  H79   S    
C162  H62   S    
C28   N35   S    
C47   C55   A    
C158  H47   S    
C23   C95   A    
C179  H131  S    
C26   N33   S    
C173  H107  S    
C166  H80   S    
C153  H28   S    
N17   H57   S    
C175  H115  S    
C28   C36   A    
C70   C78   A    
C154  H31   S    
C67   C75   A    
C178  H126  S    
C71   C79   A    
O9    C1    A    
N28   C172  S    
N11   C155  S    
C66   C121  A    
C68   C123  A    
N3    C19   A    
N14   H45   S    
C137  N41   S    
C52   C60   A    
N33   H121  S    
C172  H104  S    
O8    C5    A    
C109  C118  A    
C107  C116  A    
C184  H152  S    
C147  H19   S    
C169  H92   S    
C47   C103  A    
C22   C94   A    
C160  H55   S    
C145  H17   S    
C189  H170  S    
C164  H71   S    
C159  H51   S    
N34   C178  S    
C181  H139  S    
N45   H169  S    
C180  H134  S    
N23   C167  S    
O6    C7    A    
C141  N45   S    
C50   C58   A    
C155  H36   S    
N47   H177  S    
N44   H165  S    
C74   C82   A    
C107  C123  A    
C72   C127  A    
C55   H7    S    
C44   C100  A    
C167  H84   S    
N10   H29   S    
C134  H14   S    
C172  H102  S    
C78   C86   A    
C111  C135  A    
N29   H105  S    
C48   C104  A    
N36   H133  S    
