data_mof_unit_49296.cif
_audit_creation_date              2012-12-10T16:51:29-0500
_audit_creation_method            fapswitch 2.2
_symmetry_space_group_name_H-M    P1
_symmetry_Int_Tables_number       1
_space_group_crystal_system       triclinic
_cell_length_a                    7.869337
_cell_length_b                    8.56742
_cell_length_c                    12.550249
_cell_angle_alpha                 92.975556
_cell_angle_beta                  103.672687
_cell_angle_gamma                 93.727497
_cell_volume                      818.44228254

loop_
_atom_site_label
_atom_site_type_symbol
_atom_type_description
_atom_site_fract_x
_atom_site_fract_y
_atom_site_fract_z
_atom_type_partial_charge
C1    C     C_R   0.043872 0.794228 0.497073 0.960154
C2    C     C_R   0.434564 0.569600 0.980277 0.063910
C3    C     C_R   0.378068 0.580692 0.866726 0.101619
C4    C     C_R   0.594361 0.502437 0.020654 0.056896
C5    C     C_R   0.709265 0.476726 0.950878 0.132026
C6    C     C_R   0.662432 0.514593 0.842635 -0.277999
C7    C     C_R   0.503426 0.575047 0.803192 -0.173820
C8    C     C_R   0.641012 0.450611 0.126425 0.043520
C9    C     C_R   0.935538 0.421641 0.105558 -0.231356
C10   C     C_R   0.198110 0.596315 0.821183 -0.142390
C11   C     C_2   0.066639 0.957837 0.495315 -0.379716
C12   C     C_R   0.116329 0.536231 0.706663 0.858324
C13   C     C_2   0.932852 0.042116 0.503743 -0.388320
C14   C     C_R   0.955947 0.205767 0.502574 0.966421
C15   C     C_R   0.887131 0.477203 0.291637 0.855621
C16   C     C_R   0.873428 0.421432 0.992593 -0.192693
C17   C     C_R   0.820943 0.447990 0.173488 -0.107577
C18   C     C_R   0.100339 0.664792 0.888389 -0.223630
C19   C     C_R   0.171258 0.688647 0.001657 -0.136669
C20   C     C_R   0.333165 0.632659 0.048442 -0.200493
H1    H     H_    0.072166 0.404368 0.139393 0.180641
H2    H     H_    0.806371 0.991572 0.511676 0.175175
H3    H     H_    0.530803 0.648888 0.556969 0.157681
H4    H     H_    0.749297 0.500000 0.788948 0.190944
H5    H     H_    0.959474 0.394274 0.939620 0.160018
H6    H     H_    0.969620 0.697959 0.853961 0.160132
H7    H     H_    0.381145 0.645184 0.136779 0.146613
H8    H     H_    0.095756 0.741103 0.053823 0.156060
H9    H     H_    0.482555 0.622251 0.723917 0.165410
H10   H     H_    0.193067 0.008375 0.487320 0.172026
N1    N     N_2   0.434800 0.456690 0.470850 -0.044496
N2    N     N_2   0.565200 0.543310 0.529150 -0.140739
O1    O     O_R   0.893060 0.738880 0.507150 -0.614734
O2    O     O_R   0.172250 0.711130 0.488470 -0.638664
O3    O     O_R   0.944700 0.520730 0.667600 -0.628055
O4    O     O_R   0.223890 0.492980 0.648920 -0.616326
O5    O     O_R   0.827750 0.288870 0.511530 -0.640056
O6    O     O_R   0.106940 0.261120 0.492850 -0.609535
O7    O     O_R   0.776110 0.507020 0.351080 -0.622488
O8    O     O_R   0.055300 0.479270 0.332400 -0.617302
Zn1   Zn    Zn3+2 0.813580 0.518530 0.512470 0.918968
Zn2   Zn    Zn3+2 0.186420 0.481470 0.487530 0.929774
C21   C     C_3   0.466391 0.298823 0.441700 -0.500936
H11   H     H_    0.343671 0.238449 0.389906 0.180059
H12   H     H_    0.562177 0.298481 0.391504 0.207243
H13   H     H_    0.507702 0.233946 0.516703 0.194197
C22   C     C_3   0.511686 0.347307 0.170606 -0.406770
C23   C     C_3   0.385642 0.236302 0.081703 -0.342930
C24   C     C_3   0.288729 0.111369 0.132692 -0.903548
H14   H     H_    0.382783 0.034093 0.179889 0.261621
H15   H     H_    0.215791 0.166713 0.188296 0.258478
H16   H     H_    0.193537 0.038458 0.066537 0.259113
H17   H     H_    0.286344 0.302957 0.028823 0.226937
H18   H     H_    0.460699 0.176671 0.028965 0.236203
H19   H     H_    0.589315 0.269149 0.227504 0.199417
H20   H     H_    0.437046 0.419023 0.216802 0.206040

loop_
_geom_bond_atom_site_label_1
_geom_bond_atom_site_label_2
_ccdc_geom_bond_type
C13   H2    S    
C2    C4    A    
N2    Zn1   S    
C6    C7    A    
C7    H9    S    
C20   H7    S    
C14   O6    A    
C11   C13   D    
O4    Zn2   S    
C8    C17   A    
C18   H6    S    
C4    C8    A    
C24   H16   S    
O1    Zn1   S    
H3    N2    S    
O8    Zn2   S    
C2    C3    A    
C8    C22   S    
C1    O1    A    
O7    Zn1   S    
C3    C10   A    
C13   C14   S    
C14   O5    A    
C23   H18   S    
C19   H8    S    
C21   H12   S    
C15   O7    A    
C5    C6    A    
N1    C21   S    
C10   C18   A    
C10   C12   S    
C6    H4    S    
C23   C24   S    
N1    Zn2   S    
C9    C16   A    
C1    O2    A    
O6    Zn2   S    
C3    C7    A    
C21   H11   S    
O5    Zn1   S    
C23   H17   S    
O3    Zn1   S    
C21   H13   S    
C12   O3    A    
C15   O8    A    
C12   O4    A    
C2    C20   A    
C9    H1    S    
C22   C23   S    
C4    C5    A    
C22   H19   S    
C24   H14   S    
C9    C17   A    
C16   H5    S    
C15   C17   S    
C18   C19   A    
C5    C16   A    
C1    C11   S    
N1    N2    D    
C19   C20   A    
C11   H10   S    
C22   H20   S    
C24   H15   S    
O2    Zn2   S    
