data_mof_unit_48990.cif
_audit_creation_date              2012-12-10T17:31:58-0500
_audit_creation_method            fapswitch 2.2
_symmetry_space_group_name_H-M    P1
_symmetry_Int_Tables_number       1
_space_group_crystal_system       triclinic
_cell_length_a                    12.214189
_cell_length_b                    11.522918
_cell_length_c                    12.818099
_cell_angle_alpha                 92.622063
_cell_angle_beta                  94.629599
_cell_angle_gamma                 86.09022
_cell_volume                      1792.51819928

loop_
_atom_site_label
_atom_site_type_symbol
_atom_type_description
_atom_site_fract_x
_atom_site_fract_y
_atom_site_fract_z
_atom_type_partial_charge
C1    C     C_R   0.476991 0.503892 0.300161 0.876303
C2    C     C_R   0.975008 0.552793 0.519738 -0.058956
C3    C     C_R   0.500125 0.282427 0.499676 0.896395
C4    C     C_R   0.499875 0.717573 0.500324 0.896395
C5    C     C_1   0.500418 0.161750 0.499727 -0.181903
C6    C     C_1   0.499582 0.838250 0.500273 -0.181903
C7    C     C_1   0.500224 0.059415 0.499881 0.009816
C8    C     C_1   0.499776 0.940585 0.500119 0.009816
C9    C     C_R   0.538972 0.487669 0.811640 -0.144978
C10   C     C_R   0.461028 0.512330 0.188360 -0.144978
C11   C     C_R   0.381525 0.606714 0.032247 0.168616
C12   C     C_R   0.523009 0.496107 0.699839 0.876302
C13   C     C_R   0.618475 0.393286 0.967753 0.168616
C14   C     C_R   0.383188 0.593008 0.140766 -0.027365
C15   C     C_R   0.616812 0.406992 0.859234 -0.027365
C16   C     C_R   0.534257 0.444363 0.130751 -0.275091
C17   C     C_R   0.465743 0.555637 0.869249 -0.275091
C18   C     C_R   0.538433 0.458857 0.024740 0.108185
C19   C     C_R   0.461567 0.541143 0.975259 0.108185
C20   C     C_1   0.689674 0.334322 0.795804 0.201498
C21   C     C_1   0.310326 0.665678 0.204195 0.201498
C22   C     C_3   0.296573 0.690803 0.977381 -0.920897
C23   C     C_R   0.044517 0.643560 0.552273 -0.080056
C24   C     C_3   0.703427 0.309196 0.022619 -0.920897
C25   C     C_3   0.807550 0.654529 0.599968 -0.788463
C26   C     C_3   0.192450 0.345471 0.400032 -0.788463
C27   C     C_3   0.773154 0.291066 0.374087 -0.801191
C28   C     C_3   0.226846 0.708934 0.625913 -0.801191
C29   C     C_1   0.002362 0.764230 0.562398 0.181917
C30   C     C_1   0.997638 0.235769 0.437602 0.181917
C31   C     C_R   0.955483 0.356440 0.447727 -0.080056
C32   C     C_R   0.159568 0.620131 0.564482 0.256812
C33   C     C_R   0.840432 0.379869 0.435517 0.256812
C34   C     C_R   0.142055 0.438139 0.471562 0.245426
C35   C     C_R   0.857945 0.561860 0.528438 0.245426
C36   C     C_R   0.024992 0.447207 0.480261 -0.058956
H1    H     H_    0.409864 0.618411 0.828630 0.168799
H2    H     H_    0.864519 0.672652 0.669831 0.205843
H3    H     H_    0.784347 0.735109 0.557040 0.243084
H4    H     H_    0.264953 0.373791 0.366386 0.272488
H5    H     H_    0.215653 0.264891 0.442960 0.243084
H6    H     H_    0.135481 0.327348 0.330168 0.205843
H7    H     H_    0.816275 0.256862 0.304877 0.200825
H8    H     H_    0.761659 0.217018 0.423712 0.246262
H9    H     H_    0.693658 0.328102 0.341028 0.264515
H10   H     H_    0.183725 0.743137 0.695123 0.200825
H11   H     H_    0.306342 0.671898 0.658972 0.264515
H12   H     H_    0.590136 0.381589 0.171370 0.168800
H13   H     H_    0.238341 0.782982 0.576288 0.246262
H14   H     H_    0.236148 0.733111 0.029313 0.252715
H15   H     H_    0.338621 0.761212 0.943706 0.240103
H16   H     H_    0.248346 0.643333 0.913928 0.243904
H17   H     H_    0.763851 0.266888 0.970687 0.252715
H18   H     H_    0.751654 0.356666 0.086072 0.243904
H19   H     H_    0.661378 0.238787 0.056294 0.240103
H20   H     H_    0.735047 0.626209 0.633614 0.272488
N1    N     N_R   0.792200 0.479100 0.480660 -0.104430
N2    N     N_R   0.207800 0.520900 0.519340 -0.104430
N3    N     N_1   0.747656 0.276438 0.745041 -0.187298
N4    N     N_1   0.252344 0.723561 0.254959 -0.187298
N5    N     N_1   0.969800 0.860724 0.570246 -0.186609
N6    N     N_1   0.030200 0.139276 0.429754 -0.186609
O1    O     O_R   0.578300 0.494420 0.341180 -0.620967
O2    O     O_R   0.421700 0.505580 0.658820 -0.620967
O3    O     O_R   0.390690 0.507830 0.353590 -0.625549
O4    O     O_R   0.609310 0.492170 0.646410 -0.625549
O5    O     O_R   0.593810 0.327740 0.493800 -0.609698
O6    O     O_R   0.406190 0.672260 0.506200 -0.609698
O7    O     O_R   0.406190 0.341150 0.506220 -0.614937
O8    O     O_R   0.593810 0.658850 0.493780 -0.614937
Zn1   Zn    Zn3+2 0.625270 0.491050 0.491710 0.944884
Zn2   Zn    Zn3+2 0.374730 0.508950 0.508290 0.944884

loop_
_geom_bond_atom_site_label_1
_geom_bond_atom_site_label_2
_ccdc_geom_bond_type
C2    C35   A    
O7    Zn2   S    
C1    O3    A    
C31   C33   A    
C28   H11   S    
C12   O4    A    
O8    Zn1   S    
C25   H2    S    
O3    Zn2   S    
C28   H13   S    
C25   H3    S    
C11   C22   S    
C34   C36   A    
O4    Zn1   S    
C25   H20   S    
C32   N2    A    
C35   N1    A    
O2    Zn2   S    
C11   C19   A    
C23   C32   A    
C16   H12   S    
C4    O8    A    
C9    C15   A    
C3    C5    S    
C7    C8    S    
C16   C18   A    
C17   H1    S    
C27   C33   S    
C24   H19   S    
C28   C32   S    
N2    Zn2   S    
C30   C31   S    
C10   C16   A    
C3    O5    A    
C13   C18   A    
C25   C35   S    
C6    C8    T    
C23   C29   S    
C14   C21   S    
C4    C6    S    
C13   C24   S    
C3    O7    A    
O1    Zn1   S    
C22   H16   S    
O5    Zn1   S    
C13   C15   A    
C30   N6    T    
C15   C20   S    
C12   O2    A    
C11   C14   A    
C29   N5    T    
C22   H15   S    
C27   H9    S    
C24   H18   S    
C27   H7    S    
C22   H14   S    
C26   H4    S    
C2    C36   A    
C26   H6    S    
C21   N4    T    
C34   N2    A    
C18   C19   A    
C10   C14   A    
C9    C17   A    
C2    C23   A    
C5    C7    T    
C28   H10   S    
C31   C36   A    
C1    O1    A    
C33   N1    A    
C17   C19   A    
C24   H17   S    
C9    C12   S    
C4    O6    A    
C27   H8    S    
C26   C34   S    
N1    Zn1   S    
C1    C10   S    
C26   H5    S    
O6    Zn2   S    
C20   N3    T    
