data_mof_unit_68160.cif
_audit_creation_date              2013-03-05T16:02:15-0500
_audit_creation_method            fapswitch 2.2
_symmetry_space_group_name_H-M    P1
_symmetry_Int_Tables_number       1
_space_group_crystal_system       triclinic
_cell_length_a                    22.006606
_cell_length_b                    7.098007
_cell_length_c                    13.677658
_cell_angle_alpha                 89.987702
_cell_angle_beta                  100.903859
_cell_angle_gamma                 89.983796
_cell_volume                      2097.9193669

loop_
_atom_site_label
_atom_site_type_symbol
_atom_site_description
_atom_site_fract_x
_atom_site_fract_y
_atom_site_fract_z
_atom_type_partial_charge
O1    O     O_R   0.835850 0.638310 0.002120 -0.602226
O2    O     O_R   0.164150 0.361690 0.997880 -0.559254
O3    O     O_R   0.664150 0.138310 0.997880 -0.602643
O4    O     O_R   0.335850 0.861690 0.002120 -0.559698
O5    O     O_R   0.717530 0.306070 0.861970 -0.555942
O6    O     O_R   0.282470 0.693930 0.138030 -0.522030
O7    O     O_R   0.782470 0.806070 0.138030 -0.555515
O8    O     O_R   0.217530 0.193930 0.861970 -0.521964
C1    C     C_R   0.703519 0.476119 0.822670 0.977430
C2    C     C_R   0.295710 0.523045 0.178061 0.970473
C3    C     C_R   0.796330 0.976115 0.177373 0.978757
C4    C     C_R   0.204128 0.023132 0.822004 0.970929
O9    O     O_R   0.838690 0.308440 0.993250 -0.561794
O10   O     O_R   0.161310 0.691560 0.006750 -0.599900
O11   O     O_R   0.661310 0.808440 0.006750 -0.562390
O12   O     O_R   0.338690 0.191560 0.993250 -0.599458
O13   O     O_R   0.786170 0.140510 0.130090 -0.528278
O14   O     O_R   0.213830 0.859490 0.869910 -0.562898
O15   O     O_R   0.713830 0.640510 0.869910 -0.528937
O16   O     O_R   0.286170 0.359490 0.130090 -0.562754
C5    C     C_R   0.864908 0.478310 0.995193 0.953808
C6    C     C_R   0.135423 0.523420 0.005734 0.946982
C7    C     C_R   0.635087 0.978271 0.004564 0.954561
C8    C     C_R   0.364641 0.023425 0.994566 0.947947
O17   O     O_3   0.732630 0.472520 0.044740 -0.262721
O18   O     O_3   0.267370 0.527480 0.955260 -0.262043
O19   O     O_3   0.767370 0.972520 0.955260 -0.263212
O20   O     O_3   0.232630 0.027480 0.044740 -0.262350
V1    V     V_3+5 0.753220 0.196740 0.991700 1.284411
V2    V     V_3+5 0.246780 0.803260 0.008300 1.282508
V3    V     V_3+5 0.746780 0.696740 0.008300 1.284534
V4    V     V_3+5 0.253220 0.303260 0.991700 1.282748
C9    C     C_R   0.542845 0.013209 0.814930 0.301327
C10   C     C_R   0.456423 0.055329 0.181329 0.296709
C11   C     C_R   0.957106 0.511634 0.185009 0.300378
C12   C     C_R   0.044033 0.558053 0.819236 0.296751
C13   C     C_R   0.501178 0.038474 0.726214 -0.445325
C14   C     C_R   0.498059 0.085907 0.268860 -0.445678
C15   C     C_R   0.998733 0.535878 0.273853 -0.444768
C16   C     C_R   0.002612 0.591735 0.731936 -0.448547
C17   C     C_R   0.437288 0.033885 0.722862 0.764801
C18   C     C_R   0.561518 0.062192 0.273804 0.778148
C19   C     C_R   0.062636 0.530975 0.277319 0.765647
C20   C     C_R   0.939131 0.568548 0.726546 0.778600
C21   C     C_R   0.416201 0.025763 0.813422 -0.211001
C22   C     C_R   0.583204 0.036823 0.184336 -0.242561
C23   C     C_R   0.083773 0.523468 0.186796 -0.210478
C24   C     C_R   0.917141 0.541385 0.815679 -0.243159
C25   C     C_R   0.457359 0.016034 0.906684 -0.041899
C26   C     C_R   0.542244 0.020291 0.091089 -0.036800
C27   C     C_R   0.042662 0.514901 0.093470 -0.042385
C28   C     C_R   0.957931 0.522382 0.908964 -0.037043
C29   C     C_R   0.522709 0.005243 0.908137 -0.054248
C30   C     C_R   0.476846 0.029155 0.089341 -0.044308
C31   C     C_R   0.977295 0.504325 0.091840 -0.053445
C32   C     C_R   0.023369 0.530662 0.910938 -0.043386
C33   C     C_R   0.433848 0.017262 0.997031 -0.198642
C34   C     C_R   0.565647 0.993465 0.001256 -0.202929
C35   C     C_R   0.066245 0.517242 0.003224 -0.197947
C36   C     C_R   0.934396 0.493699 0.998607 -0.203561
H1    H     H_    0.520169 0.047694 0.659005 0.163718
H2    H     H_    0.479092 0.111204 0.335078 0.163536
H3    H     H_    0.979665 0.544510 0.341004 0.163608
H4    H     H_    0.021665 0.618552 0.665945 0.164397
H5    H     H_    0.366624 0.028149 0.809535 0.144644
H6    H     H_    0.632751 0.027584 0.189036 0.149737
H7    H     H_    0.133359 0.525578 0.190756 0.144087
H8    H     H_    0.867558 0.532828 0.810729 0.150218
C37   C     C_R   0.173978 0.015030 0.713394 -0.126847
C38   C     C_R   0.824629 0.986501 0.285866 -0.133158
C39   C     C_R   0.325735 0.514777 0.286732 -0.127089
C40   C     C_R   0.675061 0.486315 0.714178 -0.127504
C41   C     C_R   0.181311 0.002954 0.537373 0.618596
C42   C     C_R   0.817017 0.083372 0.454723 0.633758
C43   C     C_R   0.318397 0.503469 0.462787 0.619643
C44   C     C_R   0.682955 0.578351 0.544503 0.638355
C45   C     C_R   0.209448 0.018919 0.638984 -0.348803
C46   C     C_R   0.790600 0.062421 0.352478 -0.289903
C47   C     C_R   0.290248 0.519206 0.361136 -0.349409
C48   C     C_R   0.709270 0.559330 0.647132 -0.303573
C49   C     C_R   0.109512 0.993636 0.683893 0.063467
C50   C     C_R   0.887798 0.948367 0.320678 0.022778
C51   C     C_R   0.390150 0.492583 0.316283 0.065667
C52   C     C_R   0.611855 0.449058 0.679584 0.025354
C53   C     C_R   0.078554 0.007101 0.582325 0.015334
C54   C     C_R   0.918102 0.996320 0.419261 0.046213
C55   C     C_R   0.421134 0.506492 0.417778 0.015135
C56   C     C_R   0.581623 0.495456 0.580740 0.042907
C57   C     C_R   0.115814 0.004195 0.508008 -0.221291
C58   C     C_R   0.880655 0.041320 0.489264 -0.257449
C59   C     C_R   0.383894 0.504739 0.492104 -0.221299
C60   C     C_R   0.619141 0.537597 0.510371 -0.256453
C61   C     C_R   0.012046 0.015999 0.552929 -0.165992
C62   C     C_R   0.984293 0.001659 0.449156 -0.163192
C63   C     C_R   0.487646 0.514572 0.447084 -0.164889
C64   C     C_R   0.515426 0.501378 0.550887 -0.162353
C65   C     C_R   0.022467 0.018692 0.376393 0.396403
C66   C     C_R   0.972982 0.053624 0.623334 0.402269
C67   C     C_R   0.477264 0.519905 0.623612 0.396399
C68   C     C_R   0.526694 0.550191 0.376451 0.399403
C69   C     C_R   0.087507 0.009159 0.405498 0.263763
C70   C     C_R   0.907850 0.055030 0.591857 0.278684
C71   C     C_R   0.412219 0.510592 0.594570 0.264541
C72   C     C_R   0.591819 0.549920 0.407685 0.276693
H9    H     H_    0.913228 0.886518 0.268887 0.135087
H10   H     H_    0.084830 0.961160 0.742207 0.143332
H11   H     H_    0.586390 0.388603 0.731699 0.134468
H12   H     H_    0.414751 0.459146 0.258031 0.143930
H13   H     H_    0.743465 0.106247 0.323952 0.177029
H14   H     H_    0.259387 0.018409 0.660566 0.185808
H15   H     H_    0.756533 0.601158 0.675990 0.172035
H16   H     H_    0.240313 0.518823 0.339528 0.185795
O21   O     O_3   0.604265 0.061469 0.363323 -0.607716
C73   C     C_3   0.577445 0.024999 0.448099 -0.257385
H17   H     H_    0.613265 0.976319 0.510815 0.181054
H18   H     H_    0.542614 0.910480 0.435615 0.162904
H19   H     H_    0.556840 0.155191 0.472254 0.124197
O22   O     O_3   0.393112 0.038998 0.634672 -0.596440
C74   C     C_3   0.417632 0.003551 0.547815 -0.211148
H20   H     H_    0.379599 0.971445 0.484942 0.170608
H21   H     H_    0.448170 0.878139 0.555732 0.149617
H22   H     H_    0.442290 0.129398 0.527112 0.116091
O23   O     O_3   0.896739 0.570922 0.636725 -0.610560
C75   C     C_3   0.923683 0.529943 0.552519 -0.258461
H23   H     H_    0.887934 0.480245 0.489994 0.182293
H24   H     H_    0.958242 0.414709 0.566258 0.163739
H25   H     H_    0.944744 0.658268 0.527297 0.125142
O24   O     O_3   0.106801 0.534962 0.365545 -0.596878
C76   C     C_3   0.082134 0.501610 0.452457 -0.213502
H26   H     H_    0.120072 0.469707 0.515525 0.171191
H27   H     H_    0.051416 0.376702 0.445003 0.149717
H28   H     H_    0.057661 0.628374 0.472545 0.116231
N1    N     N_R   0.602361 0.950577 0.804308 0.239610
O25   O     O_R   0.635048 0.049076 0.753040 -0.442066
O26   O     O_R   0.610064 0.770414 0.808523 -0.397626
N2    N     N_R   0.396825 0.997648 0.194326 0.239999
O27   O     O_R   0.364314 0.104951 0.241688 -0.450906
O28   O     O_R   0.388906 0.817760 0.197292 -0.404994
N3    N     N_R   0.897578 0.449004 0.195389 0.239767
O29   O     O_R   0.864774 0.547460 0.246496 -0.438772
O30   O     O_R   0.890010 0.268813 0.191278 -0.396664
N4    N     N_R   0.103393 0.498181 0.805958 0.240791
O31   O     O_R   0.136011 0.603486 0.757783 -0.449944
O32   O     O_R   0.110877 0.317977 0.803922 -0.405656
N5    N     N_R   0.124707 0.024054 0.330096 0.255201
O33   O     O_R   0.145337 0.873647 0.293049 -0.394330
O34   O     O_R   0.136961 0.187615 0.296247 -0.436698
N6    N     N_R   0.869344 0.069890 0.665539 0.260833
O35   O     O_R   0.849896 0.918953 0.703743 -0.442090
O36   O     O_R   0.853632 0.233488 0.695179 -0.375949
N7    N     N_R   0.375031 0.526984 0.669907 0.254928
O37   O     O_R   0.354572 0.377325 0.707898 -0.393545
O38   O     O_R   0.362723 0.691220 0.702884 -0.437581
N8    N     N_R   0.630123 0.562218 0.333597 0.263489
O39   O     O_R   0.650656 0.410066 0.298161 -0.437674
O40   O     O_R   0.645835 0.724773 0.302647 -0.371266
O41   O     O_3   0.216381 0.944743 0.469010 -0.651096
C77   C     C_3   0.256419 0.086370 0.450283 -0.053358
H29   H     H_    0.292250 0.112516 0.517020 0.199317
H30   H     H_    0.229930 0.214700 0.423799 0.200714
H31   H     H_    0.279689 0.039039 0.389408 0.184860
O42   O     O_3   0.785659 0.172037 0.520763 -0.617556
C78   C     C_3   0.722155 0.135405 0.503354 -0.131084
H32   H     H_    0.710917 0.991907 0.474851 0.212024
H33   H     H_    0.697927 0.241317 0.451203 0.208882
H34   H     H_    0.705764 0.149827 0.574839 0.182721
O43   O     O_3   0.283432 0.444829 0.531218 -0.651174
C79   C     C_3   0.243059 0.585694 0.549761 -0.054102
H35   H     H_    0.207322 0.611904 0.482888 0.199269
H36   H     H_    0.269299 0.714132 0.576574 0.201355
H37   H     H_    0.219712 0.537620 0.610402 0.185033
O44   O     O_3   0.714676 0.659099 0.476341 -0.614404
C80   C     C_3   0.778926 0.641467 0.500560 -0.123711
H38   H     H_    0.792929 0.501456 0.531438 0.226805
H39   H     H_    0.798101 0.753745 0.553112 0.197648
H40   H     H_    0.797793 0.660135 0.431539 0.179361
O45   O     O_3   0.996613 0.105522 0.286513 -0.597613
C81   C     C_3   0.009429 0.013744 0.200881 -0.075880
H41   H     H_    0.028444 0.870941 0.215000 0.094905
H42   H     H_    0.041336 0.100969 0.166152 0.183516
H43   H     H_    0.965954 0.001052 0.145076 0.138542
O46   O     O_3   0.998454 0.147732 0.711084 -0.610196
C82   C     C_3   0.983801 0.064643 0.797867 -0.110399
H44   H     H_    0.967274 0.918124 0.787671 0.107901
H45   H     H_    0.949006 0.150937 0.826188 0.186342
H46   H     H_    0.025790 0.064193 0.857286 0.143990
O47   O     O_3   0.503147 0.607612 0.713196 -0.598093
C83   C     C_3   0.490302 0.516867 0.799117 -0.077020
H47   H     H_    0.533712 0.505357 0.855163 0.139000
H48   H     H_    0.471574 0.373635 0.785531 0.095144
H49   H     H_    0.458167 0.604207 0.833312 0.183817
O48   O     O_3   0.501375 0.643898 0.288449 -0.609185
C84   C     C_3   0.515736 0.559381 0.201807 -0.112487
H50   H     H_    0.532592 0.413183 0.212607 0.106600
H51   H     H_    0.550185 0.645597 0.172574 0.185973
H52   H     H_    0.473547 0.557613 0.142787 0.143172

loop_
_geom_bond_atom_site_label_1
_geom_bond_atom_site_label_2
_geom_bond_distance
_ccdc_geom_bond_type
O17   V3    1.713756 S    
C7    C34   1.524033 S    
C51   C55   1.429615 A    
C4    C37   1.509139 S    
C56   C64   1.437234 A    
O1    C5    1.315375 A    
C61   C62   1.438785 A    
C73   H18   1.108307 S    
C29   C34   1.437584 A    
C55   C59   1.421438 A    
O19   V1    1.713790 S    
C9    C29   1.427780 A    
O13   V1    1.936034 S    
C37   C45   1.395149 A    
O3    C7    1.315407 A    
C78   H32   1.102010 S    
C1    C40   1.499251 S    
C68   C72   1.415930 A    
O15   V3    1.936285 S    
O24   C76   1.417018 S    
C39   C47   1.395419 A    
N5    O33   1.299852 A    
C3    C38   1.498582 S    
O4    V2    2.020985 S    
O23   C75   1.421651 S    
C80   H38   1.100626 S    
O7    C3    1.333344 A    
C69   N5    1.436808 S    
C26   C30   1.436207 A    
C47   H16   1.082617 S    
C83   H49   1.108231 S    
C83   H48   1.099696 S    
C78   H33   1.101765 S    
N6    O36   1.298210 A    
C22   H6    1.082020 S    
C82   H45   1.106175 S    
O4    C8    1.324815 A    
C80   H40   1.108799 S    
C38   C46   1.392619 A    
C64   C67   1.424089 A    
C41   O41   1.383342 S    
O1    V3    2.020765 S    
C52   H11   1.075824 S    
C25   C33   1.427145 A    
C51   H12   1.071183 S    
O2    V4    2.020767 S    
C18   C22   1.406639 A    
C50   H9    1.075963 S    
C44   O44   1.389684 S    
C12   N4    1.417573 S    
O22   C74   1.417189 S    
C58   C70   1.420943 A    
C12   C16   1.379049 A    
C28   C36   1.432908 A    
C77   H31   1.108922 S    
C70   N6    1.438026 S    
O46   C82   1.416119 S    
C28   C32   1.436438 A    
C53   C61   1.444003 A    
C1    O15   1.332490 A    
C79   H37   1.108863 S    
C63   C64   1.438694 A    
C2    O16   1.330661 A    
C8    C33   1.517612 S    
C84   H51   1.106316 S    
C55   C63   1.443766 A    
O2    C6    1.324514 A    
N7    O37   1.299889 A    
C67   O47   1.396373 S    
O14   V2    1.936033 S    
C21   C25   1.419553 A    
C17   O22   1.399195 S    
C54   C62   1.437061 A    
C16   C20   1.394755 A    
N8    O40   1.298247 A    
C84   H50   1.102381 S    
C71   N7    1.436698 S    
C76   H28   1.109491 S    
C11   N3    1.415825 S    
C2    C39   1.509206 S    
O11   C7    1.334205 A    
O12   C8    1.321532 A    
C31   C36   1.437961 A    
C77   H30   1.104725 S    
C68   O48   1.395489 S    
O10   V2    2.037797 S    
C23   H7    1.082379 S    
N5    O34   1.296952 A    
C81   H41   1.099511 S    
O5    V1    1.959442 S    
C74   H21   1.108086 S    
O17   V1    2.165144 S    
C73   H19   1.106936 S    
O7    V3    1.959921 S    
C11   C31   1.427662 A    
C26   C34   1.432013 A    
C56   C60   1.413561 A    
O20   V4    2.165094 S    
C78   H34   1.109076 S    
N6    O35   1.299470 A    
C5    C36   1.525006 S    
O21   C73   1.420839 S    
C67   C71   1.412826 A    
C54   C58   1.412932 A    
C82   H46   1.109153 S    
O43   C79   1.392220 S    
C42   O42   1.387077 S    
C53   C57   1.421728 A    
C63   C68   1.431712 A    
C23   C27   1.419429 A    
C62   C65   1.423780 A    
C50   C54   1.427890 A    
O19   V3    2.165093 S    
C9    C13   1.387168 A    
O41   C77   1.392222 S    
C14   H2    1.081582 S    
C83   H47   1.108958 S    
O8    V4    1.959920 S    
C66   O46   1.395336 S    
C11   C15   1.387262 A    
C82   H44   1.101997 S    
O5    C1    1.333302 A    
C12   C32   1.426009 A    
C43   O43   1.383421 S    
C18   O21   1.395838 S    
C65   O45   1.396314 S    
C10   N2    1.416992 S    
O8    C4    1.339786 A    
C84   H52   1.109174 S    
O9    C5    1.334919 A    
C24   H8    1.082113 S    
C74   H20   1.104468 S    
O11   V3    2.037379 S    
O10   C6    1.321543 A    
N8    O39   1.299332 A    
C40   C52   1.407069 A    
C80   H39   1.102507 S    
C44   C60   1.423375 A    
C75   H25   1.106375 S    
N2    O28   1.290402 A    
C79   H35   1.103375 S    
O6    V2    1.959444 S    
O18   V2    2.165143 S    
C21   H5    1.082356 S    
C77   H29   1.103306 S    
N4    O32   1.290587 A    
C27   C35   1.426740 A    
C6    C35   1.516903 S    
O44   C80   1.395454 S    
C75   H24   1.108254 S    
O42   C78   1.397022 S    
O16   V4    1.936286 S    
C74   H22   1.109442 S    
O9    V1    2.037799 S    
C49   H10   1.071549 S    
C3    O13   1.332164 A    
C17   C21   1.403692 A    
C13   H1    1.081353 S    
C57   C69   1.422919 A    
C10   C14   1.380292 A    
C44   C48   1.419991 A    
C59   C71   1.422671 A    
N2    O27   1.298799 A    
C19   O24   1.399259 S    
O6    C2    1.339805 A    
C81   H42   1.108286 S    
N3    O29   1.299609 A    
C73   H17   1.104759 S    
O18   V4    1.713755 S    
C43   C59   1.421179 A    
O12   V4    2.037381 S    
C15   H3    1.081314 S    
C22   C26   1.420608 A    
C20   O23   1.395088 S    
C16   H4    1.081615 S    
C32   C35   1.428968 A    
O48   C84   1.416346 S    
C42   C58   1.422314 A    
O20   V2    1.713791 S    
C76   H26   1.104434 S    
C41   C57   1.421234 A    
O47   C83   1.414688 S    
C40   C48   1.391924 A    
C66   C70   1.416483 A    
N3    O30   1.289714 A    
C10   C30   1.426022 A    
O3    V1    2.020987 S    
N1    O25   1.299569 A    
C52   C56   1.427675 A    
C43   C47   1.415387 A    
C25   C29   1.436512 A    
C48   H15   1.081980 S    
C79   H36   1.104254 S    
C46   H13   1.082412 S    
C27   C31   1.436443 A    
N7    O38   1.296937 A    
C13   C17   1.398444 A    
C45   H14   1.082671 S    
C38   C50   1.407754 A    
C49   C53   1.430049 A    
C81   H43   1.108980 S    
C37   C49   1.407872 A    
C60   C72   1.422056 A    
C14   C18   1.395461 A    
C9    N1    1.416271 S    
C24   C28   1.420732 A    
C15   C19   1.398518 A    
O45   C81   1.414544 S    
C42   C46   1.417167 A    
C4    O14   1.330675 A    
N1    O26   1.289782 A    
C41   C45   1.415045 A    
N4    O31   1.298911 A    
C39   C51   1.407392 A    
C72   N8    1.438132 S    
C19   C23   1.403612 A    
C61   C66   1.432081 A    
C65   C69   1.412824 A    
C20   C24   1.407401 A    
C75   H23   1.104752 S    
C76   H27   1.108026 S    
C30   C33   1.429938 A    
