data_mof_unit_34668.cif
_audit_creation_date              2012-12-10T17:40:50-0500
_audit_creation_method            fapswitch 2.2
_symmetry_space_group_name_H-M    P1
_symmetry_Int_Tables_number       1
_space_group_crystal_system       triclinic
_cell_length_a                    15.033668
_cell_length_b                    15.223958
_cell_length_c                    9.919843
_cell_angle_alpha                 91.773984
_cell_angle_beta                  88.896668
_cell_angle_gamma                 90.248169
_cell_volume                      2268.84888186

loop_
_atom_site_label
_atom_site_type_symbol
_atom_type_description
_atom_site_fract_x
_atom_site_fract_y
_atom_site_fract_z
_atom_type_partial_charge
Br1   Br    Br    0.357751 0.274146 0.035241 -0.617268
Br2   Br    Br    0.370471 0.753045 0.022025 -0.627984
Br3   Br    Br    0.857621 0.774001 0.035312 -0.617582
Br4   Br    Br    0.870560 0.252998 0.022001 -0.627844
C1    C     C_R   0.385762 0.874582 0.499356 0.868902
C2    C     C_R   0.701886 0.235735 0.378852 0.192057
C3    C     C_R   0.194864 0.254743 0.390770 0.204357
C4    C     C_R   0.201835 0.735778 0.378861 0.192051
C5    C     C_R   0.694605 0.821892 0.491625 -0.150788
C6    C     C_R   0.669386 0.203845 0.501990 -0.166920
C7    C     C_R   0.194581 0.321870 0.491634 -0.150597
C8    C     C_R   0.169343 0.703875 0.501993 -0.166979
C9    C     C_R   0.337151 0.994120 0.143638 -0.128493
C10   C     C_R   0.837151 0.494110 0.143638 -0.128523
C11   C     C_R   0.257216 0.990552 0.075383 -0.179011
C12   C     C_R   0.377679 0.118050 0.503658 0.878221
C13   C     C_R   0.757216 0.490533 0.075385 -0.178982
C14   C     C_R   0.257387 0.991417 0.936003 -0.145744
C15   C     C_R   0.757387 0.491392 0.936004 -0.145751
C16   C     C_R   0.337511 0.995599 0.864166 -0.164205
C17   C     C_R   0.837511 0.495579 0.864167 -0.164216
C18   C     C_R   0.419901 0.997390 0.929731 0.179334
C19   C     C_R   0.919901 0.497381 0.929731 0.179368
C20   C     C_R   0.419860 0.997077 0.074226 0.226849
C21   C     C_R   0.919860 0.497071 0.074226 0.226863
C22   C     C_R   0.576531 0.003278 0.069450 -0.080125
C23   C     C_R   0.885772 0.374577 0.499354 0.868832
C24   C     C_R   0.076530 0.503284 0.069450 -0.080046
C25   C     C_R   0.612027 0.127147 0.500897 0.939688
C26   C     C_R   0.622925 0.883299 0.497372 0.930728
C27   C     C_R   0.112012 0.627156 0.500897 0.939664
C28   C     C_R   0.122922 0.383298 0.497374 0.930832
C29   C     C_R   0.576432 0.003297 0.926505 -0.108378
C30   C     C_R   0.076432 0.503303 0.926505 -0.108337
C31   C     C_R   0.325056 0.227805 0.757142 -0.215956
C32   C     C_R   0.343631 0.766000 0.738568 -0.176441
C33   C     C_R   0.824978 0.727736 0.757172 -0.215928
C34   C     C_R   0.877676 0.618047 0.503657 0.878213
C35   C     C_R   0.843694 0.265964 0.738546 -0.176430
C36   C     C_R   0.322298 0.295588 0.855238 0.289011
C37   C     C_R   0.301959 0.750282 0.862295 0.294787
C38   C     C_R   0.822202 0.795493 0.855308 0.288927
C39   C     C_R   0.802033 0.250240 0.862279 0.294797
C40   C     C_R   0.799332 0.879942 0.819309 -0.259278
C41   C     C_R   0.709761 0.239790 0.868752 -0.283714
C42   C     C_R   0.299413 0.380025 0.819196 -0.259213
C43   C     C_R   0.209687 0.739831 0.868754 -0.283686
C44   C     C_R   0.768997 0.894492 0.689246 0.198415
C45   C     C_R   0.256289 0.188699 0.397609 -0.236553
C46   C     C_R   0.661178 0.233774 0.749926 0.224691
C47   C     C_R   0.269036 0.394532 0.689145 0.198388
C48   C     C_R   0.161114 0.733809 0.749920 0.224641
C49   C     C_R   0.754181 0.820982 0.599921 0.029736
C50   C     C_R   0.707203 0.233096 0.624294 0.015275
C51   C     C_R   0.254201 0.320998 0.599877 0.029589
C52   C     C_R   0.207149 0.733134 0.624297 0.015302
C53   C     C_R   0.296705 0.241892 0.623935 0.003220
C54   C     C_R   0.293362 0.766335 0.619889 -0.011486
C55   C     C_R   0.796669 0.741863 0.623957 0.003200
C56   C     C_R   0.277043 0.787408 0.378990 -0.260040
C57   C     C_R   0.793415 0.266299 0.619877 -0.011544
C58   C     C_R   0.307412 0.181633 0.512413 -0.126522
C59   C     C_R   0.322755 0.803434 0.498424 -0.132989
C60   C     C_R   0.807415 0.681637 0.512400 -0.126606
C61   C     C_R   0.822794 0.303406 0.498415 -0.133006
C62   C     C_3   0.819651 0.005939 0.536937 -0.779912
C63   C     C_3   0.538452 0.329443 0.712531 -0.769496
C64   C     C_3   0.319720 0.505986 0.536893 -0.779980
C65   C     C_3   0.038366 0.829443 0.712501 -0.769385
C66   C     C_3   0.551409 0.704984 0.316690 -0.715032
C67   C     C_R   0.756365 0.688765 0.397531 -0.236467
C68   C     C_3   0.582749 0.271486 0.231221 -0.697319
C69   C     C_3   0.051138 0.204992 0.317476 -0.714982
C70   C     C_3   0.082666 0.771513 0.231276 -0.697358
C71   C     C_R   0.777092 0.287366 0.378978 -0.260061
C72   C     C_R   0.694964 0.754826 0.390665 0.204290
H1    H     H_    0.260670 0.140139 0.315562 0.167785
H2    H     H_    0.138885 0.506129 0.871538 0.143297
H3    H     H_    0.345697 0.164936 0.790539 0.201606
H4    H     H_    0.414613 0.778119 0.736271 0.190437
H5    H     H_    0.845606 0.664858 0.790539 0.201596
H6    H     H_    0.914674 0.278093 0.736234 0.190418
H7    H     H_    0.806241 0.934167 0.891655 0.168124
H8    H     H_    0.675209 0.239280 0.964595 0.157904
H9    H     H_    0.306333 0.434271 0.891501 0.168137
H10   H     H_    0.175127 0.739320 0.964591 0.157899
H11   H     H_    0.639158 0.005927 0.121371 0.158051
H12   H     H_    0.297880 0.816801 0.285538 0.214647
H13   H     H_    0.139158 0.505938 0.121372 0.158081
H14   H     H_    0.330982 0.995037 0.250476 0.187951
H15   H     H_    0.830982 0.495036 0.250478 0.187961
H16   H     H_    0.194719 0.988070 0.131281 0.140688
H17   H     H_    0.694719 0.488052 0.131283 0.140678
H18   H     H_    0.758943 0.029612 0.723038 0.227663
H19   H     H_    0.808432 0.075162 0.510267 0.239069
H20   H     H_    0.808030 0.963779 0.445617 0.251275
H21   H     H_    0.889847 0.999182 0.568241 0.239521
H22   H     H_    0.537286 0.226379 0.845216 0.248172
H23   H     H_    0.760794 0.640253 0.315422 0.168002
H24   H     H_    0.465913 0.329520 0.699042 0.255221
H25   H     H_    0.569118 0.345753 0.613627 0.233893
H26   H     H_    0.556215 0.381067 0.789085 0.239591
H27   H     H_    0.258839 0.529647 0.722863 0.227709
H28   H     H_    0.308288 0.575112 0.509896 0.239118
H29   H     H_    0.308405 0.463624 0.445690 0.251348
H30   H     H_    0.389885 0.499545 0.568501 0.239521
H31   H     H_    0.037219 0.726385 0.845194 0.248169
H32   H     H_    0.965809 0.829512 0.699094 0.255202
H33   H     H_    0.068996 0.845730 0.613540 0.233867
H34   H     H_    0.797930 0.316754 0.285523 0.214651
H35   H     H_    0.056167 0.881089 0.789028 0.239556
H36   H     H_    0.659640 0.731065 0.192506 0.259506
H37   H     H_    0.565770 0.634341 0.330738 0.215285
H38   H     H_    0.504115 0.710459 0.233033 0.284712
H39   H     H_    0.519434 0.733270 0.410026 0.224127
H40   H     H_    0.702286 0.211550 0.173496 0.245577
H41   H     H_    0.603883 0.341001 0.220365 0.219777
H42   H     H_    0.533453 0.267029 0.315729 0.254037
H43   H     H_    0.550246 0.248372 0.137031 0.257984
H44   H     H_    0.159260 0.230638 0.192829 0.259268
H45   H     H_    0.195048 0.989813 0.883085 0.147926
H46   H     H_    0.065419 0.134347 0.331921 0.215249
H47   H     H_    0.003770 0.210340 0.233891 0.284632
H48   H     H_    0.019288 0.233554 0.410743 0.223939
H49   H     H_    0.202220 0.711631 0.173496 0.245611
H50   H     H_    0.103771 0.841040 0.220457 0.219772
H51   H     H_    0.033377 0.767017 0.315787 0.254032
H52   H     H_    0.050166 0.748409 0.137079 0.258003
H53   H     H_    0.695048 0.489783 0.883086 0.147926
H54   H     H_    0.332054 0.999547 0.757802 0.200342
H55   H     H_    0.832053 0.499533 0.757804 0.200332
H56   H     H_    0.638885 0.006121 0.871538 0.143326
N1    N     N_R   0.498810 1.000000 0.142780 -0.118472
N2    N     N_2   0.659057 0.216980 0.254791 -0.289350
N3    N     N_2   0.132330 0.251755 0.284623 -0.271136
N4    N     N_2   0.158998 0.717031 0.254803 -0.289338
N5    N     N_R   0.998810 0.500000 0.142780 -0.118482
N6    N     N_R   0.498740 0.000000 0.857170 -0.127044
N7    N     N_R   0.998740 0.500000 0.857170 -0.127051
N8    N     N_2   0.759579 0.982490 0.646042 -0.293563
N9    N     N_2   0.567098 0.244054 0.755463 -0.276784
N10   N     N_2   0.259572 0.482510 0.645887 -0.293590
N11   N     N_2   0.067031 0.744062 0.755439 -0.276774
N12   N     N_2   0.632564 0.751945 0.284324 -0.271201
O1    O     O_R   0.408390 0.908380 0.614690 -0.645448
O2    O     O_R   0.591620 0.908390 0.614640 -0.611529
O3    O     O_R   0.091620 0.591610 0.614640 -0.606795
O4    O     O_R   0.091620 0.408390 0.614640 -0.611600
O5    O     O_R   0.591610 0.091610 0.385310 -0.590727
O6    O     O_R   0.591610 0.908390 0.385310 -0.584785
O7    O     O_R   0.091610 0.591610 0.385310 -0.590704
O8    O     O_R   0.091610 0.408390 0.385310 -0.584742
O9    O     O_R   0.408390 0.091620 0.614690 -0.654621
O10   O     O_R   0.908390 0.408380 0.614690 -0.645440
O11   O     O_R   0.908390 0.591620 0.614690 -0.654587
O12   O     O_R   0.408370 0.908380 0.385360 -0.632599
O13   O     O_R   0.408370 0.091620 0.385360 -0.628911
O14   O     O_R   0.908370 0.408380 0.385360 -0.632600
O15   O     O_R   0.908370 0.591620 0.385360 -0.628948
O16   O     O_R   0.591620 0.091610 0.614640 -0.606744
Zn1   Zn    Zn3+2 0.500010 0.000000 0.653130 0.940711
Zn2   Zn    Zn3+2 0.000010 0.500000 0.653130 0.940691
Zn3   Zn    Zn3+2 0.499980 1.000000 0.346870 0.975443
Zn4   Zn    Zn3+2 0.999980 0.500000 0.346870 0.975485

loop_
_geom_bond_atom_site_label_1
_geom_bond_atom_site_label_2
_ccdc_geom_bond_type
C20   N1    A    
C15   H53   S    
C11   C14   A    
C40   C44   A    
Br3   C38   S    
C9    H14   S    
C4    N4    S    
H18   N8    S    
C40   H7    S    
C49   C55   A    
C53   C58   A    
C66   H38   S    
C23   O14   A    
C3    C7    A    
O6    Zn3   S    
C55   C60   A    
C46   C50   A    
C64   H30   S    
C56   C59   A    
C62   H21   S    
C19   N7    A    
C15   C17   A    
C34   O15   A    
C32   C54   A    
C67   C72   A    
C26   O6    A    
H40   N2    S    
Br2   C37   S    
C30   N7    A    
C1    C59   S    
C60   C67   A    
C33   C38   A    
C17   H55   S    
Br1   C36   S    
C11   H16   S    
C65   H33   S    
C70   H52   S    
C69   N3    S    
O12   Zn3   S    
C52   C54   A    
C22   H11   S    
C69   H47   S    
C70   N4    S    
C68   H41   S    
C64   N10   S    
C24   H13   S    
O5    Zn3   S    
C5    C72   A    
O13   Zn3   S    
C47   C51   A    
C46   N9    S    
O14   Zn4   S    
C42   H9    S    
C27   O3    A    
C23   O10   A    
C24   C30   A    
O11   Zn2   S    
C10   C13   A    
C33   H5    S    
C32   C37   A    
C38   C40   A    
C34   O11   A    
N1    Zn3   S    
C65   H32   S    
C26   O2    A    
C25   O16   A    
C34   C60   S    
C66   H37   S    
C56   H12   S    
C44   C49   A    
C35   C57   A    
O2    Zn1   S    
C48   N11   S    
C1    O1    A    
C44   N8    S    
C43   H10   S    
C2    C71   A    
C3    C45   A    
C32   H4    S    
C29   H56   S    
C67   H23   S    
C42   C47   A    
C9    C20   A    
O9    Zn1   S    
C21   N5    A    
C3    N3    S    
C23   C61   S    
C27   O7    A    
C22   C29   A    
C68   N2    S    
C70   H51   S    
C28   O8    A    
C9    C11   A    
C29   N6    A    
C4    C8    A    
C69   H48   S    
C37   C43   A    
C62   N8    S    
C8    C52   A    
C39   C41   A    
C33   C55   A    
C63   H24   S    
C5    C26   S    
H49   N4    S    
C50   C57   A    
C16   C18   A    
C7    C28   S    
O7    Zn4   S    
C51   C53   A    
H22   N9    S    
C18   C20   A    
C41   H8    S    
C13   H17   S    
C64   H29   S    
C36   C42   A    
H31   N11   S    
C63   N9    S    
H27   N10   S    
C72   N12   S    
C7    C51   A    
C63   H25   S    
C62   H20   S    
C47   N10   S    
C54   C59   A    
C71   H34   S    
C45   C58   A    
C12   O13   A    
O10   Zn2   S    
N7    Zn2   S    
C24   N5    A    
C64   H28   S    
C35   H6    S    
C16   H54   S    
O8    Zn4   S    
O3    Zn2   S    
C2    C6    A    
N5    Zn4   S    
C35   C39   A    
C43   C48   A    
C28   O4    A    
Br4   C39   S    
C66   H39   S    
C65   N11   S    
C1    O12   A    
C18   N6    A    
C66   N12   S    
C61   C71   A    
C31   C53   A    
H44   N3    S    
O4    Zn2   S    
O16   Zn1   S    
H36   N12   S    
C17   C19   A    
C31   C36   A    
C8    C27   S    
C22   N1    A    
C30   H2    S    
C65   H35   S    
C6    C25   S    
C70   H50   S    
O1    Zn1   S    
C41   C46   A    
C68   H43   S    
C31   H3    S    
C13   C15   A    
C45   H1    S    
N6    Zn1   S    
C14   C16   A    
C19   C21   A    
C10   C21   A    
C6    C50   A    
C10   H15   S    
C14   H45   S    
C25   O5    A    
C57   C61   A    
C5    C49   A    
C2    N2    S    
C69   H46   S    
C68   H42   S    
C12   O9    A    
O15   Zn4   S    
C12   C58   S    
C4    C56   A    
C48   C52   A    
C63   H26   S    
C62   H19   S    
