data_mof_unit_12523.cif
_audit_creation_date              2012-10-26T20:03:40-0400
_audit_creation_method            fapswitch 2.2
_symmetry_space_group_name_H-M    P1
_symmetry_Int_Tables_number       1
_space_group_crystal_system       triclinic
_cell_length_a                    12.417202
_cell_length_b                    12.982642
_cell_length_c                    15.861477
_cell_angle_alpha                 76.971523
_cell_angle_beta                  101.138551
_cell_angle_gamma                 116.256724
_cell_volume                      2221.32346228

loop_
_atom_site_label
_atom_site_type_symbol
_atom_type_description
_atom_site_fract_x
_atom_site_fract_y
_atom_site_fract_z
_atom_type_partial_charge
C1    C     C_R   0.855269 0.285108 0.510117 0.547407
C2    C     C_R   0.227563 0.841206 0.475817 -0.066545
C3    C     C_R   0.808108 0.079410 0.583569 0.246038
C4    C     C_R   0.999340 0.499236 0.659826 0.537184
C5    C     C_R   0.721076 0.979495 0.626520 0.109637
C6    C     C_R   0.597841 0.954183 0.604858 0.223918
C7    C     C_R   0.559934 0.019040 0.529678 0.008457
C8    C     C_R   0.648943 0.123745 0.490140 -0.057082
C9    C     C_R   0.436819 0.986388 0.494074 -0.010291
C10   C     C_R   0.403598 0.067660 0.432280 0.019154
C11   C     C_R   0.492935 0.168847 0.393627 -0.123211
C12   C     C_3   0.996371 0.493703 0.916696 0.035278
C13   C     C_R   0.613185 0.191593 0.417678 -0.115588
C14   C     C_R   0.347993 0.872482 0.511753 -0.156510
C15   C     C_R   0.193839 0.929010 0.424277 0.087764
C16   C     C_R   0.144860 0.715260 0.487343 0.539508
C17   C     C_R   0.772045 0.159717 0.523944 -0.051451
C18   C     C_R   0.345824 0.324652 0.638182 -0.165780
C19   C     C_R   0.748144 0.631458 0.373128 0.264867
C20   C     C_R   0.640049 0.638767 0.336517 -0.155564
C21   C     C_R   0.539208 0.581203 0.380799 -0.156824
C22   C     C_R   0.545057 0.521222 0.465695 -0.018160
C23   C     C_3   0.069749 0.606102 0.018428 -0.155970
C24   C     C_R   0.652909 0.503330 0.496619 0.110993
C25   C     C_R   0.444046 0.469105 0.516892 -0.058280
C26   C     C_R   0.445483 0.383557 0.590025 -0.026042
C27   C     C_R   0.547323 0.358547 0.615718 0.222871
C28   C     C_R   0.000213 0.499970 0.340206 0.533330
C29   C     C_R   0.649067 0.419265 0.570480 -0.076991
C30   C     C_R   0.342363 0.499129 0.500981 0.204249
C31   C     C_R   0.247101 0.354167 0.618205 0.380092
C32   C     C_3   0.042082 0.421955 0.048439 0.299623
C33   C     C_3   0.926542 0.385471 0.982462 -0.146958
C34   C     C_3   0.000433 0.497934 0.084050 0.054590
C35   C     C_1   0.997817 0.497269 0.749413 -0.045834
C36   C     C_1   0.000281 0.499060 0.250834 -0.033528
C37   C     C_3   0.109637 0.528154 0.982943 0.096957
C38   C     C_3   0.959911 0.041967 0.558250 0.027767
C39   C     C_3   0.071845 0.025448 0.604479 -0.358674
C40   C     C_3   0.484911 0.919178 0.713672 -0.008079
C41   C     C_3   0.390481 0.824381 0.769717 -0.378622
C42   C     C_3   0.175728 0.294142 0.754202 0.004450
C43   C     C_3   0.138245 0.169717 0.801965 -0.388758
C44   C     C_3   0.611607 0.317287 0.758443 -0.015254
C45   C     C_3   0.955077 0.569191 0.952540 0.124647
C46   C     C_3   0.605368 0.218970 0.833362 -0.382147
C47   C     C_3   0.102659 0.275652 0.055966 -0.020622
C48   C     C_3   0.170060 0.207756 0.113975 -0.356480
C49   C     C_3   0.241003 0.198859 0.396108 -0.025036
C50   C     C_3   0.204591 0.289206 0.334730 -0.355890
C51   C     C_3   0.887305 0.463891 0.018009 0.113788
C52   C     C_1   0.996829 0.495364 0.825012 -0.043879
C53   C     C_1   0.000410 0.498315 0.175526 -0.016154
C54   C     C_R   0.281384 0.042333 0.404290 0.300925
Cu1   Cu    Cu3+1 0.098270 0.475420 0.519690 1.025618
Cu2   Cu    Cu3+1 0.901730 0.524580 0.480310 0.945791
H1    H     H_    0.867379 0.296702 0.967483 0.083033
H2    H     H_    0.979049 0.093169 0.492277 0.125416
H3    H     H_    0.887469 0.953469 0.550932 0.123211
H4    H     H_    0.055353 0.977993 0.671647 0.162900
H5    H     H_    0.093965 0.974226 0.568665 0.090749
H6    H     H_    0.149849 0.110846 0.607317 0.164766
H7    H     H_    0.445367 0.979776 0.675219 0.161082
H8    H     H_    0.564968 0.967653 0.757307 0.130256
H9    H     H_    0.427495 0.763202 0.810212 0.163232
H10   H     H_    0.364547 0.863918 0.813156 0.087430
H11   H     H_    0.308818 0.775498 0.727735 0.161655
H12   H     H_    0.373385 0.804061 0.547252 0.213290
H13   H     H_    0.729637 0.905140 0.752997 0.240826
H14   H     H_    0.718753 0.822017 0.680698 0.246235
H15   H     H_    0.123222 0.332192 0.775706 0.162212
H16   H     H_    0.272611 0.347261 0.774842 0.096827
H17   H     H_    0.189993 0.128467 0.783649 0.132182
H18   H     H_    0.156177 0.169710 0.873332 0.084277
H19   H     H_    0.040273 0.117999 0.785276 0.200358
H20   H     H_    0.572624 0.370650 0.776893 0.136170
H21   H     H_    0.708387 0.372024 0.748564 0.142091
H22   H     H_    0.647071 0.166264 0.817972 0.146901
H23   H     H_    0.677988 0.264111 0.379010 0.145193
H24   H     H_    0.654871 0.255332 0.893522 0.094966
H25   H     H_    0.509756 0.162134 0.844709 0.147958
H26   H     H_    0.306035 0.582736 0.380335 0.223874
H27   H     H_    0.428558 0.670755 0.445443 0.218641
H28   H     H_    0.826912 0.656813 0.266477 0.222264
H29   H     H_    0.858897 0.777622 0.305377 0.193531
H30   H     H_    0.153816 0.326178 0.998845 0.160682
H31   H     H_    0.011680 0.212161 0.033298 0.121064
H32   H     H_    0.119115 0.152856 0.170101 0.193872
H33   H     H_    0.180126 0.150643 0.076296 0.091233
H34   H     H_    0.344407 0.255879 0.691806 0.146070
H35   H     H_    0.261187 0.268641 0.138501 0.171014
H36   H     H_    0.708274 0.416208 0.980425 0.234429
H37   H     H_    0.740540 0.353868 0.080949 0.220953
H38   H     H_    0.886704 0.688254 0.940838 0.238590
H39   H     H_    0.971122 0.711687 0.861859 0.221847
H40   H     H_    0.289373 0.581040 0.019669 0.238197
H41   H     H_    0.254382 0.638552 0.918129 0.220072
H42   H     H_    0.013770 0.867763 0.429112 0.245287
H43   H     H_    0.057899 0.845485 0.340570 0.258816
H44   H     H_    0.329680 0.245487 0.432916 0.132808
H45   H     H_    0.456559 0.579514 0.344370 0.111225
H46   H     H_    0.171879 0.149340 0.442498 0.136798
H47   H     H_    0.115490 0.245738 0.297725 0.186223
H48   H     H_    0.197686 0.347690 0.372684 0.125820
H49   H     H_    0.273280 0.342017 0.288474 0.162669
H50   H     H_    0.633537 0.687002 0.271831 0.097919
H51   H     H_    0.721382 0.393598 0.593609 0.189416
H52   H     H_    0.127683 0.695529 0.032594 0.099493
H53   H     H_    0.470263 0.227735 0.340909 0.149237
N1    N     N_R   0.246280 0.438200 0.549540 -0.193583
N2    N     N_R   0.754330 0.561180 0.450980 -0.203313
N3    N     N_3   0.759751 0.906539 0.695430 -0.595855
N4    N     N_3   0.343252 0.601239 0.442900 -0.570409
N5    N     N_3   0.849259 0.691695 0.324085 -0.570322
N6    N     N_3   0.765980 0.432557 0.037966 -0.620505
N7    N     N_3   0.903985 0.647060 0.898892 -0.617033
N8    N     N_3   0.231267 0.561330 0.962692 -0.642791
N9    N     N_3   0.074737 0.903816 0.382261 -0.599886
O1    O     O_R   0.972510 0.318130 0.524770 -0.416716
O2    O     O_3   0.517294 0.867298 0.659236 -0.584152
O3    O     O_3   0.146026 0.293977 0.663238 -0.484785
O4    O     O_3   0.545574 0.269193 0.683142 -0.581958
O5    O     O_3   0.092359 0.349299 0.104132 -0.563656
O6    O     O_3   0.247893 0.123764 0.347366 -0.555483
O7    O     O_R   0.806530 0.359650 0.491510 -0.535744
O8    O     O_R   0.082970 0.479240 0.637550 -0.463778
O9    O     O_R   0.916990 0.520750 0.604290 -0.527052
O10   O     O_R   0.193470 0.640350 0.508490 -0.468374
O11   O     O_R   0.027490 0.681870 0.475230 -0.480718
O12   O     O_R   0.083010 0.479250 0.395710 -0.509782
O13   O     O_R   0.917030 0.520760 0.362450 -0.476695
O14   O     O_3   0.928784 0.102423 0.606494 -0.487367

loop_
_geom_bond_atom_site_label_1
_geom_bond_atom_site_label_2
_ccdc_geom_bond_type
C43   H17   S    
Cu1   Cu2   S    
C13   H23   S    
C50   H48   S    
C8    C13   A    
C23   C45   S    
C11   H53   S    
H27   N4    S    
C19   C20   A    
C18   C26   A    
C7    C8    A    
C41   H11   S    
Cu1   O1    S    
C34   C51   S    
C40   H7    S    
C30   N1    A    
C44   H21   S    
C1    O7    A    
H37   N6    S    
C38   C39   S    
H13   N3    S    
C27   C29   A    
C45   C51   S    
C1    O1    A    
Cu2   O9    S    
C12   C37   S    
C44   H20   S    
C24   C29   A    
C36   C53   T    
C32   C34   S    
C38   H2    S    
C22   C25   A    
C50   H49   S    
H28   N5    S    
C48   H32   S    
C2    C16   S    
C9    C10   A    
Cu2   N2    S    
Cu2   O11   S    
C21   H45   S    
C23   C34   S    
C43   H18   S    
C4    C35   S    
C50   H47   S    
C21   C22   A    
C32   O5    S    
C24   N2    A    
C2    C14   A    
C6    O2    S    
C12   C52   S    
C27   O4    S    
C44   C46   S    
H42   N9    S    
C20   H50   S    
C43   H19   S    
C39   H5    S    
C3    O14   S    
C18   H34   S    
C47   H30   S    
H40   N8    S    
C31   O3    S    
C49   H46   S    
C46   H22   S    
H38   N7    S    
C41   H9    S    
C19   N5    S    
C25   C26   A    
C32   C37   S    
C49   O6    S    
C48   H35   S    
C51   N6    S    
C47   H31   S    
C9    C14   A    
C15   C54   A    
C2    C15   A    
C46   H25   S    
C47   O5    S    
C47   C48   S    
Cu1   O8    S    
H39   N7    S    
Cu1   O12   S    
C42   H16   S    
C26   C27   A    
Cu2   O7    S    
Cu1   O10   S    
C16   O11   A    
C16   O10   A    
C41   H10   S    
H14   N3    S    
C40   C41   S    
C40   O2    S    
C23   H52   S    
C48   H33   S    
Cu1   N1    S    
C22   C24   A    
C42   C43   S    
C25   C30   A    
C7    C9    A    
C39   H6    S    
C54   O6    S    
H29   N5    S    
C33   H1    S    
C4    O9    A    
H26   N4    S    
C12   C45   S    
C3    C5    A    
C6    C7    A    
C5    N3    S    
C19   N2    A    
C33   C51   S    
C1    C17   S    
C8    C17   A    
C40   H8    S    
C15   N9    S    
C4    O8    A    
C28   O13   A    
C32   C33   S    
C23   C37   S    
H43   N9    S    
C46   H24   S    
C11   C13   A    
C45   N7    S    
C5    C6    A    
C39   H4    S    
C44   O4    S    
C42   H15   S    
C31   N1    A    
C3    C17   A    
C28   O12   A    
H41   N8    S    
C10   C54   A    
H36   N6    S    
Cu2   O13   S    
C10   C11   A    
C38   H3    S    
C37   N8    S    
C20   C21   A    
C28   C36   S    
C34   C53   S    
C49   C50   S    
C35   C52   T    
C14   H12   S    
C29   H51   S    
C18   C31   A    
C12   C33   S    
C42   O3    S    
C38   O14   S    
C49   H44   S    
C30   N4    S    
