data_mof_unit_29145.cif
_audit_creation_date              2012-12-10T19:42:58-0500
_audit_creation_method            fapswitch 2.2
_symmetry_space_group_name_H-M    P1
_symmetry_Int_Tables_number       1
_space_group_crystal_system       triclinic
_cell_length_a                    10.792696
_cell_length_b                    13.09404
_cell_length_c                    11.668737
_cell_angle_alpha                 98.844217
_cell_angle_beta                  94.256376
_cell_angle_gamma                 90.959552
_cell_volume                      1624.2613544

loop_
_atom_site_label
_atom_site_type_symbol
_atom_type_description
_atom_site_fract_x
_atom_site_fract_y
_atom_site_fract_z
_atom_type_partial_charge
C1    C     C_R   0.495366 0.299591 0.479777 0.823525
C2    C     C_R   0.504603 0.700409 0.520220 0.823744
C3    C     C_R   0.871546 0.497654 0.500915 -0.041292
C4    C     C_R   0.128460 0.502378 0.499103 -0.040883
C5    C     C_R   0.943584 0.446060 0.579007 0.148413
C6    C     C_R   0.056429 0.554001 0.421034 0.148192
C7    C     C_R   0.504049 0.812915 0.530310 -0.121368
C8    C     C_R   0.495837 0.187081 0.469668 -0.121240
C9    C     C_R   0.554794 0.026461 0.359729 -0.103675
C10   C     C_R   0.444980 0.973521 0.640204 -0.103815
C11   C     C_R   0.540145 0.131790 0.369662 -0.140385
C12   C     C_R   0.459663 0.868195 0.630284 -0.140842
C13   C     C_R   0.461015 0.135112 0.560500 -0.070452
C14   C     C_R   0.538842 0.864884 0.439466 -0.070520
C15   C     C_R   0.476370 0.027501 0.550782 0.083647
C16   C     C_R   0.523439 0.972488 0.449167 0.083582
C17   C     C_R   0.371175 0.412589 0.023652 0.553859
C18   C     C_R   0.628821 0.587415 0.976348 0.553926
C19   C     C_R   0.385616 0.418955 0.145302 0.697157
C20   C     C_R   0.614382 0.581047 0.854699 0.697200
C21   C     C_R   0.557734 0.535529 0.155992 0.008528
C22   C     C_R   0.442265 0.464472 0.844008 0.008481
C23   C     C_R   0.262315 0.501571 0.499841 0.831666
C24   C     C_R   0.737688 0.498433 0.500161 0.831173
C25   C     C_R   0.547451 0.531093 0.033494 -0.235416
C26   C     C_R   0.452547 0.468909 0.966506 -0.235460
C27   C     C_R   0.219743 0.763706 0.288547 -0.209557
C28   C     C_R   0.780186 0.236287 0.711309 -0.209552
C29   C     C_R   0.164918 0.714857 0.372644 -0.090269
C30   C     C_R   0.835111 0.285152 0.627274 -0.090402
C31   C     C_R   0.112397 0.613271 0.338273 -0.214143
C32   C     C_R   0.887621 0.386735 0.661717 -0.214152
C33   C     C_R   0.111105 0.566443 0.221134 0.645750
C34   C     C_R   0.888848 0.433525 0.778863 0.645808
C35   C     C_R   0.164055 0.617520 0.139397 0.596599
C36   C     C_R   0.835829 0.382421 0.860540 0.596533
C37   C     C_R   0.219701 0.715227 0.173415 -0.279936
C38   C     C_R   0.780162 0.284731 0.826450 -0.279976
C39   C     C_R   0.928011 0.550160 0.422120 -0.101835
C40   C     C_R   0.071999 0.449896 0.577917 -0.101406
Cu1   Cu    Cu3+1 0.509250 0.507730 0.615930 1.038935
Cu2   Cu    Cu3+1 0.490750 0.492270 0.384070 1.038884
H1    H     H_    0.261750 0.754263 0.110070 0.218935
H2    H     H_    0.738052 0.245678 0.889750 0.218972
H3    H     H_    0.369854 0.417046 0.791416 0.229164
H4    H     H_    0.630144 0.582956 0.208585 0.229149
H5    H     H_    0.262424 0.840290 0.311617 0.224453
H6    H     H_    0.737506 0.159707 0.688194 0.224544
H7    H     H_    0.872022 0.590160 0.362865 0.186195
H8    H     H_    0.127987 0.409890 0.637166 0.186145
H9    H     H_    0.431360 0.829182 0.699957 0.176724
H10   H     H_    0.568437 0.170796 0.299980 0.176704
H11   H     H_    0.593192 0.988754 0.281767 0.180735
H12   H     H_    0.406547 0.011224 0.718150 0.180755
N1    N     N_R   0.523180 0.519350 0.790130 -0.300482
N2    N     N_R   0.476820 0.480650 0.209870 -0.300471
O1    O     O_R   0.506570 0.354460 0.582000 -0.596182
O2    O     O_R   0.493430 0.645540 0.418000 -0.596210
O3    O     O_R   0.490940 0.341410 0.386200 -0.540470
O4    O     O_R   0.509060 0.658590 0.613800 -0.540351
O5    O     O_R   0.327460 0.506540 0.597900 -0.581242
O6    O     O_R   0.672540 0.493460 0.402100 -0.581298
O7    O     O_R   0.311830 0.493480 0.402100 -0.543493
O8    O     O_R   0.688170 0.506520 0.597900 -0.543447
F1    F     F_    0.692602 0.637079 0.801370 -0.574251
F2    F     F_    0.307394 0.362924 0.198630 -0.574258
F3    F     F_    0.277251 0.352657 0.962728 -0.588485
F4    F     F_    0.722740 0.647352 0.037274 -0.588491
C41   C     C_2   0.160882 0.773638 0.492606 0.875522
O9    O     O_2   0.185069 0.866614 0.510677 -0.573520
O10   O     O_R   0.129093 0.724689 0.585056 -0.753159
H13   H     H_    0.130676 0.773814 0.661347 0.361975
C42   C     C_2   0.839276 0.226386 0.507313 0.875605
O11   O     O_2   0.814404 0.133525 0.489061 -0.573925
O12   O     O_R   0.872048 0.275202 0.415078 -0.752703
H14   H     H_    0.870517 0.226089 0.338780 0.362160
F5    F     F_    0.058772 0.470584 0.186359 -0.530749
F6    F     F_    0.941179 0.529378 0.813701 -0.530734
F7    F     F_    0.161220 0.572251 0.026581 -0.561589
F8    F     F_    0.838607 0.427648 0.973368 -0.561710
C43   C     C_2   0.592398 0.807789 0.335627 0.857919
O13   O     O_2   0.691962 0.765679 0.346219 -0.568935
O14   O     O_R   0.528204 0.802512 0.226246 -0.781788
H15   H     H_    0.575196 0.764519 0.161587 0.363048
C44   C     C_2   0.407496 0.192219 0.664352 0.857879
O15   O     O_2   0.307971 0.234389 0.653775 -0.568991
O16   O     O_R   0.471680 0.197439 0.773730 -0.781745
H16   H     H_    0.424715 0.235451 0.838396 0.363069

loop_
_geom_bond_atom_site_label_1
_geom_bond_atom_site_label_2
_ccdc_geom_bond_type
C19   N2    A    
O16   H16   S    
C8    C13   A    
C27   C29   A    
C1    C8    S    
C42   O11   D    
C2    C7    S    
Cu1   O5    S    
Cu2   O2    S    
C43   O13   D    
C44   O15   D    
C17   C26   A    
C35   C37   A    
C9    C16   A    
C10   C15   A    
C1    O3    A    
C33   C35   A    
C2    O4    A    
C18   F4    S    
C15   C16   A    
C19   F2    S    
Cu1   Cu2   S    
C35   F7    S    
C41   O10   S    
Cu1   N1    S    
C11   H10   S    
Cu2   N2    S    
C7    C14   A    
C4    C40   A    
C31   C33   A    
Cu2   O6    S    
C34   C36   A    
C5    C32   S    
C23   O7    A    
C6    C31   S    
C3    C39   A    
C24   O8    A    
C42   O12   S    
C3    C24   S    
C18   C25   A    
C20   N1    A    
C43   O14   S    
C29   C41   S    
C44   O16   S    
C7    C12   A    
C17   F3    S    
C20   F1    S    
C4    C6    A    
C36   F8    S    
C4    C23   S    
C25   C26   A    
C32   C34   A    
C37   H1    S    
O12   H14   S    
C38   H2    S    
C1    O1    A    
O14   H15   S    
C28   C38   A    
C9    C11   A    
C10   C12   A    
C39   H7    S    
C13   C15   A    
C14   C16   A    
C9    H11   S    
C12   H9    S    
C21   H4    S    
C27   H5    S    
C30   C42   S    
C21   C25   A    
C28   H6    S    
C24   O6    A    
Cu1   O4    S    
C3    C5    A    
Cu2   O3    S    
C21   N2    A    
C2    O2    A    
C22   N1    A    
C14   C43   S    
C28   C30   A    
Cu1   O1    S    
O10   H13   S    
C29   C31   A    
C34   F6    S    
C30   C32   A    
C33   F5    S    
C27   C37   A    
C8    C11   A    
C40   H8    S    
C36   C38   A    
C17   C19   A    
C18   C20   A    
C41   O9    D    
C10   H12   S    
C23   O5    A    
C22   H3    S    
C22   C26   A    
C5    C40   A    
C13   C44   S    
C6    C39   A    
Cu1   O8    S    
Cu2   O7    S    
