data_mof_unit_32280.cif
_audit_creation_date              2012-12-11T16:14:00-0500
_audit_creation_method            fapswitch 2.2
_symmetry_space_group_name_H-M    P1
_symmetry_Int_Tables_number       1
_space_group_crystal_system       triclinic
_cell_length_a                    26.079608
_cell_length_b                    7.264446
_cell_length_c                    23.692402
_cell_angle_alpha                 90.155309
_cell_angle_beta                  101.192527
_cell_angle_gamma                 89.761161
_cell_volume                      4403.20016769

loop_
_atom_site_label
_atom_site_type_symbol
_atom_type_description
_atom_site_fract_x
_atom_site_fract_y
_atom_site_fract_z
_atom_type_partial_charge
O1    O     O_R   0.192370 0.384760 0.193350 -0.530047
O2    O     O_R   0.807630 0.615240 0.806650 -0.528731
O3    O     O_R   0.307630 0.884760 0.306650 -0.533909
O4    O     O_R   0.692370 0.115240 0.693350 -0.532089
O5    O     O_R   0.296630 0.711620 0.196480 -0.538540
O6    O     O_R   0.703370 0.288380 0.803520 -0.540101
O7    O     O_R   0.203370 0.211620 0.303520 -0.534135
O8    O     O_R   0.796630 0.788380 0.696480 -0.533764
C1    C     C_R   0.310674 0.544609 0.182371 0.703680
C2    C     C_R   0.685727 0.454708 0.813487 0.704746
C3    C     C_R   0.188963 0.045728 0.317348 0.695304
C4    C     C_R   0.813970 0.953546 0.686091 0.697987
O9    O     O_R   0.192080 0.714290 0.186600 -0.534693
O10   O     O_R   0.807920 0.285710 0.813400 -0.537861
O11   O     O_R   0.307920 0.214290 0.313400 -0.533128
O12   O     O_R   0.692080 0.785710 0.686600 -0.533482
O13   O     O_R   0.202340 0.887460 0.296690 -0.539547
O14   O     O_R   0.797660 0.112540 0.703310 -0.539320
O15   O     O_R   0.297660 0.387460 0.203310 -0.539625
O16   O     O_R   0.702340 0.612540 0.796690 -0.537347
C5    C     C_R   0.173659 0.546011 0.171439 0.718646
C6    C     C_R   0.826413 0.453951 0.828456 0.713156
C7    C     C_R   0.326112 0.045733 0.328842 0.716763
C8    C     C_R   0.673589 0.954154 0.671546 0.712546
O17   O     O_3   0.253490 0.552180 0.286130 -0.375719
O18   O     O_3   0.746510 0.447820 0.713870 -0.372910
O19   O     O_3   0.246510 0.052180 0.213870 -0.379280
O20   O     O_3   0.753490 0.947820 0.786130 -0.375698
V1    V     V_3+5 0.249350 0.825920 0.243300 1.394347
V2    V     V_3+5 0.750650 0.174080 0.756700 1.395480
V3    V     V_3+5 0.250650 0.325920 0.256700 1.402932
V4    V     V_3+5 0.749350 0.674080 0.743300 1.407617
C9    C     C_3   0.541789 0.001581 0.477872 -0.134221
C10   C     C_3   0.456034 0.997284 0.524909 -0.138322
C11   C     C_3   0.958128 0.539193 0.020616 -0.134060
C12   C     C_3   0.043504 0.460527 0.977289 -0.137214
C13   C     C_3   0.500300 0.157351 0.472413 -0.136003
C14   C     C_3   0.497569 0.841492 0.530404 -0.139491
C15   C     C_3   0.004484 0.671857 0.020240 -0.137742
C16   C     C_3   0.997113 0.327852 0.977637 -0.139025
H1    H     H_    0.501203 0.287878 0.448366 0.109780
H2    H     H_    0.496714 0.711051 0.554515 0.107094
H3    H     H_    0.007726 0.813945 0.037926 0.109826
H4    H     H_    0.993857 0.185815 0.959903 0.108057
H5    H     H_    0.577368 0.003217 0.458666 0.113619
H6    H     H_    0.420416 0.995633 0.544052 0.110080
H7    H     H_    0.922701 0.571496 0.038301 0.113678
H8    H     H_    0.078970 0.428255 0.959667 0.109558
H9    H     H_    0.501631 0.260388 0.567816 0.108807
H10   H     H_    0.496269 0.738424 0.435032 0.109706
H11   H     H_    0.007107 0.717728 0.921693 0.109532
H12   H     H_    0.994423 0.281943 0.076129 0.110571
C17   C     C_1   0.371468 0.035920 0.375262 -0.177883
C18   C     C_1   0.627455 0.963600 0.626124 -0.179609
C19   C     C_1   0.128159 0.536729 0.125174 -0.180060
C20   C     C_1   0.872501 0.463063 0.873963 -0.182395
C21   C     C_3   0.497594 0.856474 0.465130 -0.135348
C22   C     C_3   0.500271 0.142395 0.537684 -0.136535
C23   C     C_3   0.997188 0.380488 0.041124 -0.137485
C24   C     C_3   0.004400 0.619240 0.956740 -0.139290
C25   C     C_3   0.456708 0.012095 0.460246 0.166141
C26   C     C_3   0.541159 0.986778 0.542528 0.166512
C27   C     C_3   0.042941 0.512983 0.040174 0.167383
C28   C     C_3   0.958649 0.486733 0.957738 0.167271
C29   C     C_1   0.409700 0.025814 0.413750 -0.064047
C30   C     C_1   0.588605 0.973331 0.588436 -0.065264
C31   C     C_1   0.089900 0.526818 0.086721 -0.063707
C32   C     C_1   0.911288 0.472899 0.911730 -0.061271
C33   C     C_R   0.906457 0.033449 0.673257 0.113649
C34   C     C_R   0.166859 0.941982 0.413132 0.114944
C35   C     C_R   0.598350 0.582930 0.830314 0.126527
C36   C     C_R   0.333987 0.410318 0.090823 0.128022
C37   C     C_R   0.944557 0.037954 0.636706 0.144443
C38   C     C_R   0.129692 0.936468 0.450819 0.143291
C39   C     C_R   0.561221 0.599824 0.867585 0.119157
C40   C     C_R   0.372099 0.386178 0.055118 0.122413
C41   C     C_R   0.930031 0.977972 0.578454 -0.010479
C42   C     C_R   0.079485 0.018985 0.432740 -0.011317
C43   C     C_R   0.567739 0.490994 0.918571 -0.035118
C44   C     C_R   0.418421 0.495222 0.065685 -0.038575
C45   C     C_R   0.880424 0.902880 0.558969 -0.166035
C46   C     C_R   0.068555 0.116029 0.380869 -0.169932
C47   C     C_R   0.611362 0.375163 0.932659 -0.170135
C48   C     C_R   0.427028 0.617038 0.112501 -0.170957
H13   H     H_    0.869489 0.853159 0.515137 0.139639
H14   H     H_    0.030949 0.182812 0.367436 0.140971
H15   H     H_    0.616717 0.291461 0.971159 0.146498
H16   H     H_    0.461892 0.701202 0.121005 0.147388
C49   C     C_R   0.843951 0.893996 0.594747 -0.192671
C50   C     C_R   0.104924 0.125310 0.345021 -0.194421
C51   C     C_R   0.648427 0.363676 0.897735 -0.209620
C52   C     C_R   0.391293 0.633476 0.148891 -0.207962
H17   H     H_    0.805704 0.837024 0.577821 0.124182
H18   H     H_    0.094597 0.199406 0.304749 0.124711
H19   H     H_    0.681994 0.274319 0.910731 0.133038
H20   H     H_    0.400024 0.726278 0.185352 0.128666
C53   C     C_R   0.855552 0.961922 0.651081 -0.089222
C54   C     C_R   0.153364 0.036213 0.359404 -0.090495
C55   C     C_R   0.643222 0.467095 0.847219 -0.081383
C56   C     C_R   0.345238 0.530537 0.139411 -0.081864
N1    N     N_R   0.983134 0.834548 0.514183 -0.276031
N2    N     N_R   0.019390 0.164414 0.488739 -0.277806
N3    N     N_R   0.477077 0.482983 0.935287 -0.297330
N4    N     N_R   0.509879 0.498006 0.049934 -0.287827
N5    N     N_R   0.018367 0.843872 0.480266 -0.288426
N6    N     N_R   0.984449 0.155002 0.522995 -0.287903
N7    N     N_R   0.442260 0.484553 0.969581 -0.296289
N8    N     N_R   0.544824 0.497144 0.015513 -0.286506
C57   C     C_R   0.037794 0.008761 0.467555 0.510190
C58   C     C_R   0.966180 0.989754 0.537084 0.510818
C59   C     C_R   0.457764 0.490777 0.027616 0.513557
C60   C     C_R   0.529055 0.490952 0.957349 0.512799
C61   C     C_3   0.920097 0.097226 0.735926 -0.367315
C62   C     C_3   0.949841 0.949282 0.774975 -0.760095
H21   H     H_    0.926926 0.819690 0.771042 0.224653
H22   H     H_    0.988532 0.921508 0.764087 0.234588
H23   H     H_    0.956134 0.996427 0.820429 0.212788
H24   H     H_    0.941822 0.228876 0.740126 0.162631
H25   H     H_    0.885110 0.131704 0.753618 0.191052
C63   C     C_3   0.221183 0.855752 0.430611 -0.366148
C64   C     C_3   0.258454 0.981160 0.470986 -0.770864
H26   H     H_    0.260600 0.117966 0.450734 0.223274
H27   H     H_    0.245719 0.999329 0.512576 0.238319
H28   H     H_    0.298216 0.919240 0.479698 0.216223
H29   H     H_    0.219239 0.717250 0.449528 0.167627
H30   H     H_    0.239695 0.827596 0.393385 0.194437
C65   C     C_3   0.589670 0.682035 0.772120 -0.362841
C66   C     C_3   0.577902 0.546957 0.721629 -0.742692
H31   H     H_    0.612054 0.457927 0.719377 0.221800
H32   H     H_    0.544141 0.458712 0.725697 0.219438
H33   H     H_    0.567974 0.624803 0.680641 0.211536
H34   H     H_    0.557060 0.781371 0.765954 0.179676
H35   H     H_    0.623475 0.769380 0.768462 0.190105
C67   C     C_3   0.280217 0.319632 0.075578 -0.368372
C68   C     C_3   0.238052 0.460780 0.051516 -0.758617
H36   H     H_    0.235601 0.570902 0.083371 0.212013
H37   H     H_    0.246809 0.524899 0.011982 0.228690
H38   H     H_    0.199478 0.391709 0.040548 0.215067
H39   H     H_    0.278100 0.208250 0.043546 0.182187
H40   H     H_    0.269873 0.249420 0.113121 0.202077
C69   C     C_3   0.000819 0.100386 0.659016 -0.368283
C70   C     C_3   0.039719 0.940072 0.663541 -0.747345
H41   H     H_    0.026432 0.822239 0.686671 0.227667
H42   H     H_    0.044842 0.892695 0.620518 0.243167
H43   H     H_    0.078504 0.985453 0.687524 0.213071
H44   H     H_    0.011751 0.208516 0.630651 0.201347
H45   H     H_    0.006593 0.165679 0.701827 0.185431
C71   C     C_3   0.142996 0.849041 0.510581 -0.365022
C72   C     C_3   0.148157 0.993155 0.558635 -0.749160
H46   H     H_    0.165038 0.927827 0.600480 0.214252
H47   H     H_    0.174159 0.106978 0.550840 0.227763
H48   H     H_    0.109641 0.051644 0.562216 0.241730
H49   H     H_    0.112791 0.746979 0.515830 0.203870
H50   H     H_    0.179785 0.769592 0.517909 0.186061
C73   C     C_3   0.517239 0.742190 0.855764 -0.346520
C74   C     C_3   0.470049 0.673176 0.812041 -0.707337
H51   H     H_    0.455404 0.541543 0.826288 0.248983
H52   H     H_    0.438133 0.776899 0.807528 0.213630
H53   H     H_    0.479844 0.650477 0.769128 0.216036
H54   H     H_    0.503947 0.781845 0.895821 0.194155
H55   H     H_    0.531548 0.874565 0.841576 0.161702
C75   C     C_3   0.365809 0.235509 0.009299 -0.345567
C76   C     C_3   0.330902 0.295730 0.952665 -0.699458
H56   H     H_    0.289409 0.306086 0.956662 0.213159
H57   H     H_    0.343143 0.431424 0.938626 0.247467
H58   H     H_    0.333682 0.192618 0.918700 0.214606
H59   H     H_    0.404302 0.191889 0.000498 0.192541
H60   H     H_    0.350799 0.107035 0.025313 0.162296

loop_
_geom_bond_atom_site_label_1
_geom_bond_atom_site_label_2
_ccdc_geom_bond_type
O17   V3    S    
C68   H38   S    
C47   H15   S    
C22   C26   S    
C62   H22   S    
C50   H18   S    
O19   V1    S    
O13   V1    S    
O3    C7    A    
C76   H56   S    
C52   H20   S    
C44   C48   A    
O15   V3    S    
C66   H31   S    
C62   H21   S    
C72   H46   S    
C68   H36   S    
C37   C69   S    
C73   H55   S    
O1    C5    A    
C33   C61   S    
C43   C60   S    
C3    C54   S    
C28   C32   S    
C11   C23   S    
C74   H51   S    
C76   H57   S    
C14   H2    S    
C72   H47   S    
C67   H40   S    
C11   C15   S    
O4    C8    A    
C63   H30   S    
C15   C24   S    
C8    C18   S    
O1    V3    S    
C9    H5    S    
C19   C31   T    
O2    V4    S    
O3    V1    S    
C65   H34   S    
C64   H28   S    
C61   H25   S    
C40   C75   S    
C1    O15   A    
C2    O16   A    
C9    C26   S    
C43   C47   A    
C34   C38   A    
C33   C37   A    
C11   C28   S    
C10   H6    S    
C12   C27   S    
C17   C29   T    
C13   C22   S    
C36   C40   A    
C45   C49   A    
C61   H24   S    
O11   C7    A    
C11   H7    S    
O12   C8    A    
C16   C23   S    
C49   H17   S    
C70   H43   S    
C35   C65   S    
C41   C58   S    
C71   H50   S    
O10   V2    S    
O16   V4    S    
C7    C17   S    
O5    V1    S    
N1    N5    A    
C27   C31   S    
O7    V3    S    
C26   C30   S    
O8    V4    S    
C65   H35   S    
C12   C16   S    
C76   H58   S    
C71   C72   S    
C61   C62   S    
C72   H48   S    
C34   C63   S    
C67   H39   S    
C5    C19   S    
C63   H29   S    
C6    C20   S    
N1    C58   A    
C20   C32   T    
C35   C55   A    
C10   C25   S    
C9    C13   S    
H9    C22   S    
N8    C60   A    
C49   C53   A    
N3    C60   A    
C48   H16   S    
O7    C3    A    
O5    C1    A    
H12   C23   S    
C25   C29   S    
C14   C21   S    
C42   C46   A    
C36   C67   S    
C41   C45   A    
O8    C4    A    
C4    C53   S    
O9    C5    A    
C21   C25   S    
C64   H26   S    
C69   H44   S    
C75   H60   S    
O6    V2    S    
C1    C56   S    
O14   V2    S    
C70   H42   S    
C71   H49   S    
C65   C66   S    
C66   H33   S    
N4    N8    A    
C15   C27   S    
C63   C64   S    
C52   C56   A    
C75   C76   S    
C36   C56   A    
O9    V1    S    
C68   H37   S    
N5    C57   A    
C3    O13   A    
C9    C21   S    
C73   H54   S    
C10   C14   S    
H10   C21   S    
N7    C59   A    
C74   H53   S    
C40   C44   A    
C12   C24   S    
C66   H32   S    
O6    C2    A    
N4    C59   A    
C13   C25   S    
O11   V3    S    
C67   C68   S    
C18   C30   T    
O12   V4    S    
C47   C51   A    
C38   C71   S    
C23   C27   S    
C46   C50   A    
C24   C28   S    
O10   C6    A    
O20   V2    S    
C46   H14   S    
O2    C6    A    
C35   C39   A    
C16   C28   S    
C44   C59   S    
C74   H52   S    
C12   H8    S    
C42   C57   S    
C13   H1    S    
C2    C55   S    
O4    V2    S    
C64   H27   S    
C62   H23   S    
C69   H45   S    
C51   H19   S    
C75   H59   S    
C39   C73   S    
C16   H4    S    
C15   H3    S    
N6    C58   A    
C38   C42   A    
N2    N6    A    
C4    O14   A    
C73   C74   S    
C10   C22   S    
C37   C41   A    
C70   H41   S    
N2    C57   A    
N3    N7    A    
H11   C24   S    
C48   C52   A    
C51   C55   A    
C69   C70   S    
C39   C43   A    
C50   C54   A    
O18   V4    S    
C45   H13   S    
C34   C54   A    
C14   C26   S    
C33   C53   A    
