data_mof_unit_33802.cif
_audit_creation_date              2012-12-11T14:43:30-0500
_audit_creation_method            fapswitch 2.2
_symmetry_space_group_name_H-M    P1
_symmetry_Int_Tables_number       1
_space_group_crystal_system       triclinic
_cell_length_a                    20.8075
_cell_length_b                    7.139666
_cell_length_c                    16.567276
_cell_angle_alpha                 89.999938
_cell_angle_beta                  93.348845
_cell_angle_gamma                 89.99999
_cell_volume                      2457.00851995

loop_
_atom_site_label
_atom_site_type_symbol
_atom_type_description
_atom_site_fract_x
_atom_site_fract_y
_atom_site_fract_z
_atom_type_partial_charge
O1    O     O_R   0.564840 0.505290 0.579830 -0.536859
O2    O     O_R   0.435160 0.005290 0.420170 -0.536859
O3    O     O_R   0.556720 0.179930 0.409350 -0.541903
O4    O     O_R   0.443280 0.679930 0.590650 -0.541904
C1    C     C_R   0.570722 0.344352 0.382360 0.680123
C2    C     C_R   0.429278 0.844352 0.617640 0.680124
O5    O     O_R   0.572280 0.175810 0.578530 -0.540927
O6    O     O_R   0.427720 0.675810 0.421470 -0.540925
O7    O     O_R   0.450830 0.001920 0.590540 -0.538022
O8    O     O_R   0.549170 0.501920 0.409460 -0.538022
C3    C     C_R   0.589841 0.344227 0.604796 0.711886
C4    C     C_R   0.410158 0.844227 0.395204 0.711886
O9    O     O_3   0.460130 0.338030 0.503750 -0.371188
O10   O     O_3   0.539870 0.838030 0.496250 -0.371188
V1    V     V_3+5 0.507400 0.064560 0.499310 1.408066
V2    V     V_3+5 0.492600 0.564560 0.500690 1.408067
C5    C     C_R   0.137152 0.906850 0.175467 -0.151908
C6    C     C_R   0.862848 0.406850 0.824533 -0.151909
C7    C     C_R   0.354841 0.853184 0.333722 -0.135281
C8    C     C_R   0.645159 0.353183 0.666278 -0.135283
C9    C     C_R   0.315655 0.829729 0.191651 0.137543
C10   C     C_R   0.684345 0.329719 0.808349 0.137541
C11   C     C_R   0.367369 0.849636 0.250693 0.072709
C12   C     C_R   0.632631 0.349628 0.749307 0.072710
C13   C     C_R   0.290254 0.859659 0.358023 0.055917
C14   C     C_R   0.709746 0.359663 0.641976 0.055916
C15   C     C_R   0.237634 0.852943 0.297518 0.005894
C16   C     C_R   0.762366 0.352945 0.702482 0.005894
C17   C     C_R   0.251452 0.854593 0.214577 0.039794
C18   C     C_R   0.748549 0.354589 0.785422 0.039793
C19   C     C_R   0.200494 0.879976 0.155342 -0.235067
C20   C     C_R   0.799506 0.379972 0.844658 -0.235066
C21   C     C_R   0.121368 0.886163 0.256930 0.125475
C22   C     C_R   0.878632 0.386167 0.743070 0.125475
C23   C     C_R   0.171232 0.838334 0.315925 0.232989
C24   C     C_R   0.828768 0.338340 0.684075 0.232989
H1    H     H_    0.208810 0.882062 0.091864 0.118602
H2    H     H_    0.791190 0.382054 0.908135 0.118601
C25   C     C_R   0.388420 0.904370 0.831697 -0.165665
C26   C     C_R   0.611579 0.404368 0.168303 -0.165664
H3    H     H_    0.474316 0.845977 0.771592 0.105608
H4    H     H_    0.525684 0.345979 0.228408 0.105608
H5    H     H_    0.416179 0.923158 0.888244 0.116442
H6    H     H_    0.583820 0.423155 0.111755 0.116442
C27   C     C_R   0.390813 0.851828 0.689019 -0.024111
C28   C     C_R   0.609186 0.351829 0.310981 -0.024111
C29   C     C_R   0.079334 0.885336 0.734536 0.125111
C30   C     C_R   0.920666 0.385335 0.265463 0.125110
C31   C     C_R   0.115900 0.844487 0.668042 0.190435
C32   C     C_R   0.884100 0.344487 0.331958 0.190435
C33   C     C_R   0.182374 0.833113 0.676440 -0.216792
C34   C     C_R   0.817626 0.333114 0.323560 -0.216791
C35   C     C_R   0.217348 0.884505 0.748040 0.020006
C36   C     C_R   0.782651 0.384505 0.251959 0.020006
C37   C     C_R   0.182625 0.935813 0.817438 -0.054514
C38   C     C_R   0.817375 0.435811 0.182561 -0.054513
C39   C     C_R   0.286431 0.885710 0.751052 0.063386
C40   C     C_R   0.713569 0.385710 0.248947 0.063386
C41   C     C_R   0.320895 0.928024 0.824689 0.066847
C42   C     C_R   0.679104 0.428022 0.175310 0.066848
C43   C     C_R   0.288788 0.009655 0.887766 0.145592
C44   C     C_R   0.711212 0.509648 0.112232 0.145591
C45   C     C_R   0.220435 0.013508 0.885814 0.080141
C46   C     C_R   0.779564 0.513503 0.114184 0.080140
C47   C     C_R   0.323270 0.856208 0.682062 -0.197885
C48   C     C_R   0.676730 0.356210 0.317938 -0.197884
C49   C     C_R   0.422515 0.861555 0.764822 -0.178919
C50   C     C_R   0.577485 0.361556 0.235178 -0.178918
C51   C     C_R   0.112296 0.915829 0.811987 -0.128409
C52   C     C_R   0.887703 0.415828 0.188012 -0.128409
H7    H     H_    0.301594 0.844636 0.621859 0.089819
H8    H     H_    0.698405 0.344639 0.378141 0.089817
H9    H     H_    0.205360 0.787033 0.623445 0.121001
H10   H     H_    0.794639 0.287035 0.376555 0.121000
O11   O     O_R   0.950790 0.256670 0.090520 -0.535923
O12   O     O_R   0.049210 0.756670 0.909480 -0.535923
O13   O     O_R   0.927720 0.590370 0.921470 -0.544618
O14   O     O_R   0.072280 0.090370 0.078530 -0.544618
C53   C     C_R   0.913074 0.421483 0.891873 0.677197
C54   C     C_R   0.086926 0.921483 0.108127 0.677197
O15   O     O_R   0.943270 0.586180 0.090640 -0.542113
O16   O     O_R   0.056730 0.086180 0.909360 -0.542113
O17   O     O_R   0.064850 0.759970 0.079840 -0.536906
O18   O     O_R   0.935150 0.259970 0.920160 -0.536906
C55   C     C_R   0.927441 0.418460 0.116044 0.723472
C56   C     C_R   0.072559 0.918460 0.883955 0.723471
O19   O     O_3   0.039850 0.428050 0.996240 -0.372137
O20   O     O_3   0.960150 0.928050 0.003760 -0.372137
V3    V     V_3+5 0.992610 0.701540 0.000700 1.351457
V4    V     V_3+5 0.007390 0.201540 0.999300 1.351457
C57   C     C_3   0.006684 0.910145 0.712642 -0.372880
C58   C     C_3   0.956810 0.923037 0.776505 -0.744288
H11   H     H_    0.956308 0.796673 0.813836 0.242208
H12   H     H_    0.964459 0.044764 0.815867 0.244297
H13   H     H_    0.908146 0.937755 0.745838 0.221961
H14   H     H_    0.001267 0.035686 0.673600 0.208408
H15   H     H_    0.990239 0.792638 0.673409 0.225100
C59   C     C_3   0.993316 0.410142 0.287358 -0.372880
C60   C     C_3   0.043190 0.423034 0.223495 -0.744287
H16   H     H_    0.043692 0.296670 0.186164 0.242209
H17   H     H_    0.035541 0.544762 0.184133 0.244297
H18   H     H_    0.091854 0.437751 0.254162 0.221962
H19   H     H_    0.998733 0.535682 0.326400 0.208409
H20   H     H_    0.009761 0.292634 0.326590 0.225099
N1    N     N_3   0.084899 0.815458 0.589285 -0.706355
H21   H     H_    0.101001 0.919248 0.550823 0.232422
H22   H     H_    0.099009 0.685147 0.567554 0.231656
N2    N     N_3   0.915101 0.315459 0.410715 -0.706354
H23   H     H_    0.898999 0.419250 0.449177 0.232422
H24   H     H_    0.900990 0.185148 0.432447 0.231657
C61   C     C_3   0.192332 0.131200 0.951470 -0.305889
C62   C     C_3   0.175248 0.327533 0.920126 -0.623343
H25   H     H_    0.218776 0.396615 0.898142 0.203950
H26   H     H_    0.137921 0.322699 0.869554 0.222649
H27   H     H_    0.157945 0.414082 0.969993 0.212631
H28   H     H_    0.153694 0.058200 0.979858 0.160321
H29   H     H_    0.226291 0.150443 0.004897 0.196041
C63   C     C_3   0.807668 0.631196 0.048528 -0.305890
C64   C     C_3   0.824751 0.827529 0.079871 -0.623347
H30   H     H_    0.781222 0.896611 0.101855 0.203950
H31   H     H_    0.862078 0.822696 0.130444 0.222650
H32   H     H_    0.842055 0.914078 0.030005 0.212632
H33   H     H_    0.846306 0.558195 0.020141 0.160321
H34   H     H_    0.773709 0.650436 0.995101 0.196043
C65   C     C_3   0.050707 0.908743 0.277128 -0.329245
C66   C     C_3   0.036212 0.934770 0.366033 -0.723941
H35   H     H_    0.039111 0.800318 0.399416 0.252447
H36   H     H_    0.068996 0.040244 0.395601 0.222870
H37   H     H_    0.985885 0.984140 0.369508 0.217083
H38   H     H_    0.031078 0.032734 0.245044 0.164753
H39   H     H_    0.021154 0.793341 0.251827 0.177221
C67   C     C_3   0.949293 0.408747 0.722872 -0.329246
C68   C     C_3   0.963789 0.434773 0.633967 -0.723939
H40   H     H_    0.960890 0.300322 0.600584 0.252448
H41   H     H_    0.931005 0.540248 0.604399 0.222871
H42   H     H_    0.014116 0.484142 0.630493 0.217083
H43   H     H_    0.968922 0.532738 0.754956 0.164754
H44   H     H_    0.978846 0.293345 0.748174 0.177220
C69   C     C_3   0.328204 0.763793 0.106115 -0.374416
C70   C     C_3   0.304779 0.562760 0.091791 -0.740818
H45   H     H_    0.329980 0.466648 0.135866 0.229780
H46   H     H_    0.252089 0.551189 0.097793 0.231724
H47   H     H_    0.315343 0.517959 0.029742 0.225251
H48   H     H_    0.304524 0.857004 0.060638 0.182314
H49   H     H_    0.379497 0.765893 0.092587 0.187606
C71   C     C_3   0.671797 0.263766 0.893883 -0.374410
C72   C     C_3   0.695223 0.062730 0.908199 -0.740814
H50   H     H_    0.670023 0.966627 0.864119 0.229779
H51   H     H_    0.747913 0.051165 0.902198 0.231723
H52   H     H_    0.684657 0.017913 0.970246 0.225253
H53   H     H_    0.695477 0.356968 0.939364 0.182311
H54   H     H_    0.620504 0.265862 0.907412 0.187602
N3    N     N_3   0.153369 0.732219 0.384537 -0.685096
H55   H     H_    0.183593 0.616115 0.393414 0.225839
H56   H     H_    0.153673 0.816937 0.435673 0.235596
N4    N     N_3   0.846632 0.232229 0.615461 -0.685095
H57   H     H_    0.816407 0.116125 0.606583 0.225839
H58   H     H_    0.846327 0.316951 0.564326 0.235596
C73   C     C_3   0.435429 0.887383 0.225369 -0.368097
C74   C     C_3   0.474610 0.708192 0.220382 -0.752841
H59   H     H_    0.522797 0.742000 0.198829 0.221716
H60   H     H_    0.481084 0.642648 0.280869 0.239912
H61   H     H_    0.450599 0.606185 0.178103 0.220606
H62   H     H_    0.434681 0.963863 0.166990 0.165817
H63   H     H_    0.461138 0.984827 0.268341 0.180118
C75   C     C_3   0.564572 0.387376 0.774632 -0.368098
C76   C     C_3   0.525390 0.208185 0.779616 -0.752828
H64   H     H_    0.477200 0.241998 0.801161 0.221715
H65   H     H_    0.518920 0.142637 0.719127 0.239911
H66   H     H_    0.549396 0.106179 0.821899 0.220601
H67   H     H_    0.565319 0.463848 0.833013 0.165818
H68   H     H_    0.538863 0.484825 0.731661 0.180116
C77   C     C_3   0.279608 0.899723 0.447120 -0.335440
C78   C     C_3   0.249868 0.093143 0.459031 -0.754652
H69   H     H_    0.283158 0.203557 0.439313 0.231207
H70   H     H_    0.203069 0.109334 0.424292 0.222429
H71   H     H_    0.241937 0.114586 0.524104 0.211967
H72   H     H_    0.252316 0.787005 0.475065 0.154764
H73   H     H_    0.324931 0.899999 0.485291 0.157320
C79   C     C_3   0.720392 0.399733 0.552880 -0.335440
C80   C     C_3   0.750131 0.593156 0.540972 -0.754648
H74   H     H_    0.716840 0.703568 0.560691 0.231207
H75   H     H_    0.796930 0.609346 0.575710 0.222428
H76   H     H_    0.758061 0.614604 0.475898 0.211966
H77   H     H_    0.747684 0.287018 0.524933 0.154763
H78   H     H_    0.675068 0.400011 0.514709 0.157321
N5    N     N_3   0.325411 0.117309 0.948137 -0.707419
H79   H     H_    0.350723 0.221865 0.919196 0.237340
H80   H     H_    0.358368 0.032417 0.980700 0.211028
N6    N     N_3   0.674588 0.617294 0.051858 -0.707422
H81   H     H_    0.649275 0.721851 0.080796 0.237339
H82   H     H_    0.641633 0.532396 0.019296 0.211029

loop_
_geom_bond_atom_site_label_1
_geom_bond_atom_site_label_2
_ccdc_geom_bond_type
C32   N2    S    
C75   H68   S    
N6    H81   S    
C26   C42   A    
C2    C27   S    
C15   C17   A    
C35   C37   A    
C12   C75   S    
C61   C62   S    
O1    C3    A    
C70   H47   S    
C72   H50   S    
O2    C4    A    
C2    O7    A    
C62   H26   S    
C29   C31   A    
C77   C78   S    
O14   V4    S    
O5    C3    A    
N1    H22   S    
O13   V3    S    
C66   H35   S    
O18   V4    S    
N1    H21   S    
N4    H57   S    
C72   H51   S    
C70   H46   S    
C28   C48   A    
C34   H10   S    
C1    O8    A    
C53   O18   A    
C21   C23   A    
O14   C54   A    
C39   C41   A    
C77   H73   S    
C40   C42   A    
C59   H19   S    
C80   H74   S    
C43   N5    S    
C46   C63   S    
N2    H23   S    
C42   C44   A    
C43   C45   A    
C78   H69   S    
C29   C51   A    
C44   C46   A    
O11   V4    S    
C33   H9    S    
C57   H14   S    
C63   C64   S    
C65   H38   S    
C40   C48   A    
C48   H8    S    
C10   C71   S    
C25   C49   A    
C67   C68   S    
C31   C33   A    
C37   C45   A    
C27   C49   A    
C68   H42   S    
C32   C34   A    
C38   C46   A    
C61   H28   S    
C20   H2    S    
N3    H56   S    
O12   V3    S    
O15   V3    S    
O5    V1    S    
C65   C66   S    
C22   C67   S    
C75   H67   S    
O6    V2    S    
H4    C50   S    
C5    C21   A    
C54   O17   A    
C21   C65   S    
C62   H25   S    
C34   C36   A    
C76   H66   S    
C64   H31   S    
O17   V3    S    
C69   C70   S    
C36   C38   A    
C3    C8    S    
C41   C43   A    
C74   H61   S    
C8    C12   A    
C72   H52   S    
C70   H45   S    
H3    C49   S    
C76   H65   S    
C80   H75   S    
C30   C52   A    
C76   H64   S    
C35   C39   A    
C6    C53   S    
C25   H5    S    
C66   H37   S    
C15   C23   A    
C67   H43   S    
C47   H7    S    
C9    C17   A    
C30   C32   A    
C58   H13   S    
C73   H63   S    
C11   C73   S    
C33   C35   A    
C74   H60   S    
O4    V2    S    
C7    C11   A    
C28   C50   A    
C13   C77   S    
C69   H48   S    
C65   H39   S    
C73   C74   S    
O6    C4    A    
C25   C41   A    
C44   N6    S    
C58   H12   S    
O13   C53   A    
O1    V2    S    
C63   H34   S    
C57   H15   S    
C66   H36   S    
O2    V1    S    
C6    C22   A    
C78   H71   S    
C37   C51   A    
C79   H78   S    
C71   H54   S    
O4    C2    A    
C60   H17   S    
O20   V4    S    
C38   C52   A    
C9    C11   A    
C27   C47   A    
C75   C76   S    
C5    C19   A    
C10   C12   A    
O19   V4    S    
C6    C20   A    
C9    C69   S    
O12   C56   A    
C57   C58   S    
O3    V1    S    
C79   C80   S    
C24   N4    S    
O11   C55   A    
C71   C72   S    
C36   C40   A    
C80   H76   S    
C69   H49   S    
N6    H82   S    
C10   C18   A    
O10   V1    S    
C29   C57   S    
C23   N3    S    
C39   C47   A    
O3    C1    A    
C31   N1    S    
C64   H30   S    
C14   C79   S    
C13   C15   A    
C30   C59   S    
C1    C28   S    
C14   C16   A    
O16   V4    S    
C60   H16   S    
C61   H29   S    
C74   H59   S    
N4    H58   S    
O7    V1    S    
N5    H79   S    
C17   C19   A    
O16   C56   A    
C18   C20   A    
C68   H40   S    
C8    C14   A    
C77   H72   S    
C59   H20   S    
C4    C7    S    
C16   C18   A    
C58   H11   S    
C64   H32   S    
N2    H24   S    
C22   C24   A    
C63   H33   S    
C5    C54   S    
C45   C61   S    
C7    C13   A    
C78   H70   S    
N5    H80   S    
C79   H77   S    
C71   H53   S    
C19   H1    S    
C26   H6    S    
C60   H18   S    
O20   V3    S    
C16   C24   A    
C59   C60   S    
C26   C50   A    
O9    V2    S    
C68   H41   S    
O19   V3    S    
C73   H62   S    
O8    V2    S    
N3    H55   S    
C52   C55   S    
C67   H44   S    
C62   H27   S    
O15   C55   A    
C51   C56   S    
