data_mof_unit_34886.cif
_audit_creation_date              2013-03-05T15:57:40-0500
_audit_creation_method            fapswitch 2.2
_symmetry_space_group_name_H-M    P1
_symmetry_Int_Tables_number       1
_space_group_crystal_system       triclinic
_cell_length_a                    19.404294
_cell_length_b                    17.72711
_cell_length_c                    12.670038
_cell_angle_alpha                 89.304838
_cell_angle_beta                  99.521766
_cell_angle_gamma                 90.059826
_cell_volume                      4297.90272625

loop_
_atom_site_label
_atom_site_type_symbol
_atom_site_description
_atom_site_fract_x
_atom_site_fract_y
_atom_site_fract_z
_atom_type_partial_charge
O1    O     O_R   0.448200 0.076800 0.373930 -0.550446
O2    O     O_R   0.448200 0.923200 0.373930 -0.572779
O3    O     O_R   0.948200 0.576800 0.373930 -0.550464
O4    O     O_R   0.948200 0.423200 0.373930 -0.572801
O5    O     O_R   0.414750 0.076790 0.542400 -0.629797
O6    O     O_R   0.414750 0.923210 0.542400 -0.620348
O7    O     O_R   0.914750 0.576790 0.542400 -0.629810
O8    O     O_R   0.914750 0.423210 0.542400 -0.620347
C1    C     C_R   0.411114 0.102849 0.443702 0.843935
C2    C     C_R   0.407946 0.901086 0.441917 0.857215
C3    C     C_R   0.911119 0.602854 0.443705 0.843941
C4    C     C_R   0.907943 0.401090 0.441915 0.857228
Zn1   Zn    Zn3+2 0.522330 0.000000 0.387520 1.033938
Zn2   Zn    Zn3+2 0.022330 0.500000 0.387520 1.033980
Zn3   Zn    Zn3+2 0.477660 1.000000 0.612480 0.924547
Zn4   Zn    Zn3+2 0.977660 0.500000 0.612480 0.924540
O9    O     O_R   0.585240 0.923200 0.457600 -0.560050
O10   O     O_R   0.585240 0.076800 0.457600 -0.584249
O11   O     O_R   0.085240 0.423200 0.457600 -0.560092
O12   O     O_R   0.085240 0.576800 0.457600 -0.584093
O13   O     O_R   0.551780 0.923190 0.626070 -0.634814
O14   O     O_R   0.551780 0.076810 0.626070 -0.646664
O15   O     O_R   0.051780 0.423190 0.626070 -0.634811
O16   O     O_R   0.051780 0.576810 0.626070 -0.646692
C5    C     C_R   0.590913 0.899767 0.557867 0.850603
C6    C     C_R   0.588789 0.102564 0.555653 0.837284
C7    C     C_R   0.090912 0.399767 0.557867 0.850606
C8    C     C_R   0.088792 0.602560 0.555655 0.837309
C9    C     C_R   0.642591 0.296819 0.648881 -0.197799
C10   C     C_R   0.755273 0.826870 0.722429 -0.193352
C11   C     C_R   0.142587 0.796815 0.648857 -0.197798
C12   C     C_R   0.255292 0.326904 0.722400 -0.193348
H1    H     H_    0.570581 0.215704 0.695071 0.156169
H2    H     H_    0.669758 0.892699 0.758554 0.147912
H3    H     H_    0.070566 0.715710 0.695034 0.156162
H4    H     H_    0.169789 0.392749 0.758531 0.147886
H5    H     H_    0.205831 0.928977 0.627102 0.143487
H6    H     H_    0.383780 0.269529 0.740801 0.155348
H7    H     H_    0.705845 0.428982 0.627147 0.143484
H8    H     H_    0.883758 0.769478 0.740864 0.155355
H9    H     H_    0.627463 0.339960 0.700463 0.138764
H10   H     H_    0.785636 0.833951 0.801511 0.141790
H11   H     H_    0.127447 0.839964 0.700416 0.138765
H12   H     H_    0.285671 0.334010 0.801466 0.141790
C13   C     C_R   0.630481 0.169875 0.580799 -0.047130
C14   C     C_R   0.649773 0.851032 0.596432 -0.045123
C15   C     C_R   0.130490 0.669863 0.580808 -0.047137
C16   C     C_R   0.149771 0.351033 0.596436 -0.045087
C17   C     C_R   0.365128 0.795352 0.324589 -0.164752
C18   C     C_R   0.324276 0.161317 0.302674 -0.131629
C19   C     C_R   0.865101 0.295378 0.324561 -0.164758
C20   C     C_R   0.824322 0.661381 0.302672 -0.131675
C21   C     C_R   0.320100 0.735052 0.299187 -0.156125
C22   C     C_R   0.266023 0.206393 0.271757 -0.158637
C23   C     C_R   0.820059 0.235092 0.299140 -0.156113
C24   C     C_R   0.766094 0.706493 0.271746 -0.158608
C25   C     C_R   0.266789 0.722028 0.358042 -0.197630
C26   C     C_R   0.239107 0.247751 0.347849 -0.203615
C27   C     C_R   0.766748 0.222070 0.357995 -0.197602
C28   C     C_R   0.739174 0.747845 0.347840 -0.203575
C29   C     C_R   0.256197 0.771431 0.440971 0.089340
C30   C     C_R   0.272391 0.246982 0.456311 0.078807
C31   C     C_R   0.756170 0.271461 0.440946 0.089330
C32   C     C_R   0.772427 0.747027 0.456316 0.078721
C33   C     C_R   0.294241 0.839103 0.453566 0.087932
C34   C     C_R   0.337493 0.210448 0.483442 0.086765
C35   C     C_R   0.794228 0.339124 0.453561 0.087924
C36   C     C_R   0.837515 0.710467 0.483463 0.086799
C37   C     C_R   0.709225 0.255742 0.512108 0.079662
C38   C     C_R   0.743356 0.781668 0.538572 0.067973
C39   C     C_R   0.209246 0.755717 0.512126 0.079648
C40   C     C_R   0.243335 0.281644 0.538566 0.068006
C41   C     C_R   0.690973 0.312500 0.580501 0.179382
C42   C     C_R   0.783508 0.789697 0.642157 0.166932
C43   C     C_R   0.190978 0.812486 0.580491 0.179390
C44   C     C_R   0.283509 0.289708 0.642131 0.166903
C45   C     C_R   0.220830 0.883918 0.578437 -0.258742
C46   C     C_R   0.351556 0.261912 0.663233 -0.246028
C47   C     C_R   0.720832 0.383929 0.578462 -0.258744
C48   C     C_R   0.851550 0.761887 0.663279 -0.246034
C49   C     C_R   0.272133 0.897111 0.515788 -0.197170
C50   C     C_R   0.378343 0.222699 0.584919 -0.194583
C51   C     C_R   0.772131 0.397125 0.515806 -0.197163
C52   C     C_R   0.878347 0.722687 0.584963 -0.194582
C53   C     C_R   0.681969 0.183842 0.519490 -0.249385
C54   C     C_R   0.674880 0.807995 0.520596 -0.219170
C55   C     C_R   0.181994 0.683817 0.519523 -0.249395
C56   C     C_R   0.174859 0.307968 0.520609 -0.219223
C57   C     C_R   0.611381 0.225791 0.647707 -0.201776
C58   C     C_R   0.688830 0.858855 0.698962 -0.204180
C59   C     C_R   0.111377 0.725788 0.647690 -0.201771
C60   C     C_R   0.188847 0.358884 0.698947 -0.204158
C61   C     C_R   0.353728 0.846343 0.403963 -0.094751
C62   C     C_R   0.359502 0.161621 0.408546 -0.130035
C63   C     C_R   0.853715 0.346360 0.403954 -0.094746
C64   C     C_R   0.859524 0.661646 0.408559 -0.130058
H13   H     H_    0.698816 0.137624 0.475591 0.144068
H14   H     H_    0.640401 0.798654 0.445948 0.144706
H15   H     H_    0.198853 0.637588 0.475653 0.144193
H16   H     H_    0.140364 0.298612 0.445981 0.144638
H17   H     H_    0.409725 0.801115 0.283757 0.158546
H18   H     H_    0.339837 0.124059 0.244559 0.240874
H19   H     H_    0.909696 0.301138 0.283725 0.158544
H20   H     H_    0.839885 0.624131 0.244549 0.240875
H21   H     H_    0.733214 0.174481 0.335193 0.124301
H22   H     H_    0.693437 0.781337 0.318889 0.153114
H23   H     H_    0.233267 0.674428 0.335256 0.124363
H24   H     H_    0.193349 0.281210 0.318902 0.152961
H25   H     H_    0.328146 0.696592 0.236604 0.140721
H26   H     H_    0.239740 0.206657 0.189417 0.157212
H27   H     H_    0.828094 0.196640 0.236541 0.140733
H28   H     H_    0.739833 0.706792 0.189394 0.157221
H29   H     H_    0.293483 0.953418 0.514911 0.161957
H30   H     H_    0.431709 0.202871 0.604248 0.166119
H31   H     H_    0.793488 0.453429 0.514941 0.161965
H32   H     H_    0.931707 0.702844 0.604309 0.166138
C65   C     C_R   0.642906 0.983242 0.134073 -0.425763
C66   C     C_R   0.142913 0.483273 0.134080 -0.425990
H33   H     H_    0.670477 0.985543 0.936456 0.146252
H34   H     H_    0.170479 0.485553 0.936459 0.146252
H35   H     H_    0.697062 0.973908 0.127270 0.166561
H36   H     H_    0.197070 0.473970 0.127262 0.166592
N1    N     N_R   0.552340 0.000000 0.237260 -0.189894
N2    N     N_R   0.052340 0.500000 0.237260 -0.189877
C67   C     C_R   0.378262 0.995322 0.760876 0.033522
C68   C     C_R   0.878262 0.495320 0.760879 0.033508
C69   C     C_R   0.352752 0.981627 0.854948 -0.262977
C70   C     C_R   0.852754 0.481609 0.854949 -0.262945
C71   C     C_R   0.399623 0.976992 0.950248 -0.103821
C72   C     C_R   0.899627 0.476963 0.950247 -0.103816
C73   C     C_R   0.471655 0.990850 0.952405 0.054797
C74   C     C_R   0.971658 0.490826 0.952405 0.054796
C75   C     C_R   0.495350 0.996726 0.853566 0.224044
C76   C     C_R   0.995351 0.496715 0.853567 0.224047
C77   C     C_R   0.521332 0.994589 0.047610 -0.109260
C78   C     C_R   0.021334 0.494567 0.047612 -0.109255
C79   C     C_R   0.593344 0.988209 0.041381 0.091747
C80   C     C_R   0.093347 0.488205 0.041386 0.091804
C81   C     C_R   0.615423 0.988564 0.942277 -0.229341
C82   C     C_R   0.115426 0.488562 0.942280 -0.229320
C83   C     C_R   0.566953 0.996203 0.849637 -0.206071
C84   C     C_R   0.066955 0.496197 0.849639 -0.206076
C85   C     C_R   0.502919 0.006711 0.148713 0.308825
C86   C     C_R   0.002917 0.506688 0.148712 0.308774
C87   C     C_R   0.621549 0.989107 0.234086 0.590477
C88   C     C_R   0.121555 0.489150 0.234098 0.590689
N3    N     N_R   0.448170 1.000000 0.762060 -0.135596
N4    N     N_R   0.948170 0.500000 0.762060 -0.135595
H37   H     H_    0.342745 0.998106 0.685809 0.136418
H38   H     H_    0.842744 0.498112 0.685814 0.136409
H39   H     H_    0.378756 0.959007 0.019772 0.197414
H40   H     H_    0.878762 0.458970 0.019770 0.197389
H41   H     H_    0.297432 0.972631 0.853715 0.154741
H42   H     H_    0.797435 0.472610 0.853716 0.154735
H43   H     H_    0.586633 0.999637 0.775806 0.205439
H44   H     H_    0.086634 0.499639 0.775808 0.205432
N5    N     N_R   0.436623 0.038073 0.158901 0.197071
O17   O     O_R   0.391681 0.998392 0.201435 -0.435215
O18   O     O_R   0.417161 0.101612 0.110573 -0.438211
N6    N     N_R   0.936621 0.538055 0.158889 0.197078
O19   O     O_R   0.891676 0.498385 0.201435 -0.435169
O20   O     O_R   0.917162 0.601589 0.110547 -0.438224
O21   O     O_3   0.666759 0.979193 0.330833 -0.576779
C89   C     C_3   0.735410 0.006394 0.330525 0.073395
H45   H     H_    0.752265 0.036298 0.406792 0.161418
H46   H     H_    0.739883 0.048473 0.266084 0.110023
C90   C     C_3   0.785896 0.940847 0.328233 -0.842894
H47   H     H_    0.768994 0.904605 0.257934 0.250685
H48   H     H_    0.839001 0.962949 0.324362 0.217181
H49   H     H_    0.788277 0.906173 0.402259 0.267118
O22   O     O_3   0.166763 0.479358 0.330875 -0.576775
C91   C     C_3   0.235460 0.506363 0.330471 0.073241
H50   H     H_    0.252430 0.536244 0.406721 0.161466
H51   H     H_    0.239975 0.548422 0.266026 0.110085
C92   C     C_3   0.285782 0.440679 0.328104 -0.842974
H52   H     H_    0.268623 0.404330 0.258014 0.250839
H53   H     H_    0.338874 0.462622 0.323800 0.217226
H54   H     H_    0.288300 0.406156 0.402293 0.266989

loop_
_geom_bond_atom_site_label_1
_geom_bond_atom_site_label_2
_geom_bond_distance
_ccdc_geom_bond_type
C7    C16   1.448002 S    
C3    C64   1.459526 S    
C47   C51   1.390057 A    
O22   C91   1.416685 S    
C8    C15   1.449698 S    
C26   C30   1.418342 A    
N5    O17   1.300291 A    
C23   C27   1.389234 A    
C81   C83   1.382676 A    
C13   C53   1.383643 A    
O21   C89   1.416837 S    
O10   C6    1.319898 A    
C16   C60   1.399850 A    
C10   C58   1.393823 A    
C69   H41   1.082635 S    
C9    C57   1.395808 A    
C14   C54   1.384234 A    
C37   C53   1.387457 A    
C90   H48   1.110483 S    
H3    C59   1.083116 S    
O7    C3    1.318719 A    
C79   C81   1.392140 A    
C27   H21   1.077544 S    
C11   H11   1.083607 S    
Zn1   O10   1.949191 S    
C32   C36   1.409270 A    
C89   H45   1.108704 S    
C44   C46   1.392522 A    
C71   H39   1.073526 S    
C73   C77   1.416246 A    
C31   C37   1.409075 A    
C10   C42   1.403624 A    
C9    C41   1.404262 A    
C19   H19   1.083325 S    
C22   H26   1.082759 S    
C65   C87   1.401893 A    
C66   H36   1.081547 S    
O2    Zn1   1.967725 S    
C65   H35   1.081554 S    
C6    C13   1.449737 S    
O6    Zn3   1.949068 S    
C33   C49   1.412602 A    
Zn3   O14   1.967707 S    
N1    C87   1.364197 A    
C19   C63   1.404799 A    
C14   C58   1.399848 A    
C38   C42   1.419770 A    
C68   C70   1.382939 A    
C76   N4    1.353902 A    
C16   C56   1.384223 A    
C4    C63   1.456578 S    
C37   C41   1.418498 A    
C75   N3    1.353882 A    
O15   C7    1.312318 A    
O8    C4    1.322302 A    
C86   N6    1.427877 S    
O11   C7    1.318934 A    
C26   H24   1.078318 S    
C91   C92   1.524165 S    
C48   C52   1.387823 A    
C34   C62   1.409557 A    
C23   H27   1.082700 S    
H4    C60   1.082091 S    
C33   C61   1.407700 A    
O8    Zn4   1.949068 S    
C42   C48   1.392527 A    
C88   O22   1.393714 S    
C35   C63   1.407717 A    
C10   H10   1.083707 S    
C65   C79   1.391362 A    
C40   C56   1.390606 A    
C91   H51   1.113123 S    
C85   N5    1.427864 S    
C90   H49   1.109677 S    
C55   H15   1.076716 S    
C41   C47   1.393674 A    
C31   C35   1.404766 A    
Zn2   N2    2.080947 S    
C30   C34   1.409278 A    
C20   C24   1.384740 A    
C36   C52   1.413435 A    
C51   H31   1.080958 S    
C66   C88   1.401972 A    
O1    C1    1.316678 A    
C50   H30   1.081946 S    
C92   H53   1.110352 S    
C67   N3    1.356578 A    
C90   H47   1.109276 S    
C68   N4    1.356580 A    
C92   H54   1.109681 S    
C18   C62   1.401222 A    
O12   C8    1.319891 A    
C2    C61   1.456570 S    
N2    C88   1.364164 A    
C24   C28   1.387203 A    
Zn3   N3    2.068326 S    
C15   C55   1.383641 A    
N5    O18   1.301491 A    
C72   C74   1.414753 A    
C69   C71   1.387922 A    
O5    C1    1.318718 A    
Zn2   O12   1.949191 S    
C76   C84   1.398554 A    
C46   C50   1.387815 A    
C11   C43   1.404244 A    
H2    C58   1.082088 S    
C45   C49   1.390039 A    
C74   C78   1.416259 A    
H8    C48   1.083888 S    
C12   H12   1.083711 S    
C30   C40   1.411469 A    
C40   C44   1.419786 A    
C36   C64   1.409570 A    
C35   C51   1.412606 A    
C43   C45   1.393667 A    
C56   H16   1.078781 S    
O3    Zn2   1.966913 S    
C67   H37   1.078925 S    
Zn1   N1    2.080947 S    
H34   C82   1.084335 S    
C74   C76   1.406308 A    
O7    Zn4   1.935754 S    
C25   H23   1.077545 S    
N6    O20   1.301488 A    
C18   H18   1.074859 S    
Zn4   O15   1.966895 S    
C32   C38   1.411459 A    
C72   H40   1.073535 S    
C39   C55   1.387471 A    
C27   C31   1.416828 A    
O4    C4    1.311336 A    
C49   H29   1.080963 S    
C38   C54   1.390593 A    
C28   H22   1.078327 S    
C91   H50   1.108668 S    
C78   C80   1.417238 A    
C22   C26   1.387201 A    
C21   H25   1.082700 S    
C77   C79   1.417245 A    
O13   C5    1.312331 A    
C20   H20   1.074864 S    
C21   C25   1.389239 A    
C13   C57   1.401301 A    
C52   H32   1.081943 S    
C9    H9    1.083614 S    
C15   C59   1.401285 A    
Zn2   O11   1.935877 S    
C78   C86   1.404626 A    
C89   C90   1.524245 S    
C83   H43   1.068339 S    
O16   C8    1.312073 A    
C82   C84   1.382691 A    
C73   C75   1.406305 A    
C70   C72   1.387925 A    
C12   C44   1.403624 A    
C25   C29   1.416825 A    
C80   C82   1.392156 A    
C70   H42   1.082637 S    
H6    C46   1.083892 S    
C87   O21   1.393686 S    
C11   C59   1.395789 A    
Zn1   O9    1.935877 S    
C28   C32   1.418334 A    
H33   C81   1.084338 S    
N6    O19   1.300291 A    
C89   H46   1.113155 S    
O9    C5    1.318931 A    
C18   C22   1.384729 A    
C92   H52   1.109188 S    
C39   C43   1.418505 A    
C68   H38   1.078919 S    
C29   C39   1.409070 A    
Zn4   N4    2.068326 S    
C12   C60   1.393816 A    
H5    C45   1.083838 S    
H1    C57   1.083124 S    
C17   C21   1.386731 A    
C1    C62   1.459513 S    
C77   C85   1.404636 A    
C20   C64   1.401222 A    
C19   C23   1.386730 A    
O4    Zn2   1.967725 S    
C54   H14   1.078783 S    
O5    Zn3   1.935754 S    
O3    C3    1.316685 A    
O6    C2    1.322306 A    
C29   C33   1.404770 A    
Zn3   O13   1.966895 S    
C84   H44   1.068341 S    
O1    Zn1   1.966913 S    
Zn4   O16   1.967707 S    
O14   C6    1.312082 A    
N1    C85   1.354064 A    
C67   C69   1.382933 A    
N2    C86   1.354063 A    
C75   C83   1.398551 A    
C17   C61   1.404799 A    
C66   C80   1.391394 A    
C5    C14   1.448022 S    
C24   H28   1.082752 S    
C53   H13   1.076688 S    
C34   C50   1.413432 A    
C17   H17   1.083324 S    
H7    C47   1.083841 S    
C71   C73   1.414759 A    
O2    C2    1.311329 A    
