data_mof_unit_14875.cif
_audit_creation_date              2012-12-11T14:56:43-0500
_audit_creation_method            fapswitch 2.2
_symmetry_space_group_name_H-M    P1
_symmetry_Int_Tables_number       1
_space_group_crystal_system       triclinic
_cell_length_a                    10.511954
_cell_length_b                    10.659911
_cell_length_c                    17.087253
_cell_angle_alpha                 80.128904
_cell_angle_beta                  89.93539
_cell_angle_gamma                 119.211932
_cell_volume                      1638.45682754

loop_
_atom_site_label
_atom_site_type_symbol
_atom_type_description
_atom_site_fract_x
_atom_site_fract_y
_atom_site_fract_z
_atom_type_partial_charge
C1    C     C_R   0.278631 0.888432 0.132827 0.543118
C2    C     C_1   0.684621 0.402050 0.709846 -0.005573
C3    C     C_R   0.621978 0.713702 0.804469 -0.188674
C4    C     C_R   0.634074 0.272149 0.089757 0.566966
C5    C     C_R   0.607520 0.698887 0.726267 -0.203214
C6    C     C_R   0.669697 0.823510 0.665034 -0.033589
C7    C     C_R   0.752473 0.963469 0.682492 0.393394
C8    C     C_R   0.763780 0.978958 0.761420 0.392766
C9    C     C_R   0.691438 0.853615 0.822640 -0.042447
C10   C     C_R   0.101734 0.897758 0.786064 -0.147880
C11   C     C_R   0.098254 0.900164 0.706072 -0.133986
C12   C     C_R   0.713083 0.261085 0.300498 -0.202136
C13   C     C_R   0.125702 0.804185 0.671523 -0.029740
C14   C     C_R   0.147104 0.695732 0.720350 -0.011846
C15   C     C_R   0.149005 0.692467 0.803327 -0.000980
C16   C     C_R   0.643496 0.855679 0.124318 0.544276
C17   C     C_R   0.140521 0.804779 0.833668 -0.041622
C18   C     C_R   0.711353 0.772499 0.353592 0.564754
C19   C     C_R   0.682014 0.386147 0.398701 0.572342
C20   C     C_R   0.108264 0.812569 0.359872 0.543172
C21   C     C_R   0.677444 0.800410 0.585320 0.572396
C22   C     C_R   0.717454 0.446310 0.625950 0.550113
C23   C     C_R   0.715214 0.250009 0.221722 -0.209571
C24   C     C_R   0.094101 0.799698 0.588780 0.515085
C25   C     C_R   0.213042 0.855815 0.903557 0.539041
C26   C     C_R   0.640249 0.290833 0.861842 0.556825
C27   C     C_R   0.647772 0.867153 0.899374 0.567373
C28   C     C_R   0.552613 0.351560 0.197743 0.395557
C29   C     C_R   0.551288 0.364094 0.277055 0.392272
C30   C     C_R   0.638498 0.325942 0.327501 -0.031056
C31   C     C_2   0.168102 0.588841 0.684331 0.319558
C32   C     C_2   0.161996 0.575679 0.858374 0.334024
C33   C     C_R   0.639645 0.300210 0.169353 -0.025225
C34   C     C_1   0.685045 0.831601 0.201825 -0.000209
C35   C     C_1   0.703499 0.807357 0.270533 0.001242
C36   C     C_1   0.227368 0.853694 0.215536 -0.016964
C37   C     C_1   0.178789 0.834552 0.283058 -0.017977
C38   C     C_1   0.661743 0.358002 0.780386 0.001070
Cr1   Cr    Cr6+3 0.402240 0.783890 0.019450 1.098696
Cr2   Cr    Cr6+3 0.382360 0.097900 0.991800 1.095492
Cr3   Cr    Cr6+3 0.715380 0.118170 0.988700 1.084021
Cr4   Cr    Cr6+3 0.936650 0.882420 0.465510 1.086928
Cr5   Cr    Cr6+3 0.605770 0.565620 0.493360 1.091597
Cr6   Cr    Cr6+3 0.921340 0.550490 0.496380 1.096308
F1    F     F_    0.473235 0.393591 0.148388 -0.576608
F2    F     F_    0.473359 0.422905 0.302378 -0.572850
F3    F     F_    0.819672 0.084377 0.623316 -0.566669
F4    F     F_    0.835631 0.116259 0.777342 -0.543156
H1    H     H_    0.072002 0.978235 0.671470 0.187565
H2    H     H_    0.777897 0.228010 0.338900 0.184419
H3    H     H_    0.775948 0.201243 0.202005 0.177023
H4    H     H_    0.568151 0.615957 0.850913 0.188960
H5    H     H_    0.550016 0.589192 0.713812 0.174040
H6    H     H_    0.086954 0.978888 0.809152 0.178359
H7    H     H_    0.241492 0.626798 0.630252 0.108780
H8    H     H_    0.098990 0.529461 0.916447 0.106888
O1    O     O_R   0.521780 0.757110 0.108900 -0.455441
O2    O     O_R   0.805020 0.410040 0.421340 -0.504332
O3    O     O_R   0.049240 0.685450 0.403290 -0.494221
O4    O     O_R   0.275160 0.783810 0.101120 -0.485945
O5    O     O_R   0.077520 0.903010 0.551800 -0.499121
O6    O     O_R   0.802980 0.872780 0.546830 -0.452292
O7    O     O_R   0.578090 0.681300 0.569920 -0.534822
O8    O     O_R   0.608530 0.436370 0.586530 -0.500823
O9    O     O_R   0.798770 0.401880 0.597100 -0.411632
O10   O     O_R   0.043450 0.677890 0.566230 -0.525297
O11   O     O_3   0.821250 0.666180 0.485090 -0.332194
O12   O     O_R   0.513330 0.228330 0.898660 -0.495059
O13   O     O_R   0.237900 0.972600 0.090980 -0.489056
O14   O     O_R   0.511190 0.220540 0.061620 -0.462648
O15   O     O_R   0.736920 0.257720 0.063840 -0.537084
O16   O     O_R   0.710450 0.984050 0.081720 -0.520361
O17   O     O_R   0.524090 0.765520 0.933110 -0.492042
O18   O     O_R   0.277300 0.791600 0.938160 -0.505358
O19   O     O_R   0.240210 0.981010 0.915190 -0.497484
O20   O     O_2   0.098612 0.457641 0.712323 -0.381714
O21   O     O_2   0.247653 0.535797 0.841417 -0.463801
O22   O     O_R   0.739230 0.266130 0.888050 -0.454668
O23   O     O_R   0.712580 0.991850 0.918770 -0.434678
O24   O     O_3   0.499990 0.999980 0.999980 -0.301468
O25   O     O_R   0.083770 0.911170 0.376030 -0.491529
O26   O     O_R   0.808770 0.880340 0.383890 -0.499307
O27   O     O_R   0.584340 0.689460 0.394160 -0.454040
O28   O     O_R   0.614320 0.443940 0.423590 -0.446024

loop_
_geom_bond_atom_site_label_1
_geom_bond_atom_site_label_2
_ccdc_geom_bond_type
C24   O5    A    
Cr5   O27   S    
Cr6   O10   S    
C16   O16   A    
C14   C31   S    
Cr3   O24   S    
C4    O14   A    
Cr5   O7    S    
C7    C8    A    
C12   C23   A    
C26   O22   A    
Cr2   O14   S    
C3    C9    A    
C5    H5    S    
C28   C29   A    
C34   C35   T    
C27   O23   A    
C5    C6    A    
Cr6   O3    S    
Cr1   O1    S    
C25   O18   A    
Cr1   O18   S    
C16   C34   S    
C32   O21   D    
Cr6   O2    S    
C8    C9    A    
C23   C33   A    
Cr4   O26   S    
C2    C22   S    
Cr2   O24   S    
C18   C35   S    
Cr4   O6    S    
C24   O10   A    
Cr3   O15   S    
C20   O25   A    
Cr5   O28   S    
Cr6   O9    S    
Cr4   O25   S    
Cr5   O8    S    
C19   O2    A    
C28   F1    S    
Cr2   O13   S    
C15   C32   S    
C1    O4    A    
Cr3   O22   S    
C26   C38   S    
C6    C21   S    
C1    O13   A    
C13   C24   S    
C25   O19   A    
C7    F3    S    
C8    F4    S    
C22   O9    A    
C29   C30   A    
C11   H1    S    
C2    C38   T    
C23   H3    S    
C18   O27   A    
C20   O3    A    
Cr4   O5    S    
C21   O6    A    
Cr3   O16   S    
C28   C33   A    
Cr4   O11   S    
C19   O28   A    
C9    C27   S    
C15   C17   A    
C4    C33   S    
C36   C37   T    
C12   C30   A    
C3    C5    A    
Cr3   O23   S    
C12   H2    S    
C3    H4    S    
C6    C7    A    
Cr2   O19   S    
C29   F2    S    
C17   C25   S    
Cr1   O24   S    
C26   O12   A    
C27   O17   A    
C20   C37   S    
C11   C13   A    
C31   O20   D    
Cr1   O4    S    
C18   O26   A    
C16   O1    A    
Cr1   O17   S    
C10   H6    S    
C21   O7    A    
C10   C11   A    
C22   O8    A    
Cr5   O11   S    
Cr2   O12   S    
C14   C15   A    
Cr6   O11   S    
C10   C17   A    
C31   H7    S    
C13   C14   A    
C19   C30   S    
C32   H8    S    
C4    O15   A    
C1    C36   S    
