data_mof_unit_64086.cif
_audit_creation_date              2012-12-10T17:56:23-0500
_audit_creation_method            fapswitch 2.2
_symmetry_space_group_name_H-M    P1
_symmetry_Int_Tables_number       1
_space_group_crystal_system       monoclinic
_cell_length_a                    21.683041
_cell_length_b                    21.683041
_cell_length_c                    29.11987
_cell_angle_alpha                 90.000016
_cell_angle_beta                  90.0
_cell_angle_gamma                 90.0
_cell_volume                      13690.8311352

loop_
_atom_site_label
_atom_site_type_symbol
_atom_type_description
_atom_site_fract_x
_atom_site_fract_y
_atom_site_fract_z
_atom_type_partial_charge
C1    C     C_R   0.380250 0.000000 1.000000 1.026565
C2    C     C_R   0.121764 0.000000 1.000000 0.967945
C3    C     C_R   0.000000 0.121764 0.000000 0.967945
C4    C     C_R   0.878236 1.000000 0.000000 0.967946
C5    C     C_R   0.500000 0.378236 0.500000 0.967946
C6    C     C_R   0.621764 0.500000 0.500000 0.967945
C7    C     C_R   0.500000 0.621764 0.500000 0.967945
C8    C     C_R   0.378236 0.500000 0.500000 0.967946
C9    C     C_R   0.500000 1.000000 0.085741 0.988568
C10   C     C_R   1.000000 0.500000 0.085741 0.988568
C11   C     C_R   0.500000 1.000000 0.914259 0.988567
C12   C     C_R   1.000000 0.380250 0.000000 1.026565
C13   C     C_R   0.000000 0.500000 0.914259 0.988567
C14   C     C_R   1.000000 0.500000 0.585741 0.988568
C15   C     C_R   0.500000 1.000000 0.585741 0.988568
C16   C     C_R   0.000000 0.500000 0.414259 0.988567
C17   C     C_R   0.500000 0.000000 0.414259 0.988567
C18   C     C_1   0.500000 1.000000 0.136562 -0.011994
C19   C     C_1   1.000000 0.500000 0.136562 -0.011994
C20   C     C_1   0.500000 1.000000 0.863438 -0.011995
C21   C     C_1   0.000000 0.500000 0.863438 -0.011995
C22   C     C_1   1.000000 0.500000 0.636562 -0.011994
C23   C     C_R   0.619750 0.000000 0.000000 1.026564
C24   C     C_1   0.500000 0.000000 0.636562 -0.011994
C25   C     C_1   0.000000 0.500000 0.363438 -0.011995
C26   C     C_1   0.500000 1.000000 0.363438 -0.011995
C27   C     C_1   0.500000 1.000000 0.178873 0.056651
C28   C     C_1   1.000000 0.500000 0.178873 0.056651
C29   C     C_1   0.500000 1.000000 0.821127 0.056652
C30   C     C_1   1.000000 0.500000 0.821127 0.056652
C31   C     C_1   1.000000 0.500000 0.678873 0.056651
C32   C     C_1   0.500000 0.000000 0.678873 0.056651
C33   C     C_1   1.000000 0.500000 0.321127 0.056651
C34   C     C_R   1.000000 0.619750 1.000000 1.026565
C35   C     C_1   0.500000 0.000000 0.321127 0.056651
C36   C     C_1   0.500000 1.000000 0.228841 0.047877
C37   C     C_1   1.000000 0.500000 0.228841 0.047877
C38   C     C_1   0.500000 1.000000 0.771159 0.047877
C39   C     C_1   1.000000 0.500000 0.771159 0.047877
C40   C     C_1   0.000000 0.500000 0.728841 0.047877
C41   C     C_1   0.500000 1.000000 0.728841 0.047877
C42   C     C_1   1.000000 0.500000 0.271159 0.047877
C43   C     C_1   0.500000 0.000000 0.271159 0.047877
C44   C     C_R   0.283143 0.000001 0.957765 0.413576
C45   C     C_R   0.880250 0.500000 0.500000 1.026565
C46   C     C_R   0.999999 0.283143 0.957765 0.413576
C47   C     C_R   0.716857 0.999999 0.957765 0.413576
C48   C     C_R   0.000001 0.716857 0.957765 0.413576
C49   C     C_R   0.716857 0.000001 0.042235 0.413577
C50   C     C_R   0.000001 0.283143 0.042235 0.413577
C51   C     C_R   0.283143 0.999999 0.042235 0.413576
C52   C     C_R   0.999999 0.716857 0.042235 0.413576
C53   C     C_R   0.783143 0.500002 0.457765 0.413575
C54   C     C_R   0.499998 0.783143 0.457765 0.413576
C55   C     C_R   0.216857 0.500000 0.457765 0.413575
C56   C     C_R   0.500000 0.880250 0.500000 1.026565
C57   C     C_R   0.500001 0.216857 0.457765 0.413576
C58   C     C_R   0.216857 0.500000 0.542235 0.413576
C59   C     C_R   0.500002 0.783143 0.542235 0.413576
C60   C     C_R   0.783143 0.499998 0.542235 0.413576
C61   C     C_R   0.499999 0.216857 0.542235 0.413576
C62   C     C_R   0.219431 0.000002 0.958228 -0.208520
C63   C     C_R   0.999998 0.219431 0.958228 -0.208519
C64   C     C_R   0.780569 0.999999 0.958228 -0.208520
C65   C     C_R   0.000001 0.780569 0.958228 -0.208520
C66   C     C_R   0.780569 0.000001 0.041772 -0.208520
C67   C     C_R   0.119750 0.500000 0.500000 1.026565
C68   C     C_R   0.000002 0.219431 0.041772 -0.208521
C69   C     C_R   0.219431 0.999998 0.041772 -0.208520
C70   C     C_R   0.999998 0.780569 0.041772 -0.208519
C71   C     C_R   0.719431 0.500002 0.458228 -0.208519
C72   C     C_R   0.499998 0.719431 0.458228 -0.208519
C73   C     C_R   0.280569 0.499999 0.458228 -0.208519
C74   C     C_R   0.500002 0.280569 0.458228 -0.208520
C75   C     C_R   0.280569 0.500000 0.541772 -0.208519
C76   C     C_R   0.500002 0.719431 0.541772 -0.208520
C77   C     C_R   0.719431 0.499998 0.541772 -0.208519
C78   C     C_R   0.500000 0.119750 0.500000 1.026565
C79   C     C_R   0.499998 0.280569 0.541772 -0.208520
C80   C     C_R   0.187895 0.000000 1.000000 -0.216776
C81   C     C_R   0.000000 0.187895 0.000000 -0.216775
C82   C     C_R   0.812105 1.000000 0.000000 -0.216775
C83   C     C_R   1.000000 0.812105 1.000000 -0.216775
C84   C     C_R   0.687895 0.500000 0.500000 -0.216776
C85   C     C_R   0.500000 0.687895 0.500000 -0.216775
C86   C     C_R   0.312105 0.500000 0.500000 -0.216776
C87   C     C_R   0.500000 0.312105 0.500000 -0.216775
C88   C     C_R   0.314698 0.000000 1.000000 -0.307160
C89   C     C_R   1.000000 0.878236 1.000000 0.967946
C90   C     C_R   1.000000 0.314698 0.000000 -0.307160
C91   C     C_R   0.685302 0.000000 0.000000 -0.307160
C92   C     C_R   1.000000 0.685302 1.000000 -0.307160
C93   C     C_R   0.814698 0.500000 0.500000 -0.307160
C94   C     C_R   0.500000 0.814698 0.500000 -0.307160
C95   C     C_R   0.185302 0.500000 0.500000 -0.307160
C96   C     C_R   0.500000 0.185302 0.500000 -0.307160
H1    H     H_    0.194287 0.000002 0.926106 0.226242
H2    H     H_    0.499997 0.694287 0.426106 0.226242
H3    H     H_    0.305713 0.499999 0.426106 0.226242
H4    H     H_    0.500003 0.305713 0.426106 0.226242
H5    H     H_    0.305713 0.500001 0.573894 0.226242
H6    H     H_    0.500003 0.694287 0.573894 0.226242
H7    H     H_    0.694287 0.499997 0.573894 0.226242
H8    H     H_    0.499997 0.305713 0.573894 0.226242
H9    H     H_    0.296751 0.000002 0.832380 0.396097
H10   H     H_    0.000001 0.296751 0.832380 0.396097
H11   H     H_    0.703249 0.999998 0.832380 0.396097
H12   H     H_    0.999997 0.194287 0.926106 0.226242
H13   H     H_    0.000002 0.703249 0.832380 0.396097
H14   H     H_    0.703249 0.000001 0.167620 0.396097
H15   H     H_    0.000002 0.296751 0.167620 0.396097
H16   H     H_    0.296751 0.000000 0.167620 0.396096
H17   H     H_    0.999998 0.703249 0.167620 0.396097
H18   H     H_    0.796751 0.500003 0.332380 0.396096
H19   H     H_    0.499995 0.796751 0.332380 0.396097
H20   H     H_    0.203249 0.500010 0.332380 0.396096
H21   H     H_    0.500002 0.203249 0.332380 0.396097
H22   H     H_    0.203249 0.499980 0.667619 0.396099
H23   H     H_    0.805713 0.999998 0.926106 0.226242
H24   H     H_    0.500002 0.796751 0.667620 0.396097
H25   H     H_    0.796751 0.499996 0.667620 0.396097
H26   H     H_    0.499998 0.203249 0.667620 0.396096
H27   H     H_    0.000002 0.805713 0.926106 0.226242
H28   H     H_    0.805713 0.000002 0.073894 0.226242
H29   H     H_    0.000003 0.194287 0.073894 0.226242
H30   H     H_    0.194287 0.999997 0.073894 0.226242
H31   H     H_    0.999998 0.805713 0.073894 0.226242
H32   H     H_    0.694287 0.500003 0.426106 0.226242
O1    O     O_R   0.408380 0.948270 0.000000 -0.585293
O2    O     O_R   0.551730 0.908380 0.500000 -0.585293
O3    O     O_R   0.091620 0.551730 0.500000 -0.585294
O4    O     O_R   0.448270 0.091620 0.500000 -0.585293
O5    O     O_R   0.091620 0.448270 0.500000 -0.585292
O6    O     O_R   0.448270 0.908380 0.500000 -0.585292
O7    O     O_R   0.908380 0.551730 0.500000 -0.585293
O8    O     O_R   0.551730 0.091620 0.500000 -0.585293
O9    O     O_R   0.499990 0.948270 0.063150 -0.585462
O10   O     O_R   0.051730 0.499990 0.063150 -0.585463
O11   O     O_R   0.500010 0.051730 0.063150 -0.585463
O12   O     O_R   0.051730 0.408380 0.000000 -0.585293
O13   O     O_R   0.948270 0.500010 0.063150 -0.585462
O14   O     O_R   0.500010 0.948270 0.936850 -0.585462
O15   O     O_R   0.948270 0.499990 0.936850 -0.585462
O16   O     O_R   0.499990 0.051730 0.936850 -0.585462
O17   O     O_R   0.051730 0.500010 0.936850 -0.585462
O18   O     O_R   0.999990 0.448270 0.563150 -0.585461
O19   O     O_R   0.551730 0.999990 0.563150 -0.585463
O20   O     O_R   0.000010 0.551730 0.563150 -0.585464
O21   O     O_R   0.448270 0.000010 0.563150 -0.585462
O22   O     O_R   0.000010 0.448270 0.436850 -0.585463
O23   O     O_R   0.591620 0.051730 0.000000 -0.585293
O24   O     O_R   0.448270 0.999990 0.436850 -0.585462
O25   O     O_R   0.999990 0.551730 0.436850 -0.585461
O26   O     O_R   0.551730 0.000010 0.436850 -0.585462
O27   O     O_R   0.000010 0.908280 0.964370 -0.622793
O28   O     O_R   0.091720 0.000010 0.964370 -0.622794
O29   O     O_R   0.999990 0.091720 0.964370 -0.622794
O30   O     O_R   0.908280 0.999990 0.964370 -0.622793
O31   O     O_R   0.999990 0.908280 0.035630 -0.622794
O32   O     O_R   0.908280 0.000010 0.035630 -0.622794
O33   O     O_R   0.000010 0.091720 0.035630 -0.622794
O34   O     O_R   0.948270 0.591620 0.000000 -0.585293
O35   O     O_R   0.091720 0.999990 0.035630 -0.622794
O36   O     O_R   0.500010 0.408280 0.464370 -0.622793
O37   O     O_R   0.591720 0.500010 0.464370 -0.622794
O38   O     O_R   0.499990 0.591720 0.464370 -0.622794
O39   O     O_R   0.408280 0.499990 0.464370 -0.622793
O40   O     O_R   0.499990 0.408280 0.535630 -0.622795
O41   O     O_R   0.408280 0.500010 0.535630 -0.622794
O42   O     O_R   0.500010 0.591720 0.535630 -0.622794
O43   O     O_R   0.591720 0.499990 0.535630 -0.622794
O44   O     O_2   0.361735 0.056553 0.900892 -0.314126
O45   O     O_R   0.591620 0.948270 0.000000 -0.585293
O46   O     O_2   0.361738 0.943453 0.900892 -0.314152
O47   O     O_3   0.271110 0.000001 0.860536 -0.531209
O48   O     O_2   0.943446 0.361735 0.900892 -0.314123
O49   O     O_2   0.056547 0.361738 0.900892 -0.314155
O50   O     O_3   0.999999 0.271110 0.860536 -0.531209
O51   O     O_2   0.638265 0.943447 0.900892 -0.314128
O52   O     O_2   0.638261 0.056548 0.900892 -0.314150
O53   O     O_3   0.728890 0.000000 0.860536 -0.531209
O54   O     O_2   0.056553 0.638264 0.900892 -0.314126
O55   O     O_2   0.943453 0.638262 0.900892 -0.314152
O56   O     O_R   0.948270 0.408380 0.000000 -0.585293
O57   O     O_3   0.000001 0.728890 0.860536 -0.531208
O58   O     O_2   0.638265 0.056553 0.099108 -0.314127
O59   O     O_2   0.638261 0.943452 0.099107 -0.314151
O60   O     O_3   0.728890 1.000000 0.139464 -0.531208
O61   O     O_2   0.056554 0.361735 0.099108 -0.314125
O62   O     O_2   0.943453 0.361738 0.099108 -0.314152
O63   O     O_3   0.000001 0.271110 0.139464 -0.531209
O64   O     O_2   0.361735 0.943446 0.099108 -0.314124
O65   O     O_2   0.361738 0.056547 0.099108 -0.314154
O66   O     O_3   0.271110 0.999999 0.139464 -0.531208
O67   O     O_R   0.408380 0.051730 0.000000 -0.585293
O68   O     O_2   0.943447 0.638265 0.099108 -0.314126
O69   O     O_2   0.056547 0.638262 0.099108 -0.314152
O70   O     O_3   0.999999 0.728890 0.139464 -0.531209
O71   O     O_2   0.861735 0.556554 0.400892 -0.314125
O72   O     O_2   0.861738 0.443454 0.400892 -0.314153
O73   O     O_3   0.771110 0.500002 0.360536 -0.531207
O74   O     O_2   0.443445 0.861735 0.400893 -0.314127
O75   O     O_2   0.556546 0.861738 0.400892 -0.314151
O76   O     O_3   0.499998 0.771110 0.360536 -0.531209
O77   O     O_2   0.138265 0.443449 0.400891 -0.314121
O78   O     O_R   0.051730 0.591620 0.000000 -0.585293
O79   O     O_2   0.138262 0.556549 0.400893 -0.314157
O80   O     O_3   0.228890 0.500003 0.360536 -0.531207
O81   O     O_2   0.556554 0.138265 0.400892 -0.314126
O82   O     O_2   0.443453 0.138262 0.400892 -0.314152
O83   O     O_3   0.500001 0.228890 0.360536 -0.531208
O84   O     O_2   0.138264 0.556551 0.599109 -0.314112
O85   O     O_2   0.138262 0.443450 0.599107 -0.314166
O86   O     O_3   0.228890 0.499998 0.639464 -0.531211
O87   O     O_2   0.556554 0.861735 0.599107 -0.314124
O88   O     O_2   0.443454 0.861738 0.599108 -0.314153
O89   O     O_R   0.908380 0.448270 0.500000 -0.585292
O90   O     O_3   0.500002 0.771110 0.639464 -0.531208
O91   O     O_2   0.861735 0.443446 0.599107 -0.314126
O92   O     O_2   0.861738 0.556546 0.599108 -0.314152
O93   O     O_3   0.771110 0.499998 0.639464 -0.531209
O94   O     O_2   0.443446 0.138265 0.599107 -0.314126
O95   O     O_2   0.556547 0.138262 0.599108 -0.314152
O96   O     O_3   0.499999 0.228890 0.639464 -0.531208
S1    S     S_3+6 0.321918 0.000002 0.904189 0.019665
S2    S     S_3+6 0.499997 0.821918 0.404189 0.019665
S3    S     S_3+6 0.178082 0.500000 0.404189 0.019665
S4    S     S_3+6 0.500003 0.178082 0.404189 0.019665
S5    S     S_3+6 0.178082 0.500000 0.595811 0.019664
S6    S     S_3+6 0.500003 0.821918 0.595811 0.019665
S7    S     S_3+6 0.821918 0.499997 0.595811 0.019665
S8    S     S_3+6 0.499997 0.178082 0.595811 0.019665
S9    S     S_3+6 0.999998 0.321918 0.904189 0.019665
S10   S     S_3+6 0.678082 0.999998 0.904189 0.019665
S11   S     S_3+6 0.000002 0.678082 0.904189 0.019665
S12   S     S_3+6 0.678082 0.000001 0.095811 0.019665
S13   S     S_3+6 0.000002 0.321918 0.095811 0.019665
S14   S     S_3+6 0.321918 0.999998 0.095811 0.019665
S15   S     S_3+6 0.999998 0.678082 0.095811 0.019665
S16   S     S_3+6 0.821918 0.500003 0.404189 0.019665
Zn1   Zn    Zn3+2 0.500000 0.930930 0.000000 1.138870
Zn2   Zn    Zn3+2 0.000000 1.000000 0.047590 1.042812
Zn3   Zn    Zn3+2 0.500000 0.500000 0.452410 1.042812
Zn4   Zn    Zn3+2 0.500000 0.500000 0.547590 1.042812
Zn5   Zn    Zn3+2 0.069070 0.500000 0.000000 1.138870
Zn6   Zn    Zn3+2 0.500000 0.069070 0.000000 1.138870
Zn7   Zn    Zn3+2 0.930930 0.500000 0.000000 1.138870
Zn8   Zn    Zn3+2 1.000000 0.430930 0.500000 1.138870
Zn9   Zn    Zn3+2 0.569070 0.000000 0.500000 1.138870
Zn10  Zn    Zn3+2 0.000000 0.569070 0.500000 1.138870
Zn11  Zn    Zn3+2 0.430930 0.000000 0.500000 1.138870
Zn12  Zn    Zn3+2 0.000000 1.000000 0.952410 1.042812

loop_
_geom_bond_atom_site_label_1
_geom_bond_atom_site_label_2
_ccdc_geom_bond_type
C70   H31   S    
O63   S13   S    
O25   Zn10  S    
H15   O63   S    
O16   Zn6   S    
O43   Zn4   S    
O87   S6    D    
C45   O89   A    
O89   Zn8   S    
C13   O17   A    
C45   C93   S    
O71   S16   D    
O23   Zn6   S    
O72   S16   D    
C72   C85   A    
C61   C96   A    
C5    O36   A    
O74   S2    D    
C72   H2    S    
C34   O78   A    
C56   C94   S    
C56   O6    A    
H14   O60   S    
O95   S8    D    
C64   H23   S    
H11   O53   S    
C69   C80   A    
C33   C42   S    
C12   C90   S    
C67   O5    A    
O46   S1    D    
O30   Zn12  S    
C49   S12   S    
C1    O1    A    
O96   S8    S    
O80   S3    S    
C89   O27   A    
O40   Zn4   S    
C60   S7    S    
O18   Zn8   S    
O34   Zn7   S    
C61   S8    S    
C31   C40   S    
O35   Zn2   S    
C5    O40   A    
C55   S3    S    
C37   C42   T    
C78   O4    A    
O90   S6    S    
O7    Zn10  S    
C71   H32   S    
C52   S15   S    
C57   S4    S    
C9    O9    A    
O53   S10   S    
C50   C90   A    
C54   S2    S    
C78   C96   S    
O11   Zn6   S    
C57   C96   A    
C29   C38   S    
C3    C81   S    
O88   S6    D    
H17   O70   S    
C12   O12   A    
O37   Zn3   S    
C59   C94   A    
C48   C65   A    
C35   C43   S    
C11   O16   A    
O31   Zn2   S    
C8    C86   S    
O59   S12   D    
O60   S12   S    
O3    Zn10  S    
C20   C29   T    
C47   S10   S    
O9    Zn1   S    
C60   C93   A    
C1    C88   S    
C13   O15   A    
C59   S6    S    
C6    O37   A    
O52   S10   D    
O10   Zn5   S    
H26   O96   S    
C52   C92   A    
C67   C95   S    
O38   Zn3   S    
O62   S13   D    
C47   C91   A    
O6    Zn11  S    
C49   C91   A    
O51   S10   D    
C17   O26   A    
C53   S16   S    
C79   C87   A    
C68   H29   S    
C78   O8    A    
C58   C75   A    
C89   O31   A    
O58   S12   D    
C6    O43   A    
C76   H6    S    
C83   C89   S    
O67   Zn6   S    
C4    O30   A    
C11   C20   S    
C45   O7    A    
C6    C84   S    
C49   C66   A    
C53   C93   A    
O12   Zn5   S    
C46   S9    S    
H21   O83   S    
O78   Zn5   S    
C52   C70   A    
C38   C41   T    
C55   C95   A    
C54   C72   A    
C22   C31   T    
C39   C40   T    
C14   O20   A    
O49   S9    D    
C77   C84   A    
H13   O57   S    
O69   S15   D    
C7    C85   S    
C10   O13   A    
C5    C87   S    
C57   C74   A    
C2    O35   A    
O22   Zn8   S    
C58   C95   A    
C24   C32   T    
C70   C83   A    
C8    O39   A    
C66   C82   A    
C62   H1    S    
O44   S1    D    
C26   C35   T    
C75   C86   A    
O64   S14   D    
O48   S9    D    
C65   C83   A    
C10   C19   S    
C32   C41   S    
C64   C82   A    
H19   O76   S    
O93   S7    S    
H18   O73   S    
C13   C21   S    
H22   O86   S    
C79   H8    S    
O66   S14   S    
C19   C28   T    
H16   O66   S    
O33   Zn2   S    
H20   O80   S    
O54   S11   D    
C46   C90   A    
O79   S3    D    
C15   C24   S    
O57   S11   S    
C7    O38   A    
C63   C81   A    
C69   H30   S    
O39   Zn3   S    
O83   S4    S    
O81   S4    D    
C48   C92   A    
C74   C87   A    
O56   Zn7   S    
C66   H28   S    
O8    Zn9   S    
C77   H7    S    
C17   O24   A    
C17   C26   S    
O41   Zn4   S    
O76   S2    S    
C53   C71   A    
O29   Zn12  S    
C47   C64   A    
O85   S5    D    
C8    O41   A    
O73   S16   S    
C3    O29   A    
C71   C84   A    
C44   S1    S    
O2    Zn9   S    
C62   C80   A    
C16   C25   S    
C73   H3    S    
C23   O23   A    
O19   Zn9   S    
C2    O28   A    
O92   S7    D    
C1    O67   A    
O61   S13   D    
O82   S4    D    
C15   O21   A    
C50   S13   S    
C67   O3    A    
C18   C27   T    
O91   S7    D    
C34   O34   A    
C51   C88   A    
O50   S9    S    
C74   H4    S    
O27   Zn12  S    
O28   Zn12  S    
C23   O45   A    
O26   Zn9   S    
C27   C36   S    
O14   Zn1   S    
C51   C69   A    
C21   C30   T    
C14   O18   A    
O20   Zn10  S    
O47   S1    S    
O17   Zn5   S    
C46   C63   A    
C44   C62   A    
C60   C77   A    
C14   C22   S    
O42   Zn4   S    
C58   S5    S    
C44   C88   A    
C15   O19   A    
O84   S5    D    
C9    O11   A    
C4    O32   A    
C68   C81   A    
O1    Zn1   S    
C28   C37   S    
C61   C79   A    
C76   C85   A    
O13   Zn7   S    
O15   Zn7   S    
C30   C39   S    
O77   S3    D    
C51   S14   S    
C23   C91   S    
C65   H27   S    
C12   O56   A    
C11   O14   A    
C34   C92   S    
O65   S14   D    
C54   C94   A    
C48   S11   S    
C2    C80   S    
O70   S15   S    
C3    O33   A    
O5    Zn8   S    
O94   S8    D    
O21   Zn11  S    
C55   C73   A    
O45   Zn1   S    
C9    C18   S    
C4    C82   S    
H24   O90   S    
H9    O47   S    
C7    O42   A    
C25   C33   T    
C16   O25   A    
C75   H5    S    
H25   O93   S    
C36   C43   T    
C16   O22   A    
C73   C86   A    
C10   O10   A    
O32   Zn2   S    
C63   H12   S    
O86   S5    S    
O36   Zn3   S    
C50   C68   A    
C59   C76   A    
H10   O50   S    
O75   S2    D    
C56   O2    A    
O4    Zn11  S    
O55   S11   D    
O68   S15   D    
O24   Zn11  S    
