data_mof_unit_67873.cif
_audit_creation_date              2012-12-10T16:55:48-0500
_audit_creation_method            fapswitch 2.2
_symmetry_space_group_name_H-M    P1
_symmetry_Int_Tables_number       1
_space_group_crystal_system       triclinic
_cell_length_a                    7.78289
_cell_length_b                    8.554087
_cell_length_c                    10.463629
_cell_angle_alpha                 90.398721
_cell_angle_beta                  85.581024
_cell_angle_gamma                 93.61275
_cell_volume                      693.168859533

loop_
_atom_site_label
_atom_site_type_symbol
_atom_type_description
_atom_site_fract_x
_atom_site_fract_y
_atom_site_fract_z
_atom_type_partial_charge
C1    C     C_R   0.545762 0.794686 0.496523 0.976710
C2    C     C_3   0.503149 0.496965 0.876994 -0.105976
C3    C     C_3   0.332812 0.502306 0.049488 -0.318493
C4    C     C_3   0.666197 0.499441 0.950934 -0.276539
C5    C     C_2   0.569849 0.958246 0.494173 -0.373861
C6    C     C_2   0.430158 0.041757 0.504701 -0.372979
C7    C     C_3   0.678039 0.893903 0.010112 0.068502
C8    C     C_3   0.783729 0.887976 0.880214 -0.404782
C9    C     C_3   0.779316 0.041642 0.807344 -0.899053
C10   C     C_3   0.182747 0.182175 0.995512 0.073168
C11   C     C_3   0.224903 0.121561 0.127066 -0.407692
C12   C     C_R   0.454240 0.205319 0.503137 0.967996
C13   C     C_3   0.064876 0.045255 0.200640 -0.912649
C14   C     C_R   0.501071 0.496769 0.742308 0.923010
C15   C     C_R   0.498952 0.503610 0.257703 0.916875
C16   C     C_3   0.425860 0.629052 0.959218 -0.353370
C17   C     C_3   0.572906 0.372568 0.040506 -0.309969
C18   C     C_3   0.588050 0.629106 0.034696 0.592672
C19   C     C_3   0.411265 0.372477 0.965399 0.591883
C20   C     C_3   0.496634 0.504206 0.123022 -0.103202
H1    H     H_    0.364246 0.729117 0.918457 0.160844
H2    H     H_    0.542736 0.919963 0.997285 0.141359
H3    H     H_    0.919486 0.865189 0.895753 0.222276
H4    H     H_    0.730536 0.791830 0.820256 0.217393
H5    H     H_    0.644792 0.062236 0.786307 0.286526
H6    H     H_    0.859733 0.035749 0.715253 0.260255
H7    H     H_    0.830659 0.141588 0.864374 0.253347
H8    H     H_    0.118574 0.083700 0.944205 0.180156
H9    H     H_    0.088131 0.274499 0.005836 0.131764
H10   H     H_    0.324021 0.034198 0.114046 0.225088
H11   H     H_    0.276506 0.219276 0.186023 0.216032
H12   H     H_    0.629266 0.268071 0.078652 0.143599
H13   H     H_    0.961746 0.129386 0.213142 0.251574
H14   H     H_    0.098255 0.008618 0.296827 0.265508
H15   H     H_    0.016552 0.939835 0.148617 0.285647
H16   H     H_    0.199833 0.506123 0.095659 0.171405
H17   H     H_    0.800735 0.500027 0.906965 0.163041
H18   H     H_    0.013768 0.382631 0.404115 0.192213
H19   H     H_    0.986213 0.617334 0.595895 0.187891
H20   H     H_    0.701763 0.009354 0.484053 0.180657
H21   H     H_    0.298246 0.990653 0.514713 0.178209
H22   H     H_    0.731796 0.993776 0.065912 0.163393
N1    N     N_2   0.950320 0.457950 0.465730 -0.171602
N2    N     N_2   0.049680 0.542050 0.534270 -0.172248
O1    O     O_R   0.389250 0.738570 0.508410 -0.617923
O2    O     O_3   0.332217 0.232925 0.917564 -0.662280
O3    O     O_R   0.610750 0.261430 0.491590 -0.618877
O4    O     O_R   0.678390 0.711620 0.486450 -0.624474
O5    O     O_R   0.321610 0.288380 0.513550 -0.626124
O6    O     O_R   0.355460 0.513510 0.697030 -0.609075
O7    O     O_R   0.644540 0.486490 0.302970 -0.603759
O8    O     O_R   0.644600 0.486560 0.675070 -0.641666
O9    O     O_R   0.355400 0.513440 0.324930 -0.640233
O10   O     O_3   0.688247 0.756724 0.083222 -0.652754
Zn1   Zn    Zn3+2 0.306940 0.517990 0.514670 0.945474
Zn2   Zn    Zn3+2 0.693060 0.482010 0.485330 0.945113

loop_
_geom_bond_atom_site_label_1
_geom_bond_atom_site_label_2
_ccdc_geom_bond_type
C10   O2    S    
C2    C4    S    
N1    N2    D    
C1    O4    A    
C3    C19   S    
H19   N2    S    
O1    Zn1   S    
C15   O7    A    
C7    H2    S    
C2    C16   S    
O6    Zn1   S    
N2    Zn1   S    
C4    C18   S    
C8    H3    S    
C12   O5    A    
C19   O2    S    
C9    H5    S    
C3    C20   S    
C13   H13   S    
C5    C6    D    
C11   C13   S    
C10   H9    S    
C1    O1    A    
C14   O6    A    
C3    H16   S    
C12   O3    A    
C1    C5    S    
C4    C17   S    
C15   O9    A    
C8    H4    S    
C9    H6    S    
C13   H15   S    
C18   C20   S    
O9    Zn1   S    
C6    C12   S    
C15   C20   S    
C2    C14   S    
C7    H22   S    
C7    C8    S    
C10   C11   S    
C18   O10   S    
C11   H11   S    
N1    Zn2   S    
H18   N1    S    
C17   C20   S    
C4    H17   S    
C9    H7    S    
C16   C18   S    
O7    Zn2   S    
C5    H20   S    
C10   H8    S    
O4    Zn2   S    
C17   H12   S    
C8    C9    S    
C13   H14   S    
C7    O10   S    
C17   C19   S    
C2    C19   S    
O5    Zn1   S    
C16   H1    S    
C14   O8    A    
C3    C16   S    
O8    Zn2   S    
C11   H10   S    
O3    Zn2   S    
C6    H21   S    
