data_mof_unit_31415.cif
_audit_creation_date              2012-12-11T14:29:34-0500
_audit_creation_method            fapswitch 2.2
_symmetry_space_group_name_H-M    P1
_symmetry_Int_Tables_number       1
_space_group_crystal_system       triclinic
_cell_length_a                    6.942534
_cell_length_b                    14.746267
_cell_length_c                    16.258165
_cell_angle_alpha                 90.471894
_cell_angle_beta                  89.442882
_cell_angle_gamma                 89.752129
_cell_volume                      1664.3020862

loop_
_atom_site_label
_atom_site_type_symbol
_atom_type_description
_atom_site_fract_x
_atom_site_fract_y
_atom_site_fract_z
_atom_type_partial_charge
O1    O     O_R   0.494400 0.416610 0.413880 -0.543551
O2    O     O_R   0.823920 0.406790 0.585520 -0.536974
O3    O     O_R   0.994250 0.583390 0.586120 -0.533062
C1    C     C_R   0.654399 0.384918 0.613413 0.750812
O4    O     O_R   0.824110 0.405730 0.414490 -0.541615
O5    O     O_R   0.994440 0.582310 0.413870 -0.548627
C2    C     C_R   0.656639 0.385685 0.385329 0.733898
O6    O     O_R   0.494210 0.417690 0.586130 -0.536736
O7    O     O_3   0.660810 0.557940 0.500000 -0.373542
V1    V     V_3+5 0.935650 0.489250 0.500000 1.425153
O8    O     O_R   0.324160 0.593210 0.414480 -0.546234
C3    C     C_R   0.156471 0.612877 0.384823 0.665600
O9    O     O_R   0.323970 0.594270 0.585510 -0.533606
C4    C     C_R   0.154399 0.615308 0.614547 0.796465
V2    V     V_3+5 0.435660 0.510750 0.500000 1.423337
O10   O     O_3   0.160630 0.442060 0.500000 -0.368264
H1    H     H_    0.059443 0.918648 0.504379 0.111147
C5    C     C_R   0.178685 0.559339 0.790445 0.190072
C6    C     C_R   0.194054 0.535289 0.873334 -0.162987
C7    C     C_R   0.187573 0.600584 0.934986 -0.151369
C8    C     C_R   0.164405 0.691282 0.915320 -0.131068
C9    C     C_R   0.148112 0.719235 0.832684 0.026020
C10   C     C_R   0.156969 0.652620 0.767987 0.068832
C11   C     C_R   0.121754 0.812401 0.814729 -0.168098
C12   C     C_R   0.104624 0.840060 0.731983 0.072131
C13   C     C_R   0.115642 0.774903 0.666914 0.048178
C14   C     C_R   0.142524 0.681448 0.684331 -0.186443
C15   C     C_R   0.077043 0.932565 0.712466 -0.137672
C16   C     C_R   0.060771 0.960210 0.631108 -0.118184
C17   C     C_R   0.071943 0.896820 0.567525 -0.115492
C18   C     C_R   0.099165 0.805287 0.584815 -0.134090
H2    H     H_    0.210716 0.464727 0.890001 0.114931
H3    H     H_    0.199558 0.580712 0.998702 0.129047
H4    H     H_    0.158938 0.739263 0.966010 0.106284
H5    H     H_    0.067788 0.984544 0.759750 0.095050
H6    H     H_    0.039561 0.031249 0.617359 0.112828
H7    H     H_    0.106889 0.758842 0.533005 0.083270
C19   C     C_2   0.993088 0.713904 0.285971 -0.124382
C20   C     C_2   0.155555 0.671263 0.310763 0.051052
H8    H     H_    0.859956 0.703206 0.320103 0.100284
C21   C     C_2   0.977875 0.772573 0.211849 -0.117794
C22   C     C_2   0.123564 0.823705 0.183223 -0.276106
H9    H     H_    0.837896 0.776950 0.182864 0.133115
H10   H     H_    0.259909 0.825249 0.214955 0.171003
C23   C     C_2   0.779481 0.207245 0.780314 -0.133510
C24   C     C_2   0.614658 0.179612 0.816696 -0.307275
H11   H     H_    0.915558 0.178761 0.800353 0.131884
H12   H     H_    0.476744 0.206579 0.798049 0.125062
C25   C     C_2   0.791007 0.275581 0.713238 -0.142651
C26   C     C_2   0.637752 0.317179 0.679652 -0.314635
H13   H     H_    0.934502 0.291704 0.690731 0.133470
H14   H     H_    0.492949 0.301898 0.700311 0.125606
C27   C     C_2   0.765202 0.200790 0.221359 -0.216454
C28   C     C_2   0.600720 0.173085 0.184609 0.153585
H15   H     H_    0.901959 0.175371 0.197827 0.127354
C29   C     C_2   0.776301 0.261205 0.295136 -0.143155
C30   C     C_2   0.647501 0.327235 0.312152 -0.319088
H16   H     H_    0.899820 0.252732 0.334891 0.139741
H17   H     H_    0.530368 0.341091 0.270956 0.160456
O11   O     O_R   0.770210 0.079270 0.910680 -0.540459
O12   O     O_R   0.440150 0.091160 0.082270 -0.528438
O13   O     O_R   0.269970 0.914530 0.082860 -0.539134
C31   C     C_R   0.606539 0.111793 0.111717 0.704942
O14   O     O_R   0.440480 0.090100 0.911240 -0.547943
O15   O     O_R   0.270310 0.913460 0.910610 -0.535701
C32   C     C_R   0.609450 0.111747 0.883144 0.742709
O16   O     O_R   0.769870 0.080340 0.082930 -0.557319
O17   O     O_3   0.603660 0.938980 0.996790 -0.366963
V3    V     V_3+5 0.328750 0.007610 0.996740 1.415447
O18   O     O_R   0.940600 0.902510 0.911180 -0.537043
C33   C     C_R   0.110187 0.881018 0.882612 0.699579
O19   O     O_R   0.940270 0.903570 0.082200 -0.541019
C34   C     C_R   0.108787 0.883700 0.111433 0.723612
V4    V     V_3+5 0.828770 0.986010 0.996670 1.413787
O20   O     O_3   0.103730 0.054750 0.996710 -0.378473
N1    N     N_3   0.328911 0.675545 0.261997 -0.668914
H18   H     H_    0.438286 0.702268 0.298590 0.223382
H19   H     H_    0.368340 0.609431 0.245033 0.223471
N2    N     N_2   0.415241 0.191648 0.220320 -0.513319
H20   H     H_    0.405738 0.196222 0.283536 0.267651
C35   C     C_3   0.291185 0.252306 0.174862 -0.555103
H21   H     H_    0.186188 0.285553 0.217489 0.182120
H22   H     H_    0.209422 0.213730 0.128043 0.219535
H23   H     H_    0.376264 0.306016 0.143783 0.182591
N3    N     N_3   0.183220 0.487524 0.730599 -0.669477
H24   H     H_    0.312042 0.451523 0.737355 0.219166
H25   H     H_    0.069405 0.443462 0.743354 0.218309

loop_
_geom_bond_atom_site_label_1
_geom_bond_atom_site_label_2
_ccdc_geom_bond_type
C21   C22   D    
C6    C7    A    
C1    O6    A    
C35   H21   S    
C23   C24   D    
C12   C15   A    
C16   H6    S    
C13   C14   A    
C15   C16   A    
N1    H19   S    
C24   C32   S    
O5    C3    A    
C19   C20   D    
C30   H17   S    
C28   C31   S    
O17   V4    S    
V2    O10   S    
C29   C30   D    
C5    C6    A    
C23   H11   S    
O12   C31   A    
O8    V2    S    
C15   H5    S    
O17   V3    S    
C25   H13   S    
O18   V4    S    
C26   H14   S    
O13   C34   A    
O18   C33   A    
O1    V2    S    
C10   C14   A    
C4    C14   S    
O7    V1    S    
N3    H25   S    
O11   C32   A    
C13   C18   A    
O9    C4    A    
H1    C17   S    
C21   H9    S    
C20   N1    S    
C22   H10   S    
C6    H2    S    
C35   H22   S    
C24   H12   S    
C27   H15   S    
C31   O16   A    
C5    N3    S    
V4    O20   S    
C5    C10   A    
C11   C12   A    
C19   C21   S    
O19   V4    S    
N2    C35   S    
C8    H4    S    
C12   C13   A    
O15   C33   A    
C18   H7    S    
O13   V3    S    
C1    C26   S    
O14   C32   A    
O2    C1    A    
C16   C17   A    
C23   C25   S    
O16   V4    S    
O14   V3    S    
N1    H18   S    
N3    H24   S    
O3    C4    A    
C7    H3    S    
O6    V2    S    
O9    V2    S    
C9    C11   A    
O2    V1    S    
C35   H23   S    
O4    C2    A    
C28   N2    S    
C27   C29   S    
O12   V3    S    
C22   C34   S    
O1    C2    A    
O19   C34   A    
O5    V1    S    
O8    C3    A    
C27   C28   D    
C3    C20   S    
O7    V2    S    
O4    V1    S    
O3    V1    S    
V1    O10   S    
C19   H8    S    
C17   C18   A    
O15   V3    S    
O11   V4    S    
C29   H16   S    
V3    O20   S    
N2    H20   S    
C7    C8    A    
C25   C26   D    
C9    C10   A    
C8    C9    A    
C2    C30   S    
C11   C33   S    
