data_mof_unit_53947.cif
_audit_creation_date              2012-12-11T16:26:28-0500
_audit_creation_method            fapswitch 2.2
_symmetry_space_group_name_H-M    P1
_symmetry_Int_Tables_number       1
_space_group_crystal_system       triclinic
_cell_length_a                    6.937066
_cell_length_b                    17.55143
_cell_length_c                    19.43232
_cell_angle_alpha                 108.571476
_cell_angle_beta                  89.499733
_cell_angle_gamma                 90.631393
_cell_volume                      2242.61621284

loop_
_atom_site_label
_atom_site_type_symbol
_atom_type_description
_atom_site_fract_x
_atom_site_fract_y
_atom_site_fract_z
_atom_type_partial_charge
O1    O     O_R   0.494330 0.415720 0.413720 -0.536103
O2    O     O_R   0.819330 0.430070 0.560210 -0.542452
O3    O     O_R   0.994320 0.584280 0.586280 -0.536811
C1    C     C_R   0.650109 0.415473 0.582235 0.704833
O4    O     O_R   0.823730 0.406300 0.412670 -0.537606
O5    O     O_R   0.998760 0.560340 0.437690 -0.544287
C2    C     C_R   0.655147 0.383625 0.384889 0.695873
O6    O     O_R   0.489890 0.439660 0.562310 -0.545033
O7    O     O_3   0.662340 0.550560 0.508380 -0.369244
V1    V     V_3+5 0.935370 0.490620 0.498450 1.415010
O8    O     O_R   0.328750 0.569930 0.439790 -0.543221
C3    C     C_R   0.160834 0.585095 0.418184 0.710221
O9    O     O_R   0.324340 0.593700 0.587330 -0.537684
C4    C     C_R   0.155425 0.616486 0.614998 0.695245
V2    V     V_3+5 0.435940 0.509380 0.501550 1.413732
O10   O     O_3   0.159100 0.449440 0.491620 -0.368816
H1    H     H_    0.892174 0.853948 0.568855 0.114149
C5    C     C_R   0.279517 0.600366 0.751530 -0.145657
C6    C     C_R   0.338133 0.590321 0.816481 -0.121877
C7    C     C_R   0.325461 0.653731 0.881056 -0.121735
C8    C     C_R   0.254239 0.727699 0.881169 -0.131524
C9    C     C_R   0.194837 0.739959 0.815990 0.070829
C10   C     C_R   0.207646 0.674938 0.749789 0.068161
C11   C     C_R   0.120016 0.814949 0.816240 -0.184891
C12   C     C_R   0.057452 0.824826 0.750301 0.068135
C13   C     C_R   0.070108 0.759792 0.684113 0.070601
C14   C     C_R   0.145401 0.684860 0.683818 -0.184537
C15   C     C_R   0.985072 0.899340 0.748606 -0.145779
C16   C     C_R   0.925391 0.909259 0.683740 -0.122850
C17   C     C_R   0.937683 0.845807 0.619190 -0.119674
C18   C     C_R   0.009782 0.771953 0.619002 -0.131914
H2    H     H_    0.290029 0.548820 0.702989 0.107443
H3    H     H_    0.392645 0.532833 0.816720 0.117363
H4    H     H_    0.370023 0.645476 0.931457 0.112558
H5    H     H_    0.244864 0.774733 0.932994 0.099602
H6    H     H_    0.974771 0.950920 0.797126 0.107660
H7    H     H_    0.870301 0.966675 0.683548 0.117748
H8    H     H_    0.018906 0.724914 0.567175 0.099254
C19   C     C_R   0.307825 0.634217 0.321386 -0.178157
C20   C     C_R   0.153451 0.634700 0.369046 -0.070154
C21   C     C_R   0.990847 0.681971 0.368858 -0.238220
C22   C     C_R   0.982663 0.728971 0.322401 0.080671
C23   C     C_R   0.137196 0.727465 0.274275 0.049986
C24   C     C_R   0.299735 0.679524 0.273493 0.091678
C25   C     C_R   0.822336 0.777273 0.322984 -0.192991
C26   C     C_R   0.814067 0.823062 0.275811 -0.182671
C27   C     C_R   0.965681 0.821206 0.227009 0.079071
C28   C     C_R   0.128669 0.773590 0.226524 0.051490
C29   C     C_R   0.282459 0.771520 0.177954 0.100463
C30   C     C_R   0.442062 0.722796 0.176988 -0.200231
C31   C     C_R   0.450622 0.677255 0.224325 -0.196636
C32   C     C_R   0.957110 0.865982 0.178672 -0.218557
C33   C     C_R   0.111389 0.865291 0.130901 -0.084211
C34   C     C_R   0.273839 0.818007 0.131107 -0.230878
H9    H     H_    0.432806 0.597373 0.320615 0.117839
H10   H     H_    0.871520 0.682925 0.405531 0.126263
H11   H     H_    0.702465 0.779237 0.359623 0.133346
H12   H     H_    0.688104 0.859479 0.277116 0.136107
H13   H     H_    0.831794 0.902541 0.179144 0.124743
H14   H     H_    0.392676 0.816619 0.094112 0.126162
H15   H     H_    0.560791 0.720241 0.139787 0.134176
H16   H     H_    0.575555 0.640338 0.222571 0.124304
C35   C     C_R   0.784208 0.182112 0.866511 -0.233829
C36   C     C_R   0.623077 0.133284 0.867988 -0.083306
C37   C     C_R   0.466513 0.131328 0.821751 -0.214475
C38   C     C_R   0.469997 0.177139 0.774327 0.086394
C39   C     C_R   0.630588 0.226980 0.773948 0.051121
C40   C     C_R   0.787886 0.229737 0.820430 0.092718
C41   C     C_R   0.315521 0.174041 0.727286 -0.184929
C42   C     C_R   0.318742 0.220756 0.680819 -0.187935
C43   C     C_R   0.476556 0.271353 0.680507 0.092521
C44   C     C_R   0.633828 0.274147 0.727008 0.051102
C45   C     C_R   0.794483 0.323937 0.726571 0.086664
C46   C     C_R   0.948780 0.327161 0.773728 -0.184857
C47   C     C_R   0.945527 0.280464 0.820222 -0.188578
C48   C     C_R   0.480490 0.318736 0.634232 -0.233807
C49   C     C_R   0.641868 0.367342 0.632542 -0.083295
C50   C     C_R   0.798256 0.369496 0.678917 -0.214595
H17   H     H_    0.904801 0.184268 0.902234 0.124842
H18   H     H_    0.342375 0.093335 0.822102 0.123893
H19   H     H_    0.191383 0.135822 0.726753 0.132518
H20   H     H_    0.197149 0.217590 0.645351 0.132957
H21   H     H_    0.359939 0.316505 0.598472 0.124533
H22   H     H_    0.922494 0.407397 0.678457 0.123728
H23   H     H_    0.072884 0.365403 0.774280 0.132300
H24   H     H_    0.067058 0.283673 0.855729 0.132438
H25   H     H_    0.312366 0.155621 0.425982 0.112996
C51   C     C_R   0.831407 0.392973 0.251796 -0.221199
C52   C     C_R   0.915181 0.400037 0.188513 0.459861
C53   C     C_R   0.900500 0.336541 0.123758 -0.195634
C54   C     C_R   0.801196 0.266552 0.121853 -0.206286
C55   C     C_R   0.718172 0.257156 0.185535 0.075163
C56   C     C_R   0.732255 0.321923 0.251814 0.011739
C57   C     C_R   0.619853 0.185173 0.183684 -0.167816
C58   C     C_R   0.535442 0.177987 0.248165 0.066261
C59   C     C_R   0.548053 0.242988 0.314344 0.071561
C60   C     C_R   0.645471 0.315147 0.316129 -0.160682
C61   C     C_R   0.442180 0.105906 0.248644 -0.147723
C62   C     C_R   0.361314 0.098536 0.312094 -0.123301
C63   C     C_R   0.373655 0.161916 0.376625 -0.119376
C64   C     C_R   0.466904 0.233134 0.378179 -0.134770
H26   H     H_    0.844828 0.444203 0.300403 0.131301
H27   H     H_    0.965955 0.341611 0.074589 0.124493
H28   H     H_    0.790541 0.220174 0.069727 0.129437
H29   H     H_    0.432165 0.054011 0.200428 0.113721
H30   H     H_    0.290338 0.042997 0.311276 0.119164
H31   H     H_    0.476475 0.279669 0.430250 0.106252
O11   O     O_R   0.775200 0.060470 0.937800 -0.544956
O12   O     O_R   0.441110 0.093720 0.087350 -0.537601
O13   O     O_R   0.266330 0.939630 0.062280 -0.545015
C65   C     C_R   0.609788 0.116684 0.114972 0.694578
O14   O     O_R   0.445750 0.069950 0.939820 -0.541989
O15   O     O_R   0.271000 0.915700 0.913700 -0.536421
C66   C     C_R   0.614985 0.084787 0.917988 0.705495
O16   O     O_R   0.770530 0.084400 0.086380 -0.536841
O17   O     O_3   0.602830 0.949510 0.991680 -0.368482
V3    V     V_3+5 0.329710 0.009370 0.001550 1.412365
O18   O     O_R   0.940990 0.906170 0.912570 -0.537526
C67   C     C_R   0.109972 0.883349 0.885021 0.696600
O19   O     O_R   0.936350 0.929940 0.060100 -0.541265
C68   C     C_R   0.104212 0.914775 0.081685 0.703059
V4    V     V_3+5 0.829160 0.990450 0.998310 1.412451
O20   O     O_3   0.105910 0.050480 0.008320 -0.368345
O21   O     O_3   0.021366 0.467936 0.191228 -0.573897
C69   C     C_3   0.910220 0.520015 0.165145 0.056809
H32   H     H_    0.881337 0.575053 0.211492 0.143982
H33   H     H_    0.767525 0.494808 0.141748 0.103045
C70   C     C_3   0.026091 0.543072 0.107370 -0.282689
H34   H     H_    0.166466 0.569883 0.130356 0.215335
H35   H     H_    0.055218 0.488232 0.060681 0.186488
C71   C     C_3   0.917846 0.603268 0.080504 -0.839523
H36   H     H_    0.780838 0.576299 0.054150 0.228638
H37   H     H_    0.008199 0.620614 0.040339 0.235734
H38   H     H_    0.885138 0.658126 0.126463 0.236367

loop_
_geom_bond_atom_site_label_1
_geom_bond_atom_site_label_2
_ccdc_geom_bond_type
C64   H31   S    
C21   C22   A    
C58   C59   A    
C54   H28   S    
C1    O6    A    
C71   H38   S    
C70   H34   S    
O14   C66   A    
C58   C61   A    
O12   V3    S    
C35   H17   S    
C33   C34   A    
O19   C68   A    
C40   C47   A    
C25   H11   S    
C13   C14   A    
C61   H29   S    
O17   V4    S    
C8    C9    A    
C15   C16   A    
C39   C44   A    
O12   C65   A    
O13   C68   A    
O18   V4    S    
C17   C18   A    
C38   C41   A    
C29   C34   A    
C61   C62   A    
C57   C65   S    
O17   V3    S    
C48   H21   S    
C5    C6    A    
C45   C46   A    
O11   C66   A    
O18   C67   A    
C55   C56   A    
O15   C67   A    
O8    V2    S    
C19   H9    S    
C6    C7    A    
C69   C70   S    
C45   C50   A    
C42   C43   A    
O1    V2    S    
C10   C14   A    
C4    C14   S    
C23   C28   A    
C7    H4    S    
C38   C39   A    
C13   C18   A    
O16   V4    S    
C59   C64   A    
C26   H12   S    
H1    C17   S    
C41   C42   A    
C31   H16   S    
O13   V3    S    
O19   V4    S    
C36   C66   S    
C46   C47   A    
C39   C40   A    
C27   C28   A    
C48   C49   A    
C6    H3    S    
C52   C53   A    
C19   C20   A    
O4    C2    A    
C34   H14   S    
C12   C13   A    
C49   C50   A    
C5    C10   A    
C12   C15   A    
C22   C25   A    
C3    C20   S    
O2    C1    A    
C23   C24   A    
C21   H10   S    
C16   C17   A    
C32   H13   S    
C50   H22   S    
C65   O16   A    
C47   H24   S    
C62   C63   A    
C59   C60   A    
C7    C8    A    
C55   C57   A    
C30   C31   A    
C26   C27   A    
C11   C12   A    
C27   C32   A    
O3    C4    A    
O15   V3    S    
C24   C31   A    
C28   C29   A    
C37   C38   A    
O6    V2    S    
O9    V2    S    
C69   H32   S    
C9    C11   A    
C5    H2    S    
C22   C23   A    
C71   H36   S    
O2    V1    S    
C70   C71   S    
C56   C60   A    
C43   C48   A    
C54   C55   A    
C32   C33   A    
C69   H33   S    
H25   C63   S    
O7    V1    S    
C62   H30   S    
C51   C56   A    
C20   C21   A    
C11   C67   S    
C2    C60   S    
O1    C2    A    
O11   V4    S    
C44   C45   A    
C71   H37   S    
C70   H35   S    
O5    V1    S    
C51   H26   S    
O8    C3    A    
C19   C24   A    
C8    H5    S    
C52   O21   S    
C35   C40   A    
C18   H8    S    
C36   C37   A    
V3    O20   S    
C1    C49   S    
O3    V1    S    
C33   C68   S    
O5    C3    A    
C53   C54   A    
O14   V3    S    
C63   C64   A    
C46   H23   S    
O7    V2    S    
C57   C58   A    
C42   H20   S    
C53   H27   S    
C41   H19   S    
C35   C36   A    
C25   C26   A    
O4    V1    S    
C43   C44   A    
C51   C52   A    
C15   H6    S    
C29   C30   A    
C16   H7    S    
C37   H18   S    
C30   H15   S    
C9    C10   A    
V1    O10   S    
V4    O20   S    
O9    C4    A    
V2    O10   S    
O21   C69   S    
