data_mof_unit_54813.cif
_audit_creation_date              2012-12-11T16:12:58-0500
_audit_creation_method            fapswitch 2.2
_symmetry_space_group_name_H-M    P1
_symmetry_Int_Tables_number       1
_space_group_crystal_system       triclinic
_cell_length_a                    23.483475
_cell_length_b                    13.584831
_cell_length_c                    28.462971
_cell_angle_alpha                 89.972991
_cell_angle_beta                  90.379203
_cell_angle_gamma                 89.966233
_cell_volume                      9080.02819038

loop_
_atom_site_label
_atom_site_type_symbol
_atom_type_description
_atom_site_fract_x
_atom_site_fract_y
_atom_site_fract_z
_atom_type_partial_charge
C1    C     C_R   0.284632 0.005237 0.816084 0.542972
C2    C     C_3   0.508529 0.737647 0.972202 -0.241924
C3    C     C_R   0.201390 0.051383 0.526395 0.146435
C4    C     C_R   0.276331 0.511402 0.527045 -0.080967
C5    C     C_R   0.705326 0.536351 0.475356 -0.082605
C6    C     C_R   0.781284 0.014685 0.526342 -0.082785
C7    C     C_R   0.198127 0.058769 0.477405 -0.110846
C8    C     C_R   0.259443 0.600239 0.546924 -0.016072
C9    C     C_R   0.745043 0.594190 0.451919 -0.010564
C10   C     C_R   0.757647 0.097411 0.547570 -0.013855
C11   C     C_R   0.245174 0.090910 0.451910 0.001530
C12   C     C_R   0.254999 0.577344 0.449680 0.039550
C13   C     C_3   0.013994 0.240084 0.026365 -0.236550
C14   C     C_R   0.750068 0.579353 0.549658 0.048993
C15   C     C_R   0.751874 0.077805 0.450106 0.046404
C16   C     C_R   0.252206 0.078594 0.549626 0.069397
C17   C     C_1   0.244626 0.560909 0.400677 -0.078383
C18   C     C_1   0.757284 0.562880 0.599065 -0.070074
C19   C     C_1   0.743412 0.062145 0.400803 -0.069733
C20   C     C_1   0.257727 0.063921 0.599286 -0.031591
C21   C     C_1   0.262537 0.614182 0.596464 -0.070875
C22   C     C_1   0.739859 0.609703 0.402571 -0.064668
C23   C     C_1   0.761835 0.111275 0.597064 -0.067361
C24   C     C_3   0.008542 0.237650 0.972197 -0.241924
C25   C     C_1   0.239716 0.109429 0.402775 -0.068656
C26   C     C_1   0.232875 0.541487 0.360794 -0.030791
C27   C     C_1   0.767453 0.542380 0.639158 -0.027180
C28   C     C_1   0.732683 0.042210 0.360768 -0.027466
C29   C     C_1   0.267202 0.043460 0.639492 -0.020981
C30   C     C_R   0.284269 0.007729 0.684273 0.541150
C31   C     C_R   0.715573 0.007257 0.315903 0.545648
C32   C     C_R   0.784442 0.507254 0.684070 0.545634
C33   C     C_R   0.215532 0.507030 0.315952 0.545945
C34   C     C_R   0.445549 0.825128 0.684192 0.543025
C35   C     C_1   0.517770 0.841337 0.096559 -0.077228
C36   C     C_R   0.554123 0.825221 0.315491 0.545193
C37   C     C_R   0.945487 0.325101 0.684221 0.542435
C38   C     C_R   0.054014 0.325266 0.315395 0.546291
C39   C     C_R   0.274372 0.674357 0.682901 0.542503
C40   C     C_R   0.725747 0.674059 0.316969 0.544402
C41   C     C_R   0.774322 0.174041 0.683023 0.543710
C42   C     C_R   0.225624 0.174494 0.317168 0.543980
C43   C     C_3   0.438079 0.875506 0.979181 -0.075349
C44   C     C_3   0.556252 0.911153 0.020794 -0.079061
C45   C     C_3   0.938087 0.375501 0.979178 -0.075454
C46   C     C_1   0.484795 0.836979 0.902681 -0.073563
C47   C     C_3   0.056261 0.411158 0.020789 -0.079160
C48   C     C_3   0.545813 0.908235 0.966431 -0.199159
C49   C     C_3   0.449413 0.888118 0.032771 -0.197142
C50   C     C_3   0.045820 0.408242 0.966426 -0.199131
C51   C     C_3   0.949423 0.388114 0.032768 -0.197094
C52   C     C_1   0.530310 0.833030 0.137345 -0.034019
C53   C     C_1   0.471026 0.831673 0.862103 -0.024138
C54   C     C_1   0.030319 0.333030 0.137340 -0.033366
C55   C     C_1   0.971030 0.331673 0.862101 -0.023856
C56   C     C_3   0.417965 0.680130 0.544668 -0.251729
C57   C     C_1   0.017783 0.341338 0.096554 -0.077020
C58   C     C_3   0.456230 0.597792 0.564123 -0.295839
C59   C     C_3   0.422130 0.523934 0.592849 -0.445793
C60   C     C_3   0.427263 0.675941 0.441186 -0.262974
C61   C     C_3   0.436508 0.665737 0.388066 -0.303253
C62   C     C_3   0.403232 0.578955 0.367803 -0.455338
C63   C     C_3   0.953366 0.134504 0.539822 -0.268605
C64   C     C_3   0.947748 0.120857 0.593037 -0.283477
C65   C     C_3   0.932352 0.014646 0.605243 -0.452119
C66   C     C_3   0.975375 0.147951 0.438375 -0.255196
C67   C     C_3   0.033533 0.097954 0.432392 -0.292225
C68   C     C_1   0.984802 0.336980 0.902678 -0.073436
C69   C     C_3   0.028738 0.005514 0.402233 -0.450306
C70   C     C_3   0.217090 0.752699 0.440172 -0.252063
C71   C     C_3   0.265210 0.801839 0.412464 -0.292997
C72   C     C_3   0.241208 0.864724 0.372591 -0.443828
C73   C     C_3   0.835819 0.696364 0.551329 -0.255905
C74   C     C_3   0.889233 0.632765 0.557883 -0.294281
C75   C     C_3   0.936139 0.689645 0.583371 -0.452098
C76   C     C_3   0.698627 0.242249 0.444034 -0.252478
C77   C     C_3   0.635727 0.215951 0.436563 -0.290924
C78   C     C_3   0.604214 0.297329 0.410115 -0.449332
C79   C     C_1   0.266613 0.634404 0.861105 -0.016995
C80   C     C_3   0.353483 0.148652 0.547699 -0.259773
C81   C     C_3   0.392557 0.063532 0.562523 -0.288580
C82   C     C_3   0.444232 0.102368 0.589549 -0.439125
C83   C     C_3   0.352856 0.383736 0.467187 -0.320308
C84   C     C_3   0.609026 0.499754 0.546011 -0.316197
C85   C     C_3   0.862488 0.916676 0.452280 -0.331386
C86   C     C_3   0.151813 0.917231 0.563728 -0.307528
C87   C     C_3   0.402687 0.961112 0.957151 -0.263537
C88   C     C_3   0.435431 0.055733 0.945738 -0.288108
C89   C     C_3   0.395276 0.139174 0.931795 -0.443523
C90   C     C_1   0.733040 0.635152 0.138649 -0.016783
C91   C     C_3   0.562317 0.020389 0.037041 -0.278144
C92   C     C_3   0.586094 0.035446 0.086860 -0.282219
C93   C     C_3   0.604439 0.142265 0.094283 -0.441690
C94   C     C_3   0.902692 0.461104 0.957150 -0.263556
C95   C     C_3   0.935432 0.555730 0.945740 -0.288075
C96   C     C_3   0.895274 0.639169 0.931800 -0.443546
C97   C     C_3   0.062325 0.520394 0.037037 -0.278169
C98   C     C_3   0.086107 0.535450 0.086854 -0.282152
C99   C     C_3   0.104450 0.642271 0.094277 -0.441680
C100  C     C_1   0.766611 0.134394 0.861102 -0.017180
C101  C     C_R   0.715425 0.005524 0.184014 0.540322
C102  C     C_1   0.233044 0.135138 0.138653 -0.017373
C103  C     C_R   0.230045 0.512986 0.968990 -0.115462
C104  C     C_R   0.744656 0.502055 0.029760 -0.117909
C105  C     C_R   0.730029 0.012974 0.968983 -0.115488
C106  C     C_R   0.244656 0.002039 0.029763 -0.117970
C107  C     C_R   0.225644 0.499752 0.017472 -0.113367
C108  C     C_R   0.747805 0.488529 0.981179 -0.119983
C109  C     C_R   0.725626 0.999740 0.017465 -0.113400
C110  C     C_R   0.247805 0.988515 0.981182 -0.119964
C111  C     C_R   0.280063 0.649099 0.030863 -0.116431
C112  C     C_R   0.784631 0.505239 0.816084 0.542013
C113  C     C_R   0.739314 0.664819 0.969180 -0.121452
C114  C     C_R   0.780063 0.149066 0.030858 -0.116326
C115  C     C_R   0.239323 0.164807 0.969185 -0.121410
C116  C     C_R   0.284575 0.662263 0.982354 -0.112659
C117  C     C_R   0.735954 0.678301 0.017713 -0.114240
C118  C     C_R   0.784577 0.162231 0.982349 -0.112666
C119  C     C_R   0.235963 0.178287 0.017718 -0.114230
C120  C     C_R   0.259392 0.594452 0.951398 0.039868
C121  C     C_R   0.739265 0.597122 0.048073 0.036534
C122  C     C_R   0.759386 0.094431 0.951392 0.039872
C123  C     C_R   0.215429 0.505532 0.184018 0.539289
C124  C     C_R   0.239270 0.097106 0.048078 0.036559
C125  C     C_R   0.250428 0.567920 0.048432 0.037124
C126  C     C_R   0.745726 0.569960 0.950885 0.034075
C127  C     C_R   0.750418 0.067898 0.048426 0.037105
C128  C     C_R   0.245731 0.069947 0.950889 0.034088
C129  C     C_R   0.446163 0.824131 0.816514 0.544434
C130  C     C_R   0.554036 0.824313 0.183334 0.541663
C131  C     C_R   0.946164 0.324131 0.816513 0.545035
C132  C     C_R   0.054041 0.324313 0.183332 0.542517
C133  C     C_1   0.242785 0.555158 0.097997 -0.071182
C134  C     C_3   0.494095 0.841818 0.953574 0.074992
C135  C     C_1   0.755494 0.555820 0.901652 -0.071519
C136  C     C_1   0.742775 0.055136 0.097990 -0.070915
C137  C     C_1   0.255497 0.055810 0.901655 -0.071359
C138  C     C_1   0.262441 0.611756 0.901774 -0.063900
C139  C     C_1   0.736738 0.613199 0.097845 -0.063860
C140  C     C_1   0.762437 0.111739 0.901769 -0.064029
C141  C     C_1   0.236743 0.113182 0.097850 -0.064086
C142  C     C_1   0.232454 0.537683 0.138459 -0.028399
C143  C     C_1   0.767095 0.537777 0.861474 -0.027573
C144  C     C_1   0.732446 0.037665 0.138453 -0.027763
C145  C     C_3   0.509242 0.847267 0.045579 0.072471
C146  C     C_1   0.267097 0.037771 0.861476 -0.027256
C147  C     C_1   0.466996 0.832073 0.637551 -0.028482
C148  C     C_1   0.526834 0.833060 0.359897 -0.034552
C149  C     C_1   0.966233 0.331204 0.637441 -0.032286
C150  C     C_1   0.027344 0.333333 0.359990 -0.021651
C151  C     C_R   0.453385 0.757419 0.518933 0.015694
C152  C     C_R   0.458883 0.757006 0.468811 0.024749
C153  C     C_R   0.972767 0.234042 0.519372 0.030496
C154  C     C_R   0.980550 0.239130 0.469569 0.023014
C155  C     C_R   0.520312 0.902873 0.475902 -0.130236
C156  C     C_3   0.994104 0.341819 0.953571 0.074939
C157  C     C_R   0.515344 0.901409 0.524263 -0.137037
C158  C     C_R   0.003564 0.413906 0.475611 -0.127555
C159  C     C_R   0.997382 0.409789 0.523860 -0.130237
C160  C     C_R   0.482784 0.829404 0.545942 0.027294
C161  C     C_R   0.493425 0.831828 0.448001 0.041294
C162  C     C_R   0.982919 0.321726 0.546168 0.044270
C163  C     C_R   0.995885 0.329744 0.448538 0.033515
C164  C     C_1   0.508922 0.834126 0.399350 -0.069106
C165  C     C_1   0.477282 0.832932 0.596253 -0.078044
C166  C     C_1   0.010565 0.334874 0.399700 -0.066395
C167  C     C_3   0.009254 0.347268 0.045575 0.072368
C168  C     C_1   0.976153 0.328112 0.596114 -0.067876
C169  C     C_1   0.266599 0.635257 0.637140 -0.020072
C170  C     C_1   0.734405 0.632726 0.362219 -0.013147
C171  C     C_1   0.766307 0.133450 0.637580 -0.015287
C172  C     C_1   0.234217 0.133371 0.362517 -0.022141
C173  C     C_R   0.242160 0.678842 0.518643 -0.119523
C174  C     C_R   0.786508 0.646133 0.476846 -0.100057
C175  C     C_R   0.732241 0.171254 0.520558 -0.111303
C176  C     C_R   0.295496 0.117496 0.474832 -0.096649
C177  C     C_R   0.274591 0.674082 0.815146 0.543472
C178  C     C_3   0.513980 0.740082 0.026370 -0.236527
C179  C     C_R   0.725370 0.674204 0.184793 0.542177
C180  C     C_R   0.774591 0.174080 0.815145 0.542868
C181  C     C_R   0.225372 0.174197 0.184796 0.541811
C182  C     C_R   0.239212 0.668223 0.469876 -0.009877
C183  C     C_R   0.789555 0.639646 0.525780 -0.000155
C184  C     C_R   0.728822 0.162401 0.471726 -0.009865
C185  C     C_R   0.299586 0.112473 0.523798 -0.011026
C186  C     C_R   0.275464 0.499323 0.478235 0.151019
C187  C     C_R   0.707302 0.527960 0.524338 0.148112
C188  C     C_R   0.778628 0.003872 0.477563 0.149708
Cr1   Cr    Cr6+3 0.250680 0.837130 0.748990 1.029240
Cr2   Cr    Cr6+3 0.623910 0.707720 0.250330 1.023438
Cr3   Cr    Cr6+3 0.876090 0.207720 0.749670 1.018851
Cr4   Cr    Cr6+3 0.123910 0.207720 0.250330 1.021777
Cr5   Cr    Cr6+3 0.749320 0.837130 0.251010 1.026972
Cr6   Cr    Cr6+3 0.750680 0.337130 0.748990 1.027726
Cr7   Cr    Cr6+3 0.249320 0.337130 0.251010 1.023893
Cr8   Cr    Cr6+3 0.378160 0.960100 0.750430 1.017087
Cr9   Cr    Cr6+3 0.621840 0.960100 0.249570 1.014757
Cr10  Cr    Cr6+3 0.878160 0.460100 0.750430 1.020949
Cr11  Cr    Cr6+3 0.121840 0.460100 0.249570 1.016293
Cr12  Cr    Cr6+3 0.376090 0.707720 0.749670 1.020270
H1    H     H_    0.445378 0.966180 0.043607 0.122118
H2    H     H_    0.537343 0.956762 0.544905 0.113986
H3    H     H_    0.471463 0.040249 0.601181 0.153213
H4    H     H_    0.369479 0.010647 0.585230 0.176720
H5    H     H_    0.407222 0.023441 0.530781 0.168650
H6    H     H_    0.377585 0.197497 0.523624 0.128413
H7    H     H_    0.342062 0.194294 0.578664 0.149453
H8    H     H_    0.280895 0.393415 0.424689 0.265333
H9    H     H_    0.363934 0.314666 0.448556 0.132998
H10   H     H_    0.360967 0.372536 0.505239 0.137696
H11   H     H_    0.380683 0.443627 0.454110 0.136109
H12   H     H_    0.679427 0.438687 0.579641 0.259934
H13   H     H_    0.015987 0.482807 0.459418 0.115183
H14   H     H_    0.581035 0.444743 0.563161 0.137204
H15   H     H_    0.593960 0.509583 0.509241 0.144664
H16   H     H_    0.605441 0.570723 0.565184 0.151185
H17   H     H_    0.780481 0.891966 0.427362 0.264471
H18   H     H_    0.876897 0.843452 0.439779 0.136353
H19   H     H_    0.883545 0.931773 0.486618 0.138063
H20   H     H_    0.875404 0.973120 0.426195 0.145631
H21   H     H_    0.114719 0.044164 0.537809 0.240650
H22   H     H_    0.115011 0.901728 0.586870 0.146313
H23   H     H_    0.191345 0.895250 0.582639 0.164701
H24   H     H_    0.004144 0.476438 0.544099 0.111839
H25   H     H_    0.147146 0.872791 0.531198 0.119074
H26   H     H_    0.371437 0.119517 0.899371 0.176500
H27   H     H_    0.364983 0.155005 0.960614 0.165129
H28   H     H_    0.420352 0.206791 0.924738 0.141340
H29   H     H_    0.460213 0.080165 0.976670 0.153751
H30   H     H_    0.464329 0.042570 0.915710 0.169287
H31   H     H_    0.382004 0.934449 0.924255 0.149570
H32   H     H_    0.367666 0.979091 0.981777 0.148769
H33   H     H_    0.638836 0.162437 0.069501 0.160836
H34   H     H_    0.567680 0.192550 0.088733 0.145649
H35   H     H_    0.230476 0.748169 0.534746 0.108206
H36   H     H_    0.620462 0.152171 0.130732 0.171993
H37   H     H_    0.552588 0.019903 0.113022 0.181711
H38   H     H_    0.622954 0.985869 0.093220 0.170811
H39   H     H_    0.592177 0.057125 0.012384 0.148994
H40   H     H_    0.521427 0.060127 0.034279 0.138260
H41   H     H_    0.871435 0.619514 0.899375 0.176443
H42   H     H_    0.864980 0.654992 0.960619 0.165177
H43   H     H_    0.920346 0.706790 0.924745 0.141324
H44   H     H_    0.960214 0.580161 0.976672 0.153783
H45   H     H_    0.964329 0.542574 0.915710 0.169315
H46   H     H_    0.816419 0.692176 0.458071 0.125179
H47   H     H_    0.882010 0.434441 0.924254 0.149569
H48   H     H_    0.867670 0.479075 0.981776 0.148820
H49   H     H_    0.138844 0.662447 0.069492 0.160799
H50   H     H_    0.067689 0.692552 0.088731 0.145742
H51   H     H_    0.120478 0.652175 0.130725 0.171800
H52   H     H_    0.052606 0.519902 0.113018 0.181784
H53   H     H_    0.122970 0.485876 0.093210 0.170857
H54   H     H_    0.092180 0.557134 0.012378 0.149020
H55   H     H_    0.021433 0.560128 0.034279 0.138314
H56   H     H_    0.714535 0.235606 0.537689 0.131013
H57   H     H_    0.331165 0.144219 0.454506 0.110171
H58   H     H_    0.289730 0.451257 0.549560 0.118412
H59   H     H_    0.672888 0.497555 0.455484 0.111915
H60   H     H_    0.801081 0.957861 0.547628 0.112926
H61   H     H_    0.540446 0.982876 0.951577 0.108379
H62   H     H_    0.158815 0.040352 0.459304 0.099786
H63   H     H_    0.584738 0.878835 0.949228 0.096135
H64   H     H_    0.416271 0.847259 0.052672 0.094521
H65   H     H_    0.084745 0.378847 0.949222 0.096301
H66   H     H_    0.916283 0.347252 0.052670 0.094831
H67   H     H_    0.598171 0.875286 0.027714 0.119521
H68   H     H_    0.408187 0.811900 0.976433 0.109349
H69   H     H_    0.098181 0.375294 0.027707 0.119527
H70   H     H_    0.908198 0.311892 0.976431 0.109359
H71   H     H_    0.474854 0.684093 0.961791 0.119867
H72   H     H_    0.945386 0.466175 0.043604 0.122238
H73   H     H_    0.555578 0.707021 0.036868 0.123839
H74   H     H_    0.974869 0.184092 0.961787 0.119890
H75   H     H_    0.055594 0.207026 0.036862 0.123858
H76   H     H_    0.549128 0.710983 0.956694 0.124944
H77   H     H_    0.479949 0.693441 0.041898 0.123788
H78   H     H_    0.049141 0.210990 0.956688 0.125072
H79   H     H_    0.979966 0.193439 0.041894 0.123963
H80   H     H_    0.210135 0.460571 0.945375 0.098798
H81   H     H_    0.747110 0.438857 0.052920 0.104843
H82   H     H_    0.710113 0.960569 0.945367 0.098623
H83   H     H_    0.040449 0.482882 0.951574 0.108441
H84   H     H_    0.247107 0.938839 0.052923 0.104586
H85   H     H_    0.202285 0.437099 0.030853 0.092109
H86   H     H_    0.753430 0.414907 0.967297 0.105853
H87   H     H_    0.702259 0.937094 0.030845 0.092061
H88   H     H_    0.253426 0.914893 0.967299 0.105829
H89   H     H_    0.299000 0.702509 0.054507 0.099491
H90   H     H_    0.738222 0.728259 0.946103 0.105478
H91   H     H_    0.799007 0.202467 0.054503 0.099834
H92   H     H_    0.238234 0.228249 0.946109 0.105643
H93   H     H_    0.400981 0.561341 0.622739 0.180708
H94   H     H_    0.307061 0.725913 0.968959 0.092514
H95   H     H_    0.389474 0.487982 0.570417 0.141269
H96   H     H_    0.451116 0.466327 0.606972 0.136719
H97   H     H_    0.477077 0.558525 0.534619 0.145744
H98   H     H_    0.490163 0.629257 0.586964 0.175284
H99   H     H_    0.394049 0.715363 0.573739 0.155783
H100  H     H_    0.384315 0.647361 0.522225 0.138728
H101  H     H_    0.419279 0.508646 0.382731 0.147435
H102  H     H_    0.357272 0.586755 0.375516 0.161747
H103  H     H_    0.408670 0.576725 0.329095 0.152282
H104  H     H_    0.421403 0.733360 0.369878 0.168947
H105  H     H_    0.731536 0.752116 0.031631 0.104036
H106  H     H_    0.482269 0.651979 0.380967 0.185001
H107  H     H_    0.439225 0.603936 0.456952 0.139515
H108  H     H_    0.380851 0.687283 0.446422 0.139924
H109  H     H_    0.891472 0.993651 0.588234 0.144023
H110  H     H_    0.966345 0.963515 0.593501 0.141259
H111  H     H_    0.927641 0.007370 0.643883 0.160689
H112  H     H_    0.988878 0.138107 0.610677 0.182805
H113  H     H_    0.912931 0.168529 0.606244 0.191505
H114  H     H_    0.910875 0.117469 0.524371 0.143701
H115  H     H_    0.983868 0.077396 0.527882 0.139483
H116  H     H_    0.807071 0.225874 0.968955 0.092548
H117  H     H_    0.999750 0.951425 0.418955 0.142141
H118  H     H_    0.012221 0.024430 0.366697 0.165606
H119  H     H_    0.071442 0.971297 0.398544 0.139118
H120  H     H_    0.063882 0.149534 0.415504 0.182817
H121  H     H_    0.051296 0.077285 0.467262 0.144074
H122  H     H_    0.944261 0.094393 0.452193 0.122078
H123  H     H_    0.957806 0.168306 0.403344 0.150068
H124  H     H_    0.221536 0.816902 0.345318 0.154507
H125  H     H_    0.208348 0.916027 0.386052 0.158724
H126  H     H_    0.276021 0.907841 0.356259 0.147650
H127  H     H_    0.231548 0.252102 0.031637 0.104062
H128  H     H_    0.290761 0.848944 0.436600 0.165668
H129  H     H_    0.294154 0.745986 0.397040 0.165504
H130  H     H_    0.183356 0.724784 0.416036 0.155202
H131  H     H_    0.196583 0.809578 0.462458 0.127918
H132  H     H_    0.948263 0.755904 0.562850 0.141232
H133  H     H_    0.921494 0.712662 0.618737 0.163371
H134  H     H_    0.974238 0.641964 0.587621 0.143146
H135  H     H_    0.878814 0.565866 0.578614 0.182520
H136  H     H_    0.905274 0.609047 0.522997 0.160485
H137  H     H_    0.846969 0.763548 0.531033 0.149825
H138  H     H_    0.546950 0.958928 0.460103 0.115151
H139  H     H_    0.820200 0.722402 0.585946 0.149966
H140  H     H_    0.604834 0.366570 0.430828 0.147831
H141  H     H_    0.624223 0.310447 0.375416 0.160106
H142  H     H_    0.559198 0.275185 0.404363 0.140955
H143  H     H_    0.632143 0.146446 0.416170 0.175426
H144  H     H_    0.614981 0.204740 0.471166 0.162208
H145  H     H_    0.701649 0.313364 0.463228 0.154936
H146  H     H_    0.719823 0.253681 0.409659 0.148147
H147  H     H_    0.469836 0.151693 0.566825 0.139960
H148  H     H_    0.430401 0.143489 0.621217 0.163516
N1    N     N_2   0.293615 0.407735 0.458709 -0.509115
N2    N     N_2   0.667331 0.465217 0.547154 -0.532714
N3    N     N_2   0.801246 0.916572 0.457133 -0.526610
N4    N     N_2   0.152810 0.020931 0.552296 -0.513373
O1    O     O_R   0.237900 0.735050 0.799950 -0.506458
O2    O     O_R   0.566580 0.739640 0.301090 -0.512740
O3    O     O_R   0.933420 0.239640 0.698910 -0.517936
O4    O     O_R   0.066580 0.239640 0.301090 -0.512617
O5    O     O_R   0.323550 0.666510 0.701520 -0.502752
O6    O     O_R   0.676450 0.666510 0.298480 -0.496000
O7    O     O_R   0.823550 0.166510 0.701520 -0.501120
O8    O     O_R   0.176450 0.166510 0.298480 -0.497278
O9    O     O_3   0.334980 0.834990 0.749700 -0.248609
O10   O     O_3   0.665020 0.834990 0.250300 -0.246895
O11   O     O_3   0.834980 0.334990 0.749700 -0.248285
O12   O     O_R   0.762100 0.735050 0.200050 -0.506822
O13   O     O_3   0.165020 0.334990 0.250300 -0.246396
O14   O     O_R   0.256160 0.936210 0.796950 -0.491376
O15   O     O_R   0.743840 0.936210 0.203050 -0.491145
O16   O     O_R   0.756160 0.436210 0.796950 -0.491915
O17   O     O_R   0.243840 0.436210 0.203050 -0.491530
O18   O     O_R   0.333710 0.029860 0.801630 -0.513893
O19   O     O_R   0.666290 0.029860 0.198370 -0.520450
O20   O     O_R   0.833710 0.529860 0.801630 -0.514491
O21   O     O_R   0.166290 0.529860 0.198370 -0.520877
O22   O     O_R   0.425340 0.901920 0.798280 -0.497226
O23   O     O_R   0.737900 0.235050 0.799950 -0.506829
O24   O     O_R   0.574660 0.901920 0.201720 -0.503336
O25   O     O_R   0.925340 0.401920 0.798280 -0.497376
O26   O     O_R   0.074660 0.401920 0.201720 -0.503260
O27   O     O_R   0.433530 0.738890 0.801610 -0.505869
O28   O     O_R   0.566470 0.738890 0.198390 -0.505237
O29   O     O_R   0.933530 0.238890 0.801610 -0.505440
O30   O     O_R   0.066470 0.238890 0.198390 -0.504849
O31   O     O_R   0.323650 0.665810 0.796720 -0.494305
O32   O     O_R   0.676350 0.665810 0.203280 -0.495376
O33   O     O_R   0.823650 0.165810 0.796720 -0.494709
O34   O     O_R   0.262100 0.235050 0.200050 -0.507041
O35   O     O_R   0.176350 0.165810 0.203280 -0.495305
O36   O     O_R   0.237790 0.735800 0.697250 -0.508451
O37   O     O_R   0.762210 0.735800 0.302750 -0.510155
O38   O     O_R   0.737790 0.235800 0.697250 -0.508083
O39   O     O_R   0.262210 0.235800 0.302750 -0.509766
O40   O     O_R   0.256050 0.936910 0.701750 -0.493463
O41   O     O_R   0.743950 0.936910 0.298250 -0.495785
O42   O     O_R   0.756050 0.436910 0.701750 -0.495888
O43   O     O_R   0.243950 0.436910 0.298250 -0.498007
O44   O     O_R   0.333600 0.030610 0.698930 -0.513490
O45   O     O_R   0.425240 0.902610 0.703070 -0.496062
O46   O     O_R   0.666400 0.030610 0.301070 -0.509713
O47   O     O_R   0.833600 0.530610 0.698930 -0.510481
O48   O     O_R   0.166400 0.530610 0.301070 -0.507752
O49   O     O_R   0.574760 0.902610 0.296930 -0.492436
O50   O     O_R   0.925240 0.402610 0.703070 -0.491808
O51   O     O_R   0.074760 0.402610 0.296930 -0.491990
O52   O     O_R   0.433420 0.739640 0.698910 -0.511474

loop_
_geom_bond_atom_site_label_1
_geom_bond_atom_site_label_2
_ccdc_geom_bond_type
C72   H124  S    
C88   H30   S    
C32   O42   A    
Cr2   O10   S    
C87   C88   S    
Cr7   O17   S    
C84   N2    S    
C56   H100  S    
C158  H13   S    
C2    H71   S    
C2    C134  S    
C86   N4    S    
C181  O35   A    
C62   H103  S    
C129  O22   A    
C176  H57   S    
C1    O18   A    
C188  N3    S    
C6    C188  A    
C112  O20   A    
C7    H62   S    
C35   C145  S    
C4    C186  A    
Cr6   O16   S    
H8    N1    S    
Cr12  O52   S    
C109  C127  A    
C131  O25   A    
Cr8   O18   S    
C42   O8    A    
C111  C125  A    
Cr7   O39   S    
C102  C141  T    
C101  O15   A    
C94   H47   S    
Cr6   O42   S    
C20   C29   T    
Cr2   O28   S    
C71   H128  S    
C149  C168  T    
C14   C183  A    
Cr7   O34   S    
C137  C146  T    
C127  C136  S    
C63   C153  S    
C99   H51   S    
Cr12  O5    S    
Cr3   O3    S    
C72   H125  S    
C76   H146  S    
C112  O16   A    
C104  H81   S    
C46   C134  S    
C36   O49   A    
Cr5   O12   S    
C16   C20   S    
C15   C184  A    
C56   C151  S    
C22   C170  T    
Cr1   O14   S    
C173  C182  A    
C157  C160  A    
C158  C159  A    
C93   H34   S    
C120  C138  S    
Cr11  O21   S    
Cr12  O31   S    
C82   H148  S    
C174  H46   S    
C103  C107  A    
C130  O24   A    
C66   H122  S    
C62   H101  S    
C43   C49   S    
Cr1   O40   S    
C67   H120  S    
C3    N4    S    
C37   O50   A    
C54   C132  S    
C76   H145  S    
C111  H89   S    
C78   H142  S    
C39   C169  S    
C65   H109  S    
C14   C187  A    
C69   H119  S    
C46   C53   T    
C73   H139  S    
C106  H84   S    
C108  H86   S    
C13   H75   S    
C23   C171  T    
C88   C89   S    
C98   C99   S    
C106  C124  A    
C115  H92   S    
Cr9   O19   S    
C74   H136  S    
C108  C126  A    
C155  H138  S    
C159  H24   S    
C110  C128  A    
C80   H6    S    
C130  O28   A    
C51   C167  S    
C64   H113  S    
C132  O30   A    
C89   H26   S    
C99   H49   S    
C97   C98   S    
C175  H56   S    
C24   H74   S    
C41   C171  S    
C92   H38   S    
C11   C176  A    
C48   C134  S    
C73   C183  S    
C11   C25   S    
C177  O1    A    
C150  C166  T    
C180  O23   A    
C48   H61   S    
C47   C167  S    
C118  C122  A    
C69   H117  S    
C147  C165  T    
C59   H96   S    
Cr2   O6    S    
C79   C177  S    
C63   H115  S    
C152  C161  A    
Cr6   O11   S    
C135  C143  T    
C66   C67   S    
C50   H65   S    
Cr8   O45   S    
C51   H72   S    
C103  H80   S    
C179  O32   A    
C58   H98   S    
C49   H64   S    
C36   C148  S    
C81   H4    S    
C93   H36   S    
C45   H70   S    
C75   H134  S    
C49   H1    S    
C38   O51   A    
C40   O6    A    
C148  C164  T    
C78   H140  S    
C107  C125  A    
C65   H111  S    
C91   C92   S    
C113  C126  A    
Cr8   O22   S    
C115  C128  A    
C116  C120  A    
C91   H40   S    
C85   H18   S    
C5    C9    A    
C29   C30   S    
C26   C33   S    
C44   C145  S    
C45   C156  S    
C19   C28   T    
C70   C71   S    
C158  C163  A    
C162  C168  S    
C178  H73   S    
C115  C119  A    
C113  C117  A    
C124  C141  S    
C53   C129  S    
C86   H23   S    
C89   H28   S    
C100  C180  S    
Cr3   O7    S    
C10   C175  A    
C118  H116  S    
C32   O47   A    
C181  O34   A    
Cr10  O20   S    
C34   O52   A    
C77   H144  S    
C70   H130  S    
Cr11  O51   S    
Cr9   O49   S    
C15   C188  A    
C48   H63   S    
C47   C97   S    
C121  C139  S    
C122  C140  S    
C71   C72   S    
C95   H45   S    
C60   H107  S    
C98   H52   S    
C21   C169  T    
C41   O38   A    
C56   C58   S    
C105  C122  A    
C39   O5    A    
Cr6   O23   S    
Cr12  O27   S    
C61   C62   S    
C96   H41   S    
C30   O44   A    
Cr8   O9    S    
C63   C64   S    
C44   C48   S    
Cr9   O10   S    
C39   O36   A    
Cr4   O8    S    
C86   H25   S    
C2    C178  S    
Cr1   O36   S    
C94   H48   S    
C98   H53   S    
Cr1   O1    S    
C3    C16   A    
C41   O7    A    
C54   C57   T    
C75   H132  S    
C1    O14   A    
C155  C157  A    
C73   C74   S    
Cr9   O24   S    
C103  C120  A    
C40   C170  S    
C55   C68   T    
C176  C185  A    
C77   C78   S    
C155  C161  A    
C15   C19   S    
C116  H94   S    
Cr4   O13   S    
C112  C143  S    
C107  H85   S    
C85   H20   S    
C3    C7    A    
C16   C185  A    
C82   H3    S    
C101  O19   A    
C101  C144  S    
C72   H126  S    
C87   H32   S    
C5    H59   S    
Cr12  O9    S    
C6    H60   S    
C60   C152  S    
C123  O21   A    
C105  C109  A    
Cr9   O46   S    
C67   H121  S    
C70   C182  S    
C12   C182  A    
C145  C178  S    
C151  C152  A    
C111  C116  A    
C40   O37   A    
C84   H15   S    
C95   H44   S    
C97   H55   S    
C31   O46   A    
C88   H29   S    
C33   O43   A    
C186  N1    S    
C90   C139  T    
C56   H99   S    
Cr8   O44   S    
C62   H102  S    
C163  C166  S    
C66   C154  S    
Cr11  O48   S    
C93   H33   S    
C58   C59   S    
Cr2   O2    S    
C60   C61   S    
C69   H118  S    
C43   C134  S    
Cr2   O32   S    
C96   H43   S    
H17   N3    S    
C187  N2    S    
C34   C147  S    
C47   H69   S    
C12   C186  A    
C105  H82   S    
C133  C142  T    
C159  C162  A    
C49   C145  S    
C160  C165  S    
C44   C91   S    
C24   C156  S    
C25   C172  T    
C117  H105  S    
C126  C135  S    
C55   C131  S    
C5    C187  A    
C83   N1    S    
C104  C108  A    
C161  C164  S    
C27   C32   S    
C102  C181  S    
C28   C31   S    
Cr5   O37   S    
C37   C149  S    
C174  C183  A    
C6    C10   A    
C129  O27   A    
C57   C167  S    
C31   O41   A    
C153  C162  A    
C65   H110  S    
C64   C65   S    
C113  H90   S    
C52   C130  S    
C136  C144  T    
H12   N2    S    
C114  C127  A    
C178  H77   S    
Cr10  O47   S    
C119  H127  S    
C123  C142  S    
C73   H137  S    
C92   C93   S    
Cr4   O30   S    
C94   C95   S    
C83   H10   S    
Cr3   O11   S    
C79   C138  T    
C59   H95   S    
C38   O4    A    
C35   C52   T    
C71   H129  S    
C82   H147  S    
C173  H35   S    
C175  C184  A    
C131  O29   A    
Cr10  O50   S    
Cr7   O43   S    
C14   C18   S    
C95   C96   S    
C47   C50   S    
C4    C8    A    
Cr5   O41   S    
C81   C82   S    
C61   H106  S    
C34   O45   A    
C119  C124  A    
C7    C11   A    
C75   H133  S    
Cr10  O25   S    
C114  H91   S    
C61   H104  S    
C17   C26   T    
Cr11  O13   S    
C78   H141  S    
C30   O40   A    
C74   H135  S    
C9    C22   S    
C13   C167  S    
C45   C51   S    
C51   H66   S    
Cr4   O4    S    
C117  C121  A    
C44   H67   S    
C100  C140  T    
C50   C156  S    
C80   C185  S    
Cr11  O26   S    
C37   O3    A    
C33   O48   A    
C85   N3    S    
C1    C146  S    
C89   H27   S    
C99   H50   S    
C45   C94   S    
C84   H14   S    
Cr10  O11   S    
C92   H37   S    
C74   C75   S    
C154  C163  A    
C123  O17   A    
C76   C77   S    
C77   H143  S    
C70   H131  S    
C8    C173  A    
Cr5   O15   S    
C36   O2    A    
C104  C121  A    
Cr7   O13   S    
C13   C24   S    
C179  O12   A    
C67   C69   S    
C128  C137  S    
C60   H108  S    
Cr1   O9    S    
C59   H93   S    
C8    C21   S    
C9    C174  A    
C83   H9    S    
C96   H42   S    
C114  C118  A    
C42   C172  S    
Cr3   O33   S    
C177  O31   A    
C64   H112  S    
C58   H97   S    
C13   H79   S    
C81   H5    S    
C106  C110  A    
C125  C133  S    
C90   C179  S    
C4    H58   S    
C18   C27   T    
C80   C81   S    
C68   C156  S    
Cr4   O35   S    
C10   C23   S    
C50   H83   S    
C63   H114  S    
C43   C87   S    
C151  C160  A    
C66   H123  S    
C85   H19   S    
C132  O26   A    
C43   H68   S    
C76   C184  S    
C12   C17   S    
Cr3   O29   S    
C24   H78   S    
C87   H31   S    
C180  O33   A    
H21   N4    S    
C2    H76   S    
C109  H87   S    
Cr5   O10   S    
C80   H7    S    
C110  H88   S    
C91   H39   S    
C42   O39   A    
C157  H2    S    
C86   H22   S    
C153  C154  A    
Cr6   O38   S    
C38   C150  S    
C83   H11   S    
C84   H16   S    
C97   H54   S    
