data_mof_unit_60985.cif
_audit_creation_date              2012-10-26T18:36:09-0400
_audit_creation_method            fapswitch 2.2
_symmetry_space_group_name_H-M    P1
_symmetry_Int_Tables_number       1
_space_group_crystal_system       triclinic
_cell_length_a                    10.808847
_cell_length_b                    12.738467
_cell_length_c                    13.907413
_cell_angle_alpha                 98.034084
_cell_angle_beta                  90.150506
_cell_angle_gamma                 92.89434
_cell_volume                      1893.58188552

loop_
_atom_site_label
_atom_site_type_symbol
_atom_type_description
_atom_site_fract_x
_atom_site_fract_y
_atom_site_fract_z
_atom_type_partial_charge
Br1   Br    Br    0.887186 0.700853 0.636025 -0.553617
Br2   Br    Br    0.323306 0.958889 0.397872 -0.457632
Br3   Br    Br    0.116376 0.301760 0.349209 -0.401404
Br4   Br    Br    0.151808 0.541171 0.292169 -0.472752
C1    C     C_R   0.498329 0.483474 0.315869 0.572867
C2    C     C_1   0.497171 0.473558 0.212639 0.029594
C3    C     C_2   0.458538 0.028621 0.475378 0.125376
C4    C     C_R   0.259643 0.500679 0.496602 0.595057
C5    C     C_2   0.536168 0.971352 0.522151 -0.129689
C6    C     C_1   0.525866 0.854444 0.517725 0.215808
C7    C     C_1   0.472265 0.145470 0.481466 0.199033
C8    C     C_R   0.501151 0.516496 0.684127 0.526269
C9    C     C_R   0.740201 0.499560 0.500078 0.547041
C10   C     C_3   0.063268 0.386438 0.469206 0.030179
C11   C     C_3   0.921367 0.385488 0.473377 -0.239726
C12   C     C_3   0.877738 0.500448 0.499049 0.018412
C13   C     C_3   0.076008 0.539871 0.602676 -0.139677
C14   C     C_3   0.073543 0.577281 0.420393 0.154424
C15   C     C_3   0.122095 0.503799 0.495813 0.050852
C16   C     C_3   0.152407 0.629916 0.666616 -0.358199
C17   C     C_3   0.482693 0.341217 0.965179 -0.354796
C18   C     C_3   0.874417 0.496302 0.686198 -0.344567
C19   C     C_3   0.111380 0.697619 0.443232 -0.324684
C20   C     C_3   0.872158 0.525659 0.315425 -0.375370
C21   C     C_3   0.931869 0.551473 0.602823 0.131506
C22   C     C_3   0.927427 0.566177 0.417649 -0.096520
C23   C     C_1   0.502136 0.525818 0.787323 -0.013658
C24   C     C_2   0.503726 0.539042 0.978013 -0.084998
C25   C     C_2   0.494487 0.451400 0.021484 0.005816
C26   C     C_1   0.495957 0.463477 0.125592 0.000895
C27   C     C_1   0.502975 0.533073 0.874233 -0.036872
Cu1   Cu    Cu3+1 0.491980 0.395330 0.493960 1.036436
Cu2   Cu    Cu3+1 0.508020 0.604670 0.506040 1.043654
H1    H     H_    0.093524 0.338009 0.524935 0.140248
H2    H     H_    0.165788 0.703472 0.633884 0.179149
H3    H     H_    0.476261 0.280110 0.014926 0.155034
H4    H     H_    0.397812 0.332496 0.918984 0.149920
H5    H     H_    0.564977 0.326753 0.918445 0.138629
H6    H     H_    0.894086 0.411065 0.679253 0.095475
H7    H     H_    0.913435 0.534585 0.757235 0.160105
H8    H     H_    0.772589 0.503292 0.689248 0.163123
H9    H     H_    0.069005 0.736914 0.509458 0.160318
H10   H     H_    0.212463 0.715452 0.446367 0.207975
H11   H     H_    0.076648 0.739000 0.384019 0.176149
H12   H     H_    0.890228 0.646481 0.434323 0.184577
H13   H     H_    0.906706 0.447684 0.284729 0.204653
H14   H     H_    0.769617 0.518173 0.316919 0.117579
H15   H     H_    0.896562 0.583730 0.265050 0.177219
H16   H     H_    0.512095 0.617212 0.021020 0.141155
H17   H     H_    0.611590 0.013214 0.565695 0.101649
H18   H     H_    0.879623 0.347035 0.403443 0.177048
H19   H     H_    0.887697 0.334271 0.527197 0.120189
H20   H     H_    0.093799 0.472098 0.642768 0.104861
H21   H     H_    0.107220 0.649292 0.738050 0.173664
H22   H     H_    0.245520 0.603165 0.682485 0.132478
N1    N     N_1   0.479930 0.238040 0.484880 -0.180312
N2    N     N_1   0.520070 0.761960 0.515120 -0.167869
O1    O     O_R   0.492240 0.399110 0.356330 -0.467582
O2    O     O_R   0.505790 0.575900 0.366540 -0.484137
O3    O     O_R   0.310920 0.411610 0.494880 -0.465027
O4    O     O_R   0.324460 0.588390 0.505090 -0.515465
O5    O     O_R   0.494210 0.424100 0.633460 -0.509006
O6    O     O_R   0.507760 0.600890 0.643670 -0.482499
O7    O     O_R   0.675540 0.411610 0.494910 -0.524585
O8    O     O_R   0.689080 0.588390 0.505120 -0.463774

loop_
_geom_bond_atom_site_label_1
_geom_bond_atom_site_label_2
_ccdc_geom_bond_type
C10   H1    S    
Br1   C21   S    
C7    N1    T    
C25   C26   S    
C11   H18   S    
C8    O5    A    
C5    C6    S    
Br2   C3    S    
C14   C22   S    
Cu1   O1    S    
C4    O4    A    
Cu2   O6    S    
Br4   C14   S    
Cu1   Cu2   S    
C6    N2    T    
Cu2   O8    S    
Cu2   O2    S    
C17   H3    S    
C9    O8    A    
C11   H19   S    
C4    O3    A    
C3    C7    S    
C9    O7    A    
C19   H9    S    
C1    O1    A    
Br3   C10   S    
C16   H22   S    
C18   H6    S    
C16   H21   S    
C24   C25   D    
C2    C26   T    
C20   C22   S    
C12   C22   S    
C1    C2    S    
C20   H13   S    
C4    C15   S    
C1    O2    A    
C8    C23   S    
C23   C27   T    
C11   C12   S    
C18   H8    S    
C13   H20   S    
C20   H14   S    
C13   C16   S    
C19   H10   S    
Cu1   O7    S    
C17   H4    S    
Cu2   O4    S    
C14   C15   S    
C24   H16   S    
C9    C12   S    
C12   C21   S    
C3    C5    D    
C8    O6    A    
Cu1   O3    S    
C18   H7    S    
C17   H5    S    
Cu2   N2    S    
Cu1   O5    S    
C22   H12   S    
C13   C15   S    
C10   C11   S    
C16   H2    S    
C17   C25   S    
C10   C15   S    
Cu1   N1    S    
C24   C27   S    
C5    H17   S    
C14   C19   S    
C13   C21   S    
C19   H11   S    
C18   C21   S    
C20   H15   S    
