data_mof_unit_50780.cif
_audit_creation_date              2012-12-10T19:08:05-0500
_audit_creation_method            fapswitch 2.2
_symmetry_space_group_name_H-M    P1
_symmetry_Int_Tables_number       1
_space_group_crystal_system       triclinic
_cell_length_a                    9.052223
_cell_length_b                    10.82374
_cell_length_c                    9.584006
_cell_angle_alpha                 90.715698
_cell_angle_beta                  90.493561
_cell_angle_gamma                 91.1948
_cell_volume                      938.7160471

loop_
_atom_site_label
_atom_site_type_symbol
_atom_type_description
_atom_site_fract_x
_atom_site_fract_y
_atom_site_fract_z
_atom_type_partial_charge
C1    C     C_R   0.501593 0.262337 0.499288 0.809422
C2    C     C_R   0.566797 0.937921 0.615757 -0.189196
C3    C     C_R   0.510594 0.870623 0.500212 -0.127326
C4    C     C_R   0.469836 0.933099 0.380071 0.100275
C5    C     C_3   0.326283 0.923730 0.301949 0.064514
C6    C     C_3   0.331229 0.063424 0.296115 -0.429134
C7    C     C_R   0.596678 0.575201 0.075608 0.240322
C8    C     C_R   0.395411 0.435382 0.070075 0.339755
C9    C     C_R   0.396458 0.435597 0.922425 -0.075925
C10   C     C_R   0.596822 0.574413 0.928188 0.229771
C11   C     C_3   0.761170 0.571542 0.921645 -0.494226
C12   C     C_R   0.220829 0.500031 0.499619 0.865142
C13   C     C_3   0.762664 0.572423 0.080447 -0.169672
C14   C     C_R   0.501554 0.737414 0.500630 0.790713
C15   C     C_R   0.779162 0.500128 0.500395 0.824876
C16   C     C_1   0.065610 0.500125 0.499458 -0.155037
C17   C     C_1   0.934370 0.500136 0.500524 -0.194287
C18   C     C_R   0.472281 0.060606 0.377998 0.068079
C19   C     C_R   0.512657 0.128968 0.497427 -0.093123
C20   C     C_R   0.567539 0.066896 0.614459 -0.196053
Cu1   Cu    Cu3+1 0.499990 0.499980 0.640670 0.958573
Cu2   Cu    Cu3+1 0.500010 0.500020 0.359330 1.000088
H1    H     H_    0.606427 0.117623 0.706221 0.170634
H2    H     H_    0.808981 0.655740 0.872858 0.198892
H3    H     H_    0.803950 0.484093 0.122546 0.193138
H4    H     H_    0.605667 0.891278 0.708023 0.169052
H5    H     H_    0.234287 0.886228 0.366147 0.130306
H6    H     H_    0.350020 0.098685 0.189387 0.261792
H7    H     H_    0.240111 0.107465 0.354393 0.191532
H8    H     H_    0.314759 0.381312 0.864155 0.173130
H9    H     H_    0.801566 0.483409 0.876732 0.211028
N1    N     N_R   0.500920 0.500930 0.147930 -0.216191
N2    N     N_R   0.500930 0.500890 0.852020 -0.208896
O1    O     O_R   0.500000 0.319640 0.618810 -0.590555
O2    O     O_R   0.500020 0.319680 0.381230 -0.548153
O3    O     O_R   0.288380 0.499980 0.618770 -0.585805
O4    O     O_R   0.288400 0.500020 0.381190 -0.521566
O5    O     O_R   0.499980 0.680320 0.618770 -0.574189
O6    O     O_R   0.500000 0.680360 0.381190 -0.559565
O7    O     O_R   0.711600 0.499980 0.618810 -0.582345
O8    O     O_R   0.711620 0.500020 0.381230 -0.594109
C21   C     C_3   0.842418 0.686659 0.147750 -0.334597
C22   C     C_3   0.767241 0.810844 0.123842 -0.332715
C23   C     C_3   0.855624 0.917306 0.192145 -0.811199
H10   H     H_    0.865235 0.903207 0.306488 0.245458
H11   H     H_    0.967955 0.924157 0.146703 0.281438
H12   H     H_    0.798281 0.005484 0.174129 0.255345
H13   H     H_    0.755663 0.828977 0.010553 0.223389
H14   H     H_    0.655841 0.808191 0.170734 0.267441
H15   H     H_    0.851584 0.672226 0.261813 0.210673
H16   H     H_    0.957077 0.691601 0.107144 0.233482
Br1   Br    Br    0.342985 0.845096 0.119637 -0.566962
Br2   Br    Br    0.240912 0.337590 0.150317 -0.557438

loop_
_geom_bond_atom_site_label_1
_geom_bond_atom_site_label_2
_ccdc_geom_bond_type
C8    Br2   S    
C8    C9    A    
C7    C10   A    
C22   C23   S    
C23   H12   S    
C5    Br1   S    
Cu1   O1    S    
C14   O5    A    
C22   H13   S    
C19   C20   A    
C20   H1    S    
C21   H16   S    
C4    C18   A    
C2    C3    A    
C11   H9    S    
C2    H4    S    
Cu1   O3    S    
Cu1   Cu2   S    
C9    N2    A    
Cu2   O2    S    
C11   C13   S    
C13   H3    S    
C16   C17   T    
C3    C14   S    
Cu2   N1    S    
C9    H8    S    
C21   H15   S    
Cu2   O6    S    
C13   C21   S    
C23   H11   S    
C1    O1    A    
C10   N2    A    
C5    C6    S    
C6    C18   S    
C15   O7    A    
C1    C19   S    
Cu2   O8    S    
C12   O3    A    
C10   C11   S    
C2    C20   A    
C3    C4    A    
C8    N1    A    
C11   H2    S    
C7    C13   S    
C6    H7    S    
Cu1   N2    S    
C23   H10   S    
C15   O8    A    
C18   C19   A    
C21   C22   S    
C12   O4    A    
C15   C17   S    
C1    O2    A    
C22   H14   S    
C7    N1    A    
C14   O6    A    
C5    H5    S    
Cu2   O4    S    
C6    H6    S    
Cu1   O5    S    
C12   C16   S    
C4    C5    S    
Cu1   O7    S    
