data_mof_unit_38578.cif
_audit_creation_date              2012-12-11T14:49:33-0500
_audit_creation_method            fapswitch 2.2
_symmetry_space_group_name_H-M    P1
_symmetry_Int_Tables_number       1
_space_group_crystal_system       triclinic
_cell_length_a                    16.886343
_cell_length_b                    16.753163
_cell_length_c                    19.437319
_cell_angle_alpha                 117.810405
_cell_angle_beta                  62.303626
_cell_angle_gamma                 100.901325
_cell_volume                      4303.71256492

loop_
_atom_site_label
_atom_site_type_symbol
_atom_type_description
_atom_site_fract_x
_atom_site_fract_y
_atom_site_fract_z
_atom_type_partial_charge
C1    C     C_R   0.026669 0.761486 0.023455 0.503163
C2    C     C_R   0.237210 0.579140 0.834664 -0.176361
C3    C     C_R   0.194191 0.436904 0.036486 -0.127587
C4    C     C_R   0.748391 0.479321 0.172029 -0.132622
C5    C     C_R   0.047931 0.326699 0.751503 -0.128614
C6    C     C_R   0.275849 0.448863 0.975986 0.061995
C7    C     C_R   0.040141 0.240396 0.746416 0.074026
C8    C     C_R   0.234295 0.559817 0.758440 0.089714
C9    C     C_R   0.986204 0.232108 0.044596 0.084636
C10   C     C_R   0.065771 0.073553 0.672242 -0.252031
C11   C     C_R   0.085967 0.157498 0.669334 0.112518
C12   C     C_R   0.741714 0.540654 0.253530 0.074675
C13   C     C_R   0.141477 0.160800 0.590053 -0.254444
C14   C     C_R   0.161391 0.082487 0.513227 0.140590
C15   C     C_R   0.128659 0.999809 0.516425 0.027816
C16   C     C_R   0.816758 0.509601 0.911918 -0.130485
C17   C     C_R   0.085306 0.994495 0.596029 0.137414
C18   C     C_R   0.204320 0.087289 0.433884 -0.205504
C19   C     C_R   0.205623 0.013086 0.359440 -0.203915
C20   C     C_R   0.164273 0.933727 0.364022 0.141736
C21   C     C_R   0.130197 0.925194 0.441585 0.027526
C22   C     C_R   0.088670 0.845599 0.446728 0.141837
C23   C     C_R   0.742389 0.459326 0.934719 0.062944
C24   C     C_R   0.054789 0.837686 0.524133 -0.210362
C25   C     C_R   0.053092 0.912008 0.598664 -0.197985
C26   C     C_R   0.148265 0.866780 0.295303 -0.257445
C27   C     C_R   0.096933 0.792733 0.304154 0.116070
C28   C     C_R   0.011654 0.658811 0.240871 -0.145762
C29   C     C_R   0.073459 0.779205 0.377360 -0.257334
C30   C     C_R   0.367104 0.645986 0.704398 -0.267011
C31   C     C_R   0.293622 0.594539 0.694939 0.110926
C32   C     C_R   0.281855 0.569633 0.620590 -0.262286
C33   C     C_R   0.348769 0.584318 0.551341 0.144313
C34   C     C_R   0.060592 0.734873 0.241625 0.054051
C35   C     C_R   0.427445 0.626147 0.557437 0.027611
C36   C     C_R   0.434792 0.660894 0.635625 0.145767
C37   C     C_R   0.341912 0.550181 0.473399 -0.207810
C38   C     C_R   0.416000 0.549157 0.399524 -0.204074
C39   C     C_R   0.497384 0.582013 0.403182 0.141013
C40   C     C_R   0.749735 0.430689 0.987797 -0.141918
C41   C     C_R   0.501981 0.624911 0.483146 0.026343
C42   C     C_R   0.583595 0.658124 0.487343 0.140722
C43   C     C_R   0.587541 0.700938 0.567148 -0.204492
C44   C     C_R   0.513315 0.702332 0.641110 -0.208179
C45   C     C_R   0.261408 0.515421 0.959222 -0.129192
C46   C     C_R   0.575969 0.564030 0.327506 -0.257145
C47   C     C_R   0.658992 0.585010 0.331038 0.115171
C48   C     C_R   0.661585 0.639352 0.410994 -0.257577
C49   C     C_R   0.675126 0.431689 0.900768 0.131288
C50   C     C_R   0.362302 0.404650 0.940505 0.130685
C51   C     C_R   0.454746 0.329219 0.958930 -0.225516
C52   C     C_R   0.079799 0.737378 0.165249 -0.083136
C53   C     C_R   0.370796 0.347992 0.972048 -0.170715
C54   C     C_R   0.439302 0.429579 0.883949 -0.276931
C55   C     C_R   0.522601 0.416846 0.875863 0.188151
C56   C     C_R   0.978631 0.247365 0.827611 -0.128815
C57   C     C_R   0.529561 0.369917 0.917197 0.188577
C58   C     C_R   0.607464 0.374455 0.926009 -0.279418
C59   C     C_R   0.671790 0.469974 0.851373 -0.176783
C60   C     C_R   0.596319 0.460892 0.837384 -0.224812
C61   C     C_R   0.791113 0.177177 0.175019 0.078173
C62   C     C_R   0.933193 0.863789 0.019793 0.117031
C63   C     C_R   0.867031 0.951433 0.986930 0.507223
C64   C     C_R   0.827617 0.549042 0.248556 -0.132787
C65   C     C_R   0.908759 0.871764 0.963345 -0.363754
C66   C     C_R   0.918579 0.937882 0.099573 -0.236236
C67   C     C_R   0.157988 0.511274 0.759327 -0.141779
C68   C     C_R   0.877664 0.018262 0.123983 0.099570
C69   C     C_R   0.850879 0.025117 0.067756 0.022798
C70   C     C_R   0.807009 0.105055 0.094483 -0.228114
C71   C     C_R   0.818677 0.170698 0.229718 -0.152945
C72   C     C_R   0.861637 0.091587 0.204595 -0.171460
C73   C     C_R   0.946270 0.691120 0.948985 -0.241518
C74   C     C_R   0.968225 0.776285 0.997851 -0.033160
C75   C     C_3   0.167178 0.811337 0.999989 0.252239
C76   C     C_3   0.220401 0.891754 0.033410 -0.913538
C77   C     C_3   0.770107 0.910690 0.926005 0.255484
C78   C     C_R   0.025350 0.313277 0.076372 -0.142894
C79   C     C_3   0.743650 0.926043 0.868110 -0.902568
C80   C     C_R   0.947394 0.244936 0.001151 -0.131292
H1    H     H_    0.955294 0.193427 0.846836 0.101100
H2    H     H_    0.231024 0.150149 0.430479 0.130211
H3    H     H_    0.695411 0.456968 0.151700 0.095924
H4    H     H_    0.233471 0.019831 0.299764 0.130922
H5    H     H_    0.169641 0.876943 0.238289 0.117822
H6    H     H_    0.036640 0.721102 0.384292 0.115894
H7    H     H_    0.024081 0.776213 0.528421 0.128947
H8    H     H_    0.020917 0.906753 0.659280 0.142838
H9    H     H_    0.375950 0.668671 0.762275 0.115725
H10   H     H_    0.224391 0.532521 0.613062 0.115975
H11   H     H_    0.281224 0.519219 0.468307 0.128120
H12   H     H_    0.127027 0.496759 0.717232 0.085714
H13   H     H_    0.411320 0.517263 0.338606 0.129883
H14   H     H_    0.572270 0.526356 0.266366 0.118890
H15   H     H_    0.839998 0.531184 0.861438 0.082936
H16   H     H_    0.724597 0.660239 0.414847 0.119049
H17   H     H_    0.649555 0.727970 0.571384 0.130697
H18   H     H_    0.519226 0.730588 0.701242 0.128224
H19   H     H_    0.610046 0.341187 0.961041 0.115961
H20   H     H_    0.724144 0.512090 0.828523 0.113150
H21   H     H_    0.459640 0.291158 0.989203 0.126727
H22   H     H_    0.592247 0.496006 0.804266 0.126303
H23   H     H_    0.051489 0.331233 0.122816 0.093332
H24   H     H_    0.312879 0.323735 0.012257 0.116404
H25   H     H_    0.434584 0.468650 0.854663 0.118661
H26   H     H_    0.784478 0.112100 0.053713 0.151907
H27   H     H_    0.996988 0.627076 0.282539 0.089213
H28   H     H_    0.806216 0.227042 0.291897 0.118575
H29   H     H_    0.881880 0.087539 0.248264 0.124819
H30   H     H_    0.922034 0.816003 0.900585 0.147829
H31   H     H_    0.936035 0.932091 0.144154 0.172107
H32   H     H_    0.711543 0.379833 0.007983 0.087448
H33   H     H_    0.129005 0.778355 0.138141 0.128683
H34   H     H_    0.901514 0.199588 0.977785 0.106138
H35   H     H_    0.847979 0.591421 0.299179 0.096572
H36   H     H_    0.903663 0.676117 0.917053 0.131285
H37   H     H_    0.309258 0.543330 0.916398 0.096664
H38   H     H_    0.176223 0.802943 0.936284 0.099255
H39   H     H_    0.194713 0.750222 0.991116 0.082622
H40   H     H_    0.214185 0.901714 0.096368 0.244883
H41   H     H_    0.292130 0.879761 0.986514 0.209793
H42   H     H_    0.195032 0.953791 0.041898 0.264511
H43   H     H_    0.712939 0.934153 0.991601 0.086128
H44   H     H_    0.783084 0.836938 0.898891 0.091079
H45   H     H_    0.280079 0.626126 0.861249 0.078001
H46   H     H_    0.798931 0.902378 0.801813 0.257008
H47   H     H_    0.682937 0.887987 0.865256 0.207625
H48   H     H_    0.729083 0.999069 0.894097 0.252714
H49   H     H_    0.181091 0.391623 0.065328 0.090611
H50   H     H_    0.089802 0.347566 0.701224 0.095408
H51   H     H_    0.027384 0.069473 0.733080 0.131055
H52   H     H_    0.162102 0.224621 0.586886 0.118681
N1    N     N_R   0.036080 0.671900 0.995420 -0.104685
N2    N     N_R   0.867430 0.509300 0.948100 -0.032998
N3    N     N_R   0.003360 0.617250 0.167070 -0.041706
N4    N     N_R   0.825450 0.461270 0.995400 -0.038345
N5    N     N_R   0.045340 0.665280 0.119770 -0.048137
N6    N     N_R   0.883740 0.497640 0.167070 -0.040876
N7    N     N_R   0.987050 0.628910 0.948110 -0.060987
N8    N     N_R   0.174550 0.538730 0.004600 -0.044370
N9    N     N_R   0.954660 0.334720 0.880230 -0.040592
N10   N     N_R   0.116260 0.502360 0.832930 -0.034992
N11   N     N_R   0.012950 0.371090 0.051890 -0.038461
N12   N     N_R   0.963920 0.328100 0.004580 -0.041781
N13   N     N_R   0.165290 0.545350 0.880240 -0.040538
N14   N     N_R   0.132570 0.490700 0.051900 -0.039017
N15   N     N_R   0.996640 0.382750 0.832930 -0.039677
N16   N     N_R   0.834710 0.454650 0.119760 -0.041309
Ni1   Ni    Ni4+2 0.104370 0.604370 0.000010 0.204066
Ni2   Ni    Ni4+2 0.895630 0.395630 0.999990 0.213111
Ni3   Ni    Ni4+2 0.991920 0.505780 0.891500 0.205544
Ni4   Ni    Ni4+2 0.008080 0.494220 0.108500 0.209747
O1    O     O_3   0.076328 0.827067 0.060445 -0.653490
O2    O     O_3   0.847373 0.959380 0.928737 -0.636019

loop_
_geom_bond_atom_site_label_1
_geom_bond_atom_site_label_2
_ccdc_geom_bond_type
C61   C70   A    
C66   C68   A    
C79   H48   S    
C63   C65   A    
C5    N15   A    
C6    C45   A    
C27   C29   A    
C28   N3    A    
C41   C42   A    
C14   C18   A    
C35   C36   A    
C75   C76   S    
C3    C6    A    
C16   N2    A    
C56   H1    S    
C39   C41   A    
C64   N6    A    
C52   H33   S    
C2    N13   A    
C7    C11   S    
C40   N4    A    
C26   C27   A    
C50   C54   A    
C73   H36   S    
C1    C74   A    
C22   C29   A    
N16   Ni2   S    
C12   C47   S    
C30   C31   A    
C12   C64   A    
C60   H22   S    
C23   C49   S    
C10   C17   A    
C23   C40   A    
C4    N16   A    
C15   C17   A    
C18   C19   A    
C73   C74   A    
C10   H51   S    
N12   Ni2   S    
C33   C35   A    
C54   C55   A    
C44   H18   S    
C32   H10   S    
C63   C69   A    
N6    N16   A    
C68   C69   A    
C80   N12   A    
C51   C57   A    
C66   H31   S    
C4    C12   A    
C62   C65   A    
C55   C60   A    
C61   C71   A    
C28   C34   A    
C59   C60   A    
C64   H35   S    
C13   C14   A    
C59   H20   S    
N10   N13   A    
N5    Ni1   S    
C75   H38   S    
C7    C56   A    
C30   H9    S    
C1    N1    A    
N9    Ni2   S    
C77   C79   S    
C27   C34   S    
C50   C53   A    
C62   C66   A    
N1    Ni1   S    
C24   C25   A    
C40   H32   S    
C70   H26   S    
N8    N14   A    
C5    C7    A    
C37   H11   S    
N2    N4    A    
C73   N7    A    
N6    Ni4   S    
C25   H8    S    
C33   C37   A    
C49   C58   A    
C51   C53   A    
C9    C80   A    
N10   Ni3   S    
C42   C48   A    
N15   Ni3   S    
C43   C44   A    
C37   C38   A    
C77   H43   S    
C77   O2    S    
C75   O1    S    
C47   C48   A    
C46   H14   S    
C68   C72   A    
C52   N5    A    
C75   H39   S    
C76   H40   S    
C6    C50   S    
C1    O1    S    
C29   H6    S    
C53   H24   S    
C8    C67   A    
C39   C46   A    
N14   Ni4   S    
C56   N9    A    
C5    H50   S    
C79   H46   S    
C80   H34   S    
N1    N7    A    
C16   C23   A    
C55   C57   A    
C22   C24   A    
C36   C44   A    
C42   C43   A    
C76   H41   S    
C19   H4    S    
C45   H37   S    
N3    N5    A    
C79   H47   S    
C72   H29   S    
N11   Ni4   S    
C16   H15   S    
C48   H16   S    
C54   H25   S    
C78   H23   S    
C3    H49   S    
C8    C31   S    
C31   C32   A    
C2    C8    A    
C58   H19   S    
C43   H17   S    
C63   O2    S    
N4    Ni2   S    
C51   H21   S    
C34   C52   A    
C49   C59   A    
C30   C36   A    
C17   C25   A    
C32   C33   A    
C19   C20   A    
N11   N12   A    
C76   H42   S    
C71   C72   A    
C77   H44   S    
C78   N11   A    
C11   C13   A    
C57   C58   A    
C38   C39   A    
C4    H3    S    
C20   C26   A    
C26   H5    S    
N2    Ni3   S    
C38   H13   S    
N7    Ni3   S    
C67   H12   S    
C18   H2    S    
C13   H52   S    
C9    C78   A    
C45   N8    A    
C69   C70   A    
C35   C41   A    
C24   H7    S    
C65   H30   S    
C46   C47   A    
C10   C11   A    
N9    N15   A    
C2    H45   S    
C15   C21   A    
C20   C21   A    
C3    N14   A    
C14   C15   A    
C62   C74   S    
C28   H27   S    
C21   C22   A    
C67   N10   A    
N8    Ni1   S    
N13   Ni1   S    
N3    Ni4   S    
C71   H28   S    
