data_mof_unit_22594.cif
_audit_creation_date              2012-12-11T14:24:46-0500
_audit_creation_method            fapswitch 2.2
_symmetry_space_group_name_H-M    P1
_symmetry_Int_Tables_number       1
_space_group_crystal_system       triclinic
_cell_length_a                    19.308282
_cell_length_b                    11.148775
_cell_length_c                    18.603572
_cell_angle_alpha                 89.863722
_cell_angle_beta                  92.509068
_cell_angle_gamma                 90.084763
_cell_volume                      4000.81922081

loop_
_atom_site_label
_atom_site_type_symbol
_atom_type_description
_atom_site_fract_x
_atom_site_fract_y
_atom_site_fract_z
_atom_type_partial_charge
C1    C     C_R   0.727789 0.375419 0.146386 0.555287
C2    C     C_R   0.274528 0.366923 0.856743 0.555662
C3    C     C_R   0.227789 0.875415 0.146381 0.543091
C4    C     C_R   0.774527 0.866930 0.856737 0.560091
C5    C     C_3   0.509313 0.049053 0.020835 -0.113138
C6    C     C_3   0.554381 0.077068 0.956520 -0.149184
C7    C     C_3   0.009353 0.549042 0.020832 -0.113530
C8    C     C_3   0.054415 0.577080 0.956515 -0.148731
C9    C     C_R   0.764646 0.887178 0.933261 0.004881
C10   C     C_R   0.239121 0.913791 0.072869 0.010679
C11   C     C_R   0.264657 0.387142 0.933279 0.007204
C12   C     C_R   0.739121 0.413812 0.072878 0.007615
C13   C     C_R   0.700994 0.862121 0.963796 -0.024269
C14   C     C_R   0.303598 0.899096 0.043758 -0.029152
C15   C     C_R   0.201018 0.362041 0.963837 -0.024569
C16   C     C_R   0.803608 0.399190 0.043784 -0.030106
C17   C     C_R   0.697594 0.858951 0.039461 0.014366
C18   C     C_R   0.307181 0.885670 0.968607 0.005779
C19   C     C_R   0.197638 0.358853 0.039505 0.013388
C20   C     C_R   0.807207 0.385755 0.968637 0.006726
C21   C     C_R   0.817815 0.916858 0.052542 -0.135874
C22   C     C_R   0.186583 0.942153 0.953723 -0.129914
C23   C     C_R   0.317843 0.416849 0.052554 -0.136723
C24   C     C_R   0.686593 0.442138 0.953724 -0.129052
C25   C     C_R   0.824181 0.903562 0.978957 0.238043
C26   C     C_R   0.179796 0.932080 0.027010 0.234370
C27   C     C_R   0.324196 0.403548 0.978963 0.238913
C28   C     C_R   0.679798 0.432063 0.027008 0.233443
C29   C     C_R   0.641318 0.833289 0.921132 -0.091662
C30   C     C_R   0.362262 0.877425 0.088738 -0.085155
C31   C     C_R   0.141332 0.333209 0.921195 -0.091471
C32   C     C_R   0.862268 0.377568 0.088781 -0.085780
C33   C     C_R   0.084394 0.284629 0.951378 -0.124894
C34   C     C_R   0.913977 0.306962 0.064075 -0.119985
C35   C     C_R   0.584381 0.784668 0.951292 -0.125054
C36   C     C_R   0.413965 0.806833 0.064005 -0.119341
C37   C     C_R   0.583377 0.773140 0.025345 -0.148639
C38   C     C_R   0.415285 0.782123 0.990832 -0.141687
C39   C     C_R   0.083408 0.273095 0.025433 -0.148875
C40   C     C_R   0.915305 0.282200 0.990909 -0.141773
C41   C     C_R   0.638868 0.808859 0.069343 -0.084035
C42   C     C_R   0.364640 0.825774 0.942582 -0.082162
C43   C     C_R   0.138927 0.308746 0.069409 -0.084505
C44   C     C_R   0.864677 0.325861 0.942637 -0.081989
C45   C     C_R   0.563306 0.150674 0.138045 0.584239
C46   C     C_R   0.468417 0.155116 0.854548 0.548790
C47   C     C_R   0.063318 0.650673 0.138049 0.582653
C48   C     C_R   0.968419 0.655115 0.854550 0.555946
C49   C     C_R   0.753440 0.904274 0.082494 -0.047489
C50   C     C_R   0.250324 0.922252 0.923572 -0.050764
C51   C     C_R   0.253475 0.404219 0.082524 -0.050008
C52   C     C_R   0.750344 0.422287 0.923588 -0.048452
C53   C     C_R   0.489354 0.167323 0.573508 -0.037459
C54   C     C_R   0.508738 0.147672 0.426210 -0.031992
C55   C     C_R   0.977528 0.666437 0.570124 -0.007917
C56   C     C_R   0.010950 0.667463 0.426270 -0.034211
C57   C     C_R   0.532635 0.077382 0.548848 -0.034920
C58   C     C_R   0.530444 0.053479 0.474812 -0.019529
C59   C     C_R   0.927056 0.631732 0.516351 -0.034526
C60   C     C_R   0.945524 0.625585 0.443907 -0.038694
C61   C     C_R   0.464280 0.234885 0.449886 0.240549
C62   C     C_R   0.450834 0.238659 0.523032 0.249434
C63   C     C_R   0.053797 0.726236 0.478630 0.237800
C64   C     C_R   0.039284 0.719454 0.551477 0.239213
C65   C     C_R   0.566905 0.997014 0.597127 -0.071310
C66   C     C_R   0.542863 0.933122 0.454281 -0.076772
C67   C     C_R   0.857252 0.612849 0.532274 -0.075729
C68   C     C_R   0.895806 0.590258 0.390173 -0.099683
C69   C     C_R   0.807977 0.584725 0.477905 -0.109739
C70   C     C_R   0.827350 0.570935 0.407358 -0.111144
C71   C     C_R   0.578317 0.880175 0.576079 -0.113208
C72   C     C_R   0.564237 0.847883 0.504994 -0.151485
C73   C     C_R   0.760169 0.902916 0.567470 0.005431
C74   C     C_R   0.263343 0.967356 0.408282 -0.008898
C75   C     C_R   0.235350 0.466816 0.591845 -0.012578
C76   C     C_R   0.710718 0.333766 0.439650 -0.011462
C77   C     C_R   0.808907 0.977940 0.533586 0.041011
C78   C     C_R   0.222675 0.061622 0.433714 0.029209
C79   C     C_R   0.273463 0.564915 0.566966 0.005683
C80   C     C_R   0.656270 0.390742 0.477226 0.010489
C81   C     C_R   0.821501 0.955333 0.461684 0.042270
C82   C     C_R   0.218238 0.077046 0.509075 0.052025
C83   C     C_R   0.278974 0.580123 0.491551 0.045162
C84   C     C_R   0.665014 0.406965 0.552303 0.024583
C85   C     C_R   0.719989 0.828062 0.451047 -0.149258
C86   C     C_R   0.326921 0.968202 0.522684 -0.134079
C87   C     C_R   0.173175 0.463443 0.476689 -0.139589
C88   C     C_R   0.781271 0.324687 0.550127 -0.161014
C89   C     C_R   0.742035 0.966205 0.150488 0.533498
C90   C     C_R   0.258930 0.969649 0.851188 0.547094
C91   C     C_R   0.242051 0.466165 0.150514 0.541061
C92   C     C_R   0.758940 0.469677 0.851204 0.537704
C93   C     C_R   0.721104 0.820584 0.525334 -0.150509
C94   C     C_R   0.322041 0.936197 0.449772 -0.161217
C95   C     C_R   0.178003 0.431395 0.549634 -0.161250
C96   C     C_R   0.769976 0.293495 0.478391 -0.146058
C97   C     C_R   0.849305 0.067437 0.569849 -0.076883
C98   C     C_R   0.182664 0.133965 0.385471 -0.106045
C99   C     C_R   0.312043 0.638655 0.615625 -0.119837
C100  C     C_R   0.596139 0.443960 0.443142 -0.080431
C101  C     C_R   0.907895 0.115692 0.539298 -0.132850
C102  C     C_R   0.127973 0.200760 0.410040 -0.137182
C103  C     C_R   0.366849 0.706431 0.591548 -0.129992
C104  C     C_R   0.557947 0.528628 0.478344 -0.161521
C105  C     C_R   0.925576 0.079506 0.471247 -0.145649
C106  C     C_R   0.114767 0.199361 0.482853 -0.179351
C107  C     C_R   0.381148 0.704973 0.518932 -0.180253
C108  C     C_R   0.566342 0.539586 0.552079 -0.162880
C109  C     C_R   0.883477 0.998251 0.432943 -0.085883
C110  C     C_R   0.161436 0.144841 0.532446 -0.093475
C111  C     C_R   0.335431 0.649592 0.468763 -0.100556
C112  C     C_R   0.610733 0.461373 0.588975 -0.087128
C113  C     C_R   0.767167 0.902902 0.418917 0.001305
C114  C     C_R   0.270402 0.022278 0.555714 0.011903
C115  C     C_R   0.228757 0.521904 0.444287 0.012043
C116  C     C_R   0.731257 0.388008 0.586259 -0.013129
C117  C     C_R   0.709742 0.327672 0.360486 0.556071
C118  C     C_R   0.265687 0.388910 0.650700 0.558974
C119  C     C_R   0.234119 0.888756 0.349401 0.555260
C120  C     C_R   0.770547 0.876300 0.643811 0.519035
C121  C     C_R   0.534679 0.154017 0.353604 0.578619
C122  C     C_R   0.464932 0.157843 0.646407 0.551126
C123  C     C_R   0.035497 0.657275 0.353756 0.559702
C124  C     C_R   0.962517 0.657117 0.645373 0.574900
C125  C     C_R   0.745871 0.964555 0.352478 0.535424
C126  C     C_R   0.271308 0.026815 0.636375 0.569394
C127  C     C_R   0.228562 0.526801 0.363599 0.568307
C128  C     C_R   0.753975 0.462871 0.648259 0.519468
C129  C     C_3   0.530916 0.267383 0.965957 -0.037722
C130  C     C_3   0.485684 0.240215 0.030985 -0.040337
C131  C     C_3   0.030923 0.767385 0.965959 -0.036498
C132  C     C_3   0.985696 0.740192 0.030986 -0.041406
C133  C     C_3   0.588275 0.182536 0.997456 -0.108135
C134  C     C_3   0.452152 0.133105 0.990557 -0.087631
C135  C     C_3   0.088295 0.682557 0.997455 -0.106877
C136  C     C_3   0.952179 0.633072 0.990557 -0.089778
C137  C     C_3   0.542359 0.155961 0.061105 0.048992
C138  C     C_3   0.497903 0.161031 0.927232 0.041741
C139  C     C_3   0.042383 0.655959 0.061105 0.050200
C140  C     C_3   0.997923 0.661025 0.927229 0.040595
Cr1   Cr    Cr6+3 0.772820 0.169820 0.252640 0.992976
Cr2   Cr    Cr6+3 0.227180 0.169820 0.747360 0.997744
Cr3   Cr    Cr6+3 0.272820 0.669820 0.252640 0.988624
Cr4   Cr    Cr6+3 0.727180 0.669820 0.747360 0.978563
Cr5   Cr    Cr6+3 0.615040 0.323610 0.249150 1.008065
Cr6   Cr    Cr6+3 0.384960 0.323610 0.750850 1.011649
Cr7   Cr    Cr6+3 0.115040 0.823610 0.249150 1.009768
Cr8   Cr    Cr6+3 0.884960 0.823610 0.750850 1.041130
Cr9   Cr    Cr6+3 0.616720 0.011130 0.250660 0.976617
Cr10  Cr    Cr6+3 0.383280 0.011130 0.749340 0.984684
Cr11  Cr    Cr6+3 0.116720 0.511130 0.250660 0.976939
Cr12  Cr    Cr6+3 0.883280 0.511130 0.749340 0.989256
H1    H     H_    0.577315 0.019780 0.653140 0.118985
H2    H     H_    0.530127 0.897610 0.401597 0.145585
H3    H     H_    0.839584 0.627908 0.585720 0.148304
H4    H     H_    0.908316 0.584533 0.334131 0.124855
H5    H     H_    0.754135 0.576217 0.490239 0.130128
H6    H     H_    0.788765 0.549900 0.365389 0.147050
H7    H     H_    0.596929 0.814359 0.615130 0.120433
H8    H     H_    0.572607 0.757559 0.487981 0.110335
H9    H     H_    0.681885 0.777863 0.418940 0.126699
H10   H     H_    0.372925 0.943031 0.554269 0.156502
H11   H     H_    0.128038 0.435498 0.444697 0.151557
H12   H     H_    0.832280 0.311406 0.575004 0.139309
H13   H     H_    0.835853 0.101182 0.621917 0.129520
H14   H     H_    0.190583 0.131851 0.328186 0.117021
H15   H     H_    0.303864 0.634967 0.672835 0.118102
H16   H     H_    0.577240 0.429104 0.389204 0.199071
H17   H     H_    0.939268 0.181745 0.568279 0.107522
H18   H     H_    0.094111 0.249377 0.372364 0.124249
H19   H     H_    0.400222 0.755301 0.629505 0.129591
H20   H     H_    0.517911 0.579010 0.449017 0.106584
H21   H     H_    0.897952 0.972423 0.379551 0.123819
H22   H     H_    0.150860 0.159092 0.587811 0.166318
H23   H     H_    0.346812 0.662736 0.413423 0.166127
H24   H     H_    0.607189 0.455084 0.646770 0.133315
H25   H     H_    0.539136 0.353746 0.938424 0.130518
H26   H     H_    0.458468 0.305956 0.064189 0.138292
H27   H     H_    0.039134 0.853757 0.938432 0.132720
H28   H     H_    0.958467 0.805923 0.064187 0.137000
H29   H     H_    0.504500 0.961194 0.046451 0.163614
H30   H     H_    0.580241 0.022682 0.916927 0.125527
H31   H     H_    0.004564 0.461178 0.046444 0.163935
H32   H     H_    0.080299 0.522687 0.916940 0.126859
H33   H     H_    0.863110 0.939852 0.086119 0.127638
H34   H     H_    0.140874 0.960829 0.919784 0.133073
H35   H     H_    0.363139 0.439881 0.086118 0.129966
H36   H     H_    0.640886 0.460780 0.919775 0.129619
H37   H     H_    0.041084 0.231376 0.049933 0.076346
H38   H     H_    0.953985 0.225689 0.971141 0.078441
H39   H     H_    0.541062 0.731372 0.049827 0.076631
H40   H     H_    0.453975 0.725661 0.971034 0.078104
H41   H     H_    0.636660 0.788233 0.125948 0.129501
H42   H     H_    0.367348 0.799149 0.887002 0.127962
H43   H     H_    0.136745 0.288100 0.126017 0.127118
H44   H     H_    0.867400 0.299230 0.887061 0.129853
O1    O     O_R   0.788190 0.043000 0.172520 -0.519111
O2    O     O_R   0.211810 0.043000 0.827480 -0.514150
O3    O     O_R   0.288190 0.543000 0.172520 -0.511889
O4    O     O_R   0.711810 0.543000 0.827480 -0.524570
O5    O     O_R   0.556550 0.253260 0.323480 -0.504947
O6    O     O_R   0.443450 0.253260 0.676520 -0.486169
O7    O     O_R   0.056550 0.753260 0.323480 -0.474876
O8    O     O_R   0.943450 0.753260 0.676520 -0.474455
O9    O     O_R   0.545830 0.051610 0.330160 -0.545490
O10   O     O_R   0.454170 0.051610 0.669840 -0.545465
O11   O     O_R   0.045830 0.551610 0.330160 -0.541450
O12   O     O_R   0.954170 0.551610 0.669840 -0.538768
O13   O     O_R   0.681920 0.959720 0.327070 -0.504309
O14   O     O_R   0.318080 0.959720 0.672930 -0.516396
O15   O     O_R   0.181920 0.459720 0.327070 -0.516633
O16   O     O_R   0.818080 0.459720 0.672930 -0.517756
O17   O     O_3   0.668190 0.168190 0.250820 -0.296961
O18   O     O_3   0.331810 0.168190 0.749180 -0.269792
O19   O     O_3   0.168190 0.668190 0.250820 -0.288966
O20   O     O_3   0.831810 0.668190 0.749180 -0.266222
O21   O     O_R   0.766240 0.292300 0.176860 -0.509651
O22   O     O_R   0.233760 0.292300 0.823140 -0.526687
O23   O     O_R   0.266240 0.792300 0.176860 -0.516798
O24   O     O_R   0.733760 0.792300 0.823140 -0.521563
O25   O     O_R   0.670310 0.409160 0.168720 -0.481877
O26   O     O_R   0.329690 0.409160 0.831280 -0.489889
O27   O     O_R   0.170310 0.909160 0.168720 -0.492626
O28   O     O_R   0.829690 0.909160 0.831280 -0.482876
O29   O     O_R   0.556160 0.251900 0.173380 -0.481949
O30   O     O_R   0.443840 0.251900 0.826620 -0.482183
O31   O     O_R   0.056160 0.751900 0.173380 -0.489411
O32   O     O_R   0.943840 0.751900 0.826620 -0.475790
O33   O     O_R   0.545410 0.050140 0.168240 -0.538116
O34   O     O_R   0.454590 0.050140 0.831760 -0.529640
O35   O     O_R   0.045410 0.550140 0.168240 -0.540574
O36   O     O_R   0.954590 0.550140 0.831760 -0.526803
O37   O     O_R   0.681530 0.958350 0.176970 -0.526842
O38   O     O_R   0.318470 0.958350 0.823030 -0.508769
O39   O     O_R   0.181530 0.458350 0.176970 -0.524161
O40   O     O_R   0.818470 0.458350 0.823030 -0.510605
O41   O     O_R   0.788610 0.044480 0.334450 -0.535485
O42   O     O_R   0.211390 0.044480 0.665550 -0.527048
O43   O     O_R   0.288610 0.544480 0.334450 -0.534044
O44   O     O_R   0.711390 0.544480 0.665550 -0.535994
O45   O     O_R   0.766630 0.293670 0.326970 -0.504860
O46   O     O_R   0.233370 0.293670 0.673030 -0.528573
O47   O     O_R   0.266630 0.793670 0.326970 -0.529563
O48   O     O_R   0.733370 0.793670 0.673030 -0.517685
O49   O     O_R   0.670730 0.410640 0.330640 -0.561579
O50   O     O_R   0.329270 0.410640 0.669360 -0.516552
O51   O     O_R   0.170730 0.910640 0.330640 -0.512670
O52   O     O_R   0.829270 0.910640 0.669360 -0.528723
H45   H     H_    0.645223 0.196334 0.001306 0.135120
H46   H     H_    0.395801 0.112951 0.985853 0.137422
H47   H     H_    0.145241 0.696371 0.001302 0.135538
H48   H     H_    0.895831 0.612896 0.985858 0.137530
O53   O     O_3   0.431679 0.313094 0.401481 -0.568120
C141  C     C_3   0.367985 0.261813 0.377366 -0.085053
H49   H     H_    0.330977 0.257752 0.421496 0.169011
H50   H     H_    0.375035 0.170919 0.354020 0.092293
H51   H     H_    0.344560 0.319367 0.334160 0.168018
O54   O     O_3   0.397691 0.309256 0.544802 -0.547811
C142  C     C_3   0.426599 0.422799 0.554126 -0.057818
H52   H     H_    0.470278 0.420735 0.594552 0.119492
H53   H     H_    0.390573 0.480446 0.577725 0.182383
H54   H     H_    0.436348 0.464341 0.501720 0.162423
O55   O     O_3   0.101014 0.809899 0.457228 -0.543216
C143  C     C_3   0.064296 0.918948 0.450839 -0.053074
H55   H     H_    0.059455 0.961293 0.504365 0.163577
H56   H     H_    0.012621 0.908943 0.422766 0.088181
H57   H     H_    0.091619 0.979384 0.416151 0.177130
O56   O     O_3   0.076673 0.786567 0.602465 -0.553895
C144  C     C_3   0.142381 0.734764 0.615269 -0.086689
H58   H     H_    0.174174 0.741965 0.567138 0.177613
H59   H     H_    0.137782 0.640005 0.633300 0.096572
H60   H     H_    0.169969 0.784892 0.659303 0.160016
H61   H     H_    0.691138 0.750422 0.549527 0.146651
H62   H     H_    0.361974 0.883251 0.426381 0.115206
H63   H     H_    0.138903 0.376186 0.572867 0.119169
H64   H     H_    0.811573 0.250558 0.451133 0.167022
H65   H     H_    0.970687 0.117218 0.447127 0.096627
H66   H     H_    0.070125 0.246892 0.501475 0.102278
H67   H     H_    0.426095 0.752456 0.500907 0.109142
H68   H     H_    0.532888 0.598606 0.581004 0.095494
H69   H     H_    0.635010 0.853829 0.864579 0.128689
H70   H     H_    0.364676 0.901819 0.145084 0.126386
H71   H     H_    0.135014 0.353734 0.864642 0.130733
H72   H     H_    0.864663 0.401981 0.145125 0.129521
O57   O     O_3   0.889381 0.894104 0.952150 -0.556470
C145  C     C_3   0.918090 0.009090 0.948320 -0.107885
H73   H     H_    0.934629 0.039012 0.003197 0.090634
H74   H     H_    0.881326 0.073616 0.921427 0.130905
H75   H     H_    0.964153 0.006215 0.914971 0.119517
O58   O     O_3   0.115037 0.905775 0.051248 -0.565646
C146  C     C_3   0.077002 0.010224 0.059328 -0.106104
H76   H     H_    0.062472 0.047360 0.005484 0.097587
H77   H     H_    0.105846 0.073742 0.095458 0.137735
H78   H     H_    0.028602 0.987359 0.086173 0.125982
O59   O     O_3   0.389390 0.394075 0.952142 -0.554682
C147  C     C_3   0.418086 0.509060 0.948252 -0.108384
H79   H     H_    0.434646 0.539029 0.003113 0.091488
H80   H     H_    0.381308 0.573555 0.921350 0.129946
H81   H     H_    0.464134 0.506156 0.914879 0.116184
O60   O     O_3   0.615036 0.405781 0.051243 -0.567302
C148  C     C_3   0.576997 0.510244 0.059265 -0.105169
H82   H     H_    0.562493 0.547340 0.005404 0.096849
H83   H     H_    0.605832 0.573792 0.095383 0.139882
H84   H     H_    0.528585 0.487413 0.086096 0.128129
H85   H     H_    0.042190 0.256683 0.915532 0.099399
H86   H     H_    0.951992 0.272583 0.102927 0.096024
H87   H     H_    0.542192 0.756693 0.915434 0.096662
H88   H     H_    0.451981 0.772432 0.102847 0.096600

loop_
_geom_bond_atom_site_label_1
_geom_bond_atom_site_label_2
_ccdc_geom_bond_type
C99   C103  A    
Cr3   O3    S    
C133  C137  S    
C55   C59   A    
C122  O10   A    
C146  H76   S    
C73   C93   A    
C136  C140  S    
C75   C95   A    
C148  H82   S    
C135  C139  S    
C84   C112  A    
C79   C99   A    
C5    C6    S    
C109  H21   S    
Cr5   O25   S    
C100  C104  A    
C1    O25   A    
C9    C13   A    
C41   H41   S    
C131  C140  S    
C11   C15   A    
C50   C90   S    
C66   C72   A    
C12   C16   A    
C106  H66   S    
C62   O54   S    
C87   C115  A    
C59   C60   A    
Cr11  O19   S    
C124  O12   A    
C8    C135  S    
C130  C134  S    
Cr1   O1    S    
C99   H15   S    
C44   H44   S    
C56   C123  S    
Cr3   O43   S    
C98   C102  A    
Cr5   O29   S    
C92   O40   A    
C32   C34   A    
C31   H71   S    
C78   C82   A    
Cr4   O4    S    
C11   C27   A    
C16   C20   A    
C45   O29   A    
Cr6   O18   S    
C129  C133  S    
C147  H79   S    
C144  H59   S    
C134  H46   S    
C126  O42   A    
C7    C139  S    
O60   C148  S    
Cr3   O19   S    
C148  H84   S    
C61   O53   S    
C145  H75   S    
C26   O58   S    
C27   O59   S    
C142  H53   S    
C118  O50   A    
C5    C137  S    
Cr12  O40   S    
C54   C61   A    
C123  O7    A    
C29   C35   A    
Cr10  O34   S    
Cr5   O49   S    
C8    C140  S    
Cr7   O7    S    
C121  O5    A    
C65   C71   A    
C76   C96   A    
C145  H74   S    
Cr4   O48   S    
C7    H31   S    
C69   C70   A    
Cr9   O17   S    
C34   H86   S    
C2    O22   A    
C73   C77   A    
C136  H48   S    
C103  C107  A    
Cr11  O11   S    
C75   C79   A    
C102  H18   S    
C6    C138  S    
Cr8   O32   S    
C30   H70   S    
C21   C49   A    
C7    C8    S    
C132  C139  S    
Cr12  O20   S    
C6    H30   S    
Cr10  O14   S    
C146  H77   S    
Cr4   O24   S    
Cr7   O19   S    
C53   C122  S    
C18   C42   A    
O53   C141  S    
C114  C126  S    
C91   O39   A    
Cr4   O44   S    
C43   H43   S    
C89   O37   A    
C119  O51   A    
Cr2   O22   S    
C65   H1    S    
C59   C67   A    
C85   C93   A    
C147  H81   S    
Cr11  O35   S    
C143  H55   S    
C87   C95   A    
C69   H5    S    
C77   C97   A    
Cr1   O21   S    
C84   C116  A    
C103  H19   S    
C1    C12   S    
C2    C11   S    
Cr8   O20   S    
C20   C44   A    
C110  H22   S    
C48   C140  S    
C83   C115  A    
Cr10  O10   S    
C10   C14   A    
C17   C49   A    
Cr4   O20   S    
C125  O13   A    
C141  H51   S    
C88   H12   S    
Cr9   O37   S    
C22   H34   S    
C93   H61   S    
C29   H69   S    
C132  C136  S    
Cr11  O39   S    
C54   C58   A    
Cr2   O46   S    
C98   H14   S    
C132  H28   S    
C3    O23   A    
C112  H24   S    
C54   C121  S    
C74   C78   A    
C96   H64   S    
Cr3   O47   S    
C81   C113  A    
C133  H45   S    
Cr8   O8    S    
C129  C130  S    
C48   O32   A    
C21   C25   A    
C3    O27   A    
C107  C111  A    
Cr12  O12   S    
C24   C28   A    
C135  H47   S    
C15   C31   A    
C16   C32   A    
C89   O1    A    
C22   C50   A    
Cr9   O33   S    
C85   C113  A    
O54   C142  S    
C71   C72   A    
Cr6   O6    S    
C23   H35   S    
C57   C58   A    
C125  O41   A    
C143  H57   S    
C37   C41   A    
C61   C62   A    
Cr3   O23   S    
C63   C64   A    
C40   C44   A    
C47   O31   A    
C120  O52   A    
C4    C9    S    
C92   O4    A    
C28   O60   S    
C118  O46   A    
Cr12  O36   S    
C24   C52   A    
C88   C96   A    
C127  O43   A    
C85   H9    S    
C74   C94   A    
C121  O9    A    
C80   C84   A    
C9    C25   A    
O55   C143  S    
C15   C19   A    
C141  H50   S    
C12   C28   A    
C13   C29   A    
Cr9   O13   S    
C6    C133  S    
C35   H87   S    
Cr6   O26   S    
C2    O26   A    
C95   H63   S    
C67   H3    S    
O58   C146  S    
C105  C109  A    
C130  H26   S    
C51   C91   S    
C4    O24   A    
C101  H17   S    
C104  H20   S    
C147  H80   S    
Cr12  O16   S    
C73   C120  S    
C144  H58   S    
C46   O34   A    
C75   C118  S    
C5    H29   S    
C19   C43   A    
C148  H83   S    
C76   C80   A    
Cr2   O18   S    
C64   O56   S    
Cr9   O9    S    
O59   C147  S    
C66   H2    S    
C53   C57   A    
Cr6   O30   S    
C129  H25   S    
Cr1   O45   S    
C108  C112  A    
C70   H6    S    
C30   C36   A    
O57   C145  S    
C77   C81   A    
C33   C39   A    
Cr5   O17   S    
C81   C109  A    
C34   C40   A    
C52   C92   S    
C131  C132  S    
C104  C108  A    
Cr7   O27   S    
C18   C50   A    
Cr2   O42   S    
C55   C124  S    
C57   C65   A    
C63   O55   S    
C94   H62   S    
C21   H33   S    
C117  O49   A    
C128  O44   A    
Cr6   O50   S    
C76   C117  S    
C36   H88   S    
C100  H16   S    
C24   H36   S    
C122  O6    A    
C36   C38   A    
Cr10  O38   S    
C128  O16   A    
C79   C83   A    
C97   H13   S    
C13   C17   A    
C56   C60   A    
C7    C136  S    
C113  C125  S    
O56   C144  S    
C60   C68   A    
C143  H56   S    
C22   C26   A    
C144  H60   S    
C47   C139  S    
C1    O21   A    
C32   H72   S    
C130  C137  S    
C87   H11   S    
C105  H65   S    
C14   C18   A    
C142  H54   S    
C107  H67   S    
C74   C119  S    
C141  H49   S    
Cr11  O15   S    
C124  O8    A    
C111  H23   S    
C82   C110  A    
C35   C37   A    
C38   C42   A    
C131  C135  S    
C145  H73   S    
C47   O35   A    
Cr8   O52   S    
C115  C127  S    
C90   O38   A    
C120  O48   A    
C42   H42   S    
C86   C94   A    
C58   C66   A    
C129  C138  S    
C78   C98   A    
C31   C33   A    
C86   H10   S    
C23   C27   A    
C46   C138  S    
C91   O3    A    
C10   C26   A    
Cr7   O51   S    
C80   C100  A    
C25   O57   S    
Cr2   O2    S    
C45   O33   A    
C14   C30   A    
C101  C105  A    
C5    C134  S    
C146  H78   S    
C82   C114  A    
C126  O14   A    
Cr1   O17   S    
C131  H27   S    
C39   C43   A    
C4    O28   A    
C67   C69   A    
C88   C116  A    
C53   C62   A    
C23   C51   A    
C55   C64   A    
C45   C137  S    
C46   O30   A    
C56   C63   A    
C123  O11   A    
C127  O15   A    
C37   H39   S    
C38   H40   S    
C33   H85   S    
C142  H52   S    
C106  C110  A    
Cr1   O41   S    
C49   C89   S    
C68   H4    S    
C134  C138  S    
C90   O2    A    
C71   H7    S    
C72   H8    S    
C86   C114  A    
Cr8   O28   S    
C20   C52   A    
C3    C10   S    
Cr5   O5    S    
C8    H32   S    
C102  C106  A    
C83   C111  A    
Cr10  O18   S    
C17   C41   A    
C48   O36   A    
C19   C51   A    
C40   H38   S    
C68   C70   A    
C116  C128  S    
C39   H37   S    
Cr7   O31   S    
C108  H68   S    
C119  O47   A    
C97   C101  A    
C117  O45   A    
