data_mof_unit_50247.cif
_audit_creation_date              2012-12-10T18:52:16-0500
_audit_creation_method            fapswitch 2.2
_symmetry_space_group_name_H-M    P1
_symmetry_Int_Tables_number       1
_space_group_crystal_system       triclinic
_cell_length_a                    15.728355
_cell_length_b                    10.657551
_cell_length_c                    9.912332
_cell_angle_alpha                 90.572468
_cell_angle_beta                  91.20018
_cell_angle_gamma                 90.946183
_cell_volume                      1660.88220617

loop_
_atom_site_label
_atom_site_type_symbol
_atom_type_description
_atom_site_fract_x
_atom_site_fract_y
_atom_site_fract_z
_atom_type_partial_charge
C1    C     C_R   0.502521 0.260528 0.499593 0.915374
C2    C     C_R   0.451550 0.414110 0.066947 0.483561
C3    C     C_R   0.338023 0.499346 0.498717 0.938044
C4    C     C_R   0.661977 0.500654 0.501283 0.938044
C5    C     C_3   0.971850 0.382088 0.488646 0.021260
C6    C     C_3   0.028150 0.617912 0.511354 0.021260
C7    C     C_3   0.025468 0.449829 0.382253 -0.224805
C8    C     C_3   0.974532 0.550171 0.617747 -0.224805
C9    C     C_1   0.249114 0.499953 0.496203 -0.090930
C10   C     C_1   0.750886 0.500047 0.503797 -0.090930
C11   C     C_3   0.030701 0.432333 0.603933 -0.223717
C12   C     C_R   0.497479 0.739472 0.500407 0.915373
C13   C     C_3   0.969299 0.567667 0.396067 -0.223717
C14   C     C_3   0.083001 0.501594 0.497690 0.115212
C15   C     C_3   0.916999 0.498406 0.502309 0.115212
C16   C     C_1   0.173845 0.500758 0.495941 0.030706
C17   C     C_1   0.826155 0.499242 0.504059 0.030706
C18   C     C_R   0.561179 0.061454 0.419145 -0.023049
C19   C     C_R   0.438821 0.938546 0.580855 -0.023048
C20   C     C_2   0.941514 0.248366 0.475851 0.920162
C21   C     C_2   0.058486 0.751634 0.524149 0.920162
C22   C     C_2   0.629620 0.121595 0.339468 0.934151
C23   C     C_R   0.555029 0.932312 0.419377 -0.221994
C24   C     C_2   0.370380 0.878405 0.660532 0.934151
C25   C     C_R   0.444970 0.067687 0.580623 -0.221994
C26   C     C_R   0.495632 0.872013 0.500130 -0.102524
C27   C     C_R   0.504368 0.127987 0.499870 -0.102524
C28   C     C_R   0.547533 0.585535 0.075713 -0.116262
C29   C     C_R   0.452467 0.414465 0.924287 -0.116261
C30   C     C_R   0.548450 0.585890 0.933053 0.483560
H1    H     H_    0.047843 0.408342 0.286403 0.169947
H2    H     H_    0.157739 0.873771 0.534074 0.363424
H3    H     H_    0.706442 0.110119 0.179393 0.358112
H4    H     H_    0.293558 0.889880 0.820607 0.358112
H5    H     H_    0.605430 0.653317 0.779392 0.380864
H6    H     H_    0.394570 0.346683 0.220608 0.380864
H7    H     H_    0.952156 0.591657 0.713597 0.169947
H8    H     H_    0.942624 0.623504 0.311708 0.170285
H9    H     H_    0.057376 0.376496 0.688292 0.170285
H10   H     H_    0.598910 0.877655 0.360573 0.182318
H11   H     H_    0.401090 0.122345 0.639427 0.182318
H12   H     H_    0.585793 0.653608 0.132788 0.185061
H13   H     H_    0.414207 0.346392 0.867212 0.185061
H14   H     H_    0.842261 0.126229 0.465926 0.363424
N1    N     N_R   0.499980 0.499970 0.857200 -0.181090
N2    N     N_R   0.500020 0.500030 0.142800 -0.181090
O1    O     O_R   0.499990 0.316750 0.614620 -0.621513
O2    O     O_R   0.854538 0.219626 0.475402 -0.771292
O3    O     O_2   0.006610 0.835144 0.534172 -0.586172
O4    O     O_R   0.145462 0.780374 0.524598 -0.771292
O5    O     O_2   0.662133 0.221447 0.376281 -0.606268
O6    O     O_R   0.659169 0.061084 0.224121 -0.785596
O7    O     O_2   0.337867 0.778553 0.623719 -0.606268
O8    O     O_R   0.340832 0.938916 0.775880 -0.785597
O9    O     O_3   0.599749 0.674952 0.875021 -0.751139
O10   O     O_3   0.400251 0.325048 0.124979 -0.751139
O11   O     O_R   0.500010 0.683250 0.385380 -0.621513
O12   O     O_R   0.500000 0.316780 0.385290 -0.614866
O13   O     O_R   0.500000 0.683220 0.614710 -0.614867
O14   O     O_R   0.376780 0.499970 0.614640 -0.591089
O15   O     O_R   0.623220 0.500030 0.385360 -0.591089
O16   O     O_R   0.376780 0.500000 0.385310 -0.645410
O17   O     O_R   0.623220 0.500000 0.614690 -0.645410
O18   O     O_2   0.993390 0.164856 0.465828 -0.586172
Zn1   Zn    Zn3+2 0.500000 0.499980 0.653120 0.989235
Zn2   Zn    Zn3+2 0.500000 0.500020 0.346880 0.989235

loop_
_geom_bond_atom_site_label_1
_geom_bond_atom_site_label_2
_ccdc_geom_bond_type
C23   H10   S    
C20   O18   D    
O17   Zn1   S    
N2    Zn2   S    
C29   N1    A    
C3    C9    S    
C6    C14   S    
C18   C22   S    
C30   O9    S    
C30   N1    A    
C8    C11   S    
O11   Zn2   S    
H2    O4    S    
C3    O14   A    
C28   C30   A    
C19   C24   S    
C5    C20   S    
C2    O10   S    
C1    O12   A    
C29   H13   S    
C6    C13   S    
C11   H9    S    
C6    C21   S    
C4    O17   A    
C28   N2    A    
C13   H8    S    
C20   O2    S    
C2    C29   A    
H6    O10   S    
C12   O11   A    
O15   Zn2   S    
C21   O3    D    
C21   O4    S    
C9    C16   T    
O1    Zn1   S    
O14   Zn1   S    
C5    C11   S    
C8    C15   S    
C13   C15   S    
N1    Zn1   S    
C19   C25   A    
C11   C14   S    
C14   C16   S    
C5    C15   S    
C25   C27   A    
C8    H7    S    
O16   Zn2   S    
C10   C17   T    
H5    O9    S    
C18   C23   A    
C7    C13   S    
C7    H1    S    
C3    O16   A    
C5    C7    S    
C25   H11   S    
C23   C26   A    
C28   H12   S    
C1    C27   S    
C19   C26   A    
H4    O8    S    
C1    O1    A    
C6    C8    S    
C2    N2    A    
C22   O6    S    
C24   O7    D    
C15   C17   S    
C12   O13   A    
C24   O8    S    
C4    O15   A    
O12   Zn2   S    
C7    C14   S    
O13   Zn1   S    
C18   C27   A    
H14   O2    S    
C4    C10   S    
C12   C26   S    
C22   O5    D    
H3    O6    S    
