data_mof_unit_25389.cif
_audit_creation_date              2012-12-10T17:17:52-0500
_audit_creation_method            fapswitch 2.2
_symmetry_space_group_name_H-M    P1
_symmetry_Int_Tables_number       1
_space_group_crystal_system       triclinic
_cell_length_a                    14.927513
_cell_length_b                    15.680001
_cell_length_c                    9.612923
_cell_angle_alpha                 90.154845
_cell_angle_beta                  88.777014
_cell_angle_gamma                 89.939244
_cell_volume                      2249.5114453

loop_
_atom_site_label
_atom_site_type_symbol
_atom_type_description
_atom_site_fract_x
_atom_site_fract_y
_atom_site_fract_z
_atom_type_partial_charge
C1    C     C_R   0.383532 0.878730 0.502846 0.794049
C2    C     C_R   0.378361 0.115972 0.501231 0.780288
C3    C     C_R   0.879180 0.383319 0.500820 0.775316
C4    C     C_R   0.882873 0.620751 0.501852 0.789669
C5    C     C_R   0.319849 0.250614 0.417367 -0.188172
C6    C     C_R   0.303941 0.761794 0.391815 -0.168506
C7    C     C_R   0.777804 0.712305 0.379624 -0.172994
C8    C     C_R   0.820260 0.248204 0.417698 -0.188909
C9    C     C_R   0.711788 0.773953 0.376742 -0.185893
C10   C     C_R   0.756095 0.184749 0.416016 -0.195448
C11   C     C_R   0.256217 0.314590 0.414922 -0.199285
C12   C     C_R   0.234505 0.704053 0.386534 -0.195150
C13   C     C_R   0.669794 0.800419 0.500402 -0.111478
C14   C     C_R   0.678564 0.191960 0.498923 -0.080448
C15   C     C_R   0.178601 0.308361 0.497470 -0.077299
C16   C     C_R   0.176619 0.693667 0.501291 -0.091727
C17   C     C_R   0.664375 0.995435 0.139119 -0.154768
C18   C     C_R   0.164380 0.502145 0.139133 -0.159856
C19   C     C_R   0.744959 0.991016 0.064765 -0.190596
C20   C     C_R   0.244995 0.505807 0.064821 -0.206270
C21   C     C_R   0.745244 0.990923 0.921371 -0.170497
C22   C     C_R   0.245239 0.506530 0.921432 -0.164972
C23   C     C_R   0.665012 0.995710 0.851431 -0.138890
C24   C     C_R   0.164980 0.502834 0.851444 -0.135825
C25   C     C_R   0.580995 0.997390 0.922797 0.204170
C26   C     C_R   0.080997 0.501213 0.922822 0.203503
C27   C     C_R   0.580848 0.997254 0.072296 0.222828
C28   C     C_R   0.080861 0.501062 0.072298 0.224665
C29   C     C_R   0.423271 0.005518 0.076356 -0.013737
C30   C     C_R   0.922943 0.499695 0.076352 -0.032980
C31   C     C_R   0.616548 0.120574 0.499466 0.770538
C32   C     C_R   0.612158 0.875836 0.499549 0.782921
C33   C     C_R   0.114386 0.622351 0.499724 0.778239
C34   C     C_R   0.117227 0.380097 0.499002 0.766290
C35   C     C_R   0.423176 0.004640 0.928627 -0.072890
C36   C     C_R   0.922975 0.499681 0.928554 -0.056302
C37   C     C_R   0.209898 0.097105 0.666964 -0.240829
C38   C     C_R   0.290983 0.816940 0.773147 -0.245511
C39   C     C_R   0.819122 0.717889 0.762849 -0.217433
C40   C     C_R   0.710647 0.406311 0.659843 -0.242361
C41   C     C_R   0.129797 0.089712 0.744834 -0.006047
C42   C     C_R   0.233219 0.804879 0.887504 -0.003110
C43   C     C_R   0.772534 0.743913 0.884138 -0.017625
C44   C     C_R   0.631322 0.416003 0.738256 -0.006401
C45   C     C_R   0.680207 0.760391 0.878619 0.016557
C46   C     C_R   0.566544 0.351243 0.737416 -0.006538
C47   C     C_R   0.064140 0.153327 0.736670 -0.009004
C48   C     C_R   0.150238 0.766184 0.869530 0.008686
C49   C     C_R   0.641127 0.768874 0.749473 -0.185800
C50   C     C_R   0.581532 0.277845 0.657532 -0.232056
C51   C     C_R   0.079587 0.224334 0.653037 -0.227544
C52   C     C_R   0.126242 0.739825 0.737396 -0.210707
C53   C     C_R   0.693911 0.762161 0.626943 0.073990
C54   C     C_R   0.662476 0.265987 0.580871 0.088644
C55   C     C_R   0.161712 0.235128 0.579506 0.089844
C56   C     C_R   0.188604 0.742081 0.624208 0.081319
C57   C     C_R   0.227448 0.170140 0.584462 0.090815
C58   C     C_R   0.267355 0.790657 0.636875 0.086195
C59   C     C_R   0.776709 0.720089 0.632652 0.080069
C60   C     C_R   0.728089 0.331087 0.582327 0.091902
C61   C     C_R   0.307376 0.179543 0.503119 -0.089894
C62   C     C_R   0.318975 0.808503 0.512842 -0.111121
C63   C     C_R   0.814261 0.687403 0.506216 -0.115225
C64   C     C_R   0.808006 0.320167 0.501998 -0.090023
Cu1   Cu    Cu3+1 0.499990 1.000000 0.640660 0.921007
Cu2   Cu    Cu3+1 0.999990 0.500000 0.640660 0.923674
Cu3   Cu    Cu3+1 0.500010 0.000000 0.359340 0.959999
Cu4   Cu    Cu3+1 0.000010 0.500000 0.359340 0.954157
H1    H     H_    0.380418 0.257549 0.354168 0.159410
H2    H     H_    0.347828 0.768457 0.301469 0.187755
H3    H     H_    0.802417 0.686039 0.282220 0.190941
H4    H     H_    0.880882 0.240320 0.354836 0.159841
H5    H     H_    0.808234 0.988281 0.863528 0.172860
H6    H     H_    0.308186 0.509197 0.863550 0.171093
H7    H     H_    0.673267 0.998826 0.741661 0.204028
H8    H     H_    0.173195 0.501108 0.741584 0.201037
H9    H     H_    0.570378 0.784047 0.745240 0.161641
H10   H     H_    0.528414 0.231092 0.654628 0.167746
H11   H     H_    0.025829 0.270184 0.644907 0.166119
H12   H     H_    0.058822 0.716228 0.725293 0.158431
H13   H     H_    0.694674 0.801385 0.278130 0.194341
H14   H     H_    0.768105 0.128559 0.352341 0.144118
H15   H     H_    0.268633 0.370305 0.350865 0.142865
H16   H     H_    0.227274 0.666271 0.292912 0.166389
H17   H     H_    0.807740 0.988795 0.119067 0.171078
H18   H     H_    0.307784 0.507513 0.119161 0.159028
N1    N     N_R   0.501200 0.000000 0.147910 -0.200654
N2    N     N_R   0.001200 0.500000 0.147910 -0.197237
N3    N     N_R   0.501270 1.000000 0.852040 -0.206480
N4    N     N_R   0.001270 0.500000 0.852040 -0.205539
O1    O     O_R   0.409820 0.909830 0.618810 -0.611755
O2    O     O_R   0.409820 0.090170 0.618810 -0.585923
O3    O     O_R   0.909820 0.409830 0.618810 -0.583442
O4    O     O_R   0.909820 0.590170 0.618810 -0.601509
O5    O     O_R   0.409840 0.909830 0.381240 -0.553324
O6    O     O_R   0.409840 0.090170 0.381240 -0.573265
O7    O     O_R   0.909840 0.409830 0.381240 -0.572130
O8    O     O_R   0.909840 0.590170 0.381240 -0.570013
O9    O     O_R   0.590170 0.090170 0.618760 -0.595302
O10   O     O_R   0.590170 0.909830 0.618760 -0.611682
O11   O     O_R   0.090170 0.590170 0.618760 -0.614174
O12   O     O_R   0.090170 0.409830 0.618760 -0.595617
O13   O     O_R   0.590190 0.090180 0.381190 -0.592183
O14   O     O_R   0.590190 0.909820 0.381190 -0.590129
O15   O     O_R   0.090190 0.590180 0.381190 -0.587108
O16   O     O_R   0.090190 0.409820 0.381190 -0.591425
H19   H     H_    0.360061 0.008290 0.875761 0.138869
H20   H     H_    0.859779 0.499489 0.875524 0.141552
H21   H     H_    0.257287 0.045014 0.670941 0.153620
H22   H     H_    0.356054 0.840915 0.798175 0.182918
H23   H     H_    0.889856 0.704218 0.769929 0.164536
H24   H     H_    0.757501 0.458885 0.658693 0.153155
C65   C     C_1   0.115155 0.016616 0.833022 0.226012
N5    N     N_1   0.101918 0.958867 0.905003 -0.279196
C66   C     C_1   0.257152 0.838461 0.021292 0.231108
N6    N     N_1   0.274675 0.866533 0.128494 -0.294484
C67   C     C_1   0.822270 0.764928 0.006032 0.209053
N7    N     N_1   0.862759 0.784613 0.102069 -0.274418
C68   C     C_1   0.617363 0.493505 0.817480 0.219224
N8    N     N_1   0.606213 0.555552 0.880982 -0.288816
C69   C     C_1   0.624407 0.773420 0.001193 0.222856
N9    N     N_1   0.577629 0.783486 0.097353 -0.290289
C70   C     C_1   0.483747 0.358693 0.817114 0.233980
N10   N     N_1   0.417457 0.364221 0.881111 -0.291721
C71   C     C_1   0.979843 0.147145 0.812884 0.238174
N11   N     N_1   0.912364 0.142503 0.873895 -0.286742
C72   C     C_1   0.092078 0.747046 0.987262 0.248700
N12   N     N_1   0.046840 0.730781 0.082654 -0.240218
H25   H     H_    0.360447 0.011362 0.133518 0.164210
H26   H     H_    0.859693 0.499464 0.133406 0.140230
H27   H     H_    0.671548 0.998281 0.248591 0.196242
H28   H     H_    0.171500 0.500251 0.248639 0.192399

loop_
_geom_bond_atom_site_label_1
_geom_bond_atom_site_label_2
_ccdc_geom_bond_type
C58   C62   A    
Cu1   O2    S    
Cu2   Cu4   S    
C40   C60   A    
C4    O8    A    
C36   H20   S    
Cu2   O12   S    
C13   C32   S    
C18   H28   S    
C14   C31   S    
C1    C62   S    
C53   C59   A    
Cu3   O13   S    
C70   N10   T    
C40   H24   S    
C54   C60   A    
C3    C64   S    
Cu1   N3    S    
C4    C63   S    
C50   C54   A    
C33   O11   A    
C19   C21   A    
C24   C26   A    
C5    C11   A    
C6    C12   A    
C17   H27   S    
C66   N6    T    
C21   H5    S    
C12   H16   S    
Cu1   O1    S    
C51   C55   A    
C9    C13   A    
Cu4   O7    S    
C5    H1    S    
C38   C58   A    
C11   C15   A    
C29   H25   S    
C12   C16   A    
C56   C58   A    
Cu1   Cu3   S    
C20   H18   S    
C28   N2    A    
C40   C44   A    
C32   O14   A    
C31   O9    A    
C38   H22   S    
C17   C27   A    
C37   H21   S    
C2    C61   S    
Cu2   O4    S    
C39   H23   S    
C1    O1    A    
Cu3   O5    S    
Cu2   O11   S    
Cu4   O16   S    
C50   H10   S    
C26   C28   A    
C44   C46   A    
Cu3   O14   S    
C47   C71   S    
C13   C53   A    
C8    H4    S    
C5    C61   A    
C34   O16   A    
C33   O15   A    
Cu1   O9    S    
Cu2   N4    S    
C10   C14   A    
C41   C65   S    
C24   H8    S    
C39   C43   A    
C44   C68   S    
C45   C69   S    
C30   H26   S    
C10   H14   S    
C32   O10   A    
C15   C55   A    
C42   C48   A    
C2    O2    A    
C16   C56   A    
C16   C33   S    
C3    O7    A    
C45   C49   A    
C1    O5    A    
C39   C59   A    
C41   C47   A    
C18   C28   A    
C3    O3    A    
C34   O12   A    
C27   N1    A    
C43   C45   A    
C51   H11   S    
C7    C63   A    
C69   N9    T    
C8    C64   A    
Cu2   O3    S    
C4    O4    A    
C35   N3    A    
C14   C54   A    
C20   C22   A    
C55   C57   A    
C71   N11   T    
Cu4   N2    S    
C22   C24   A    
C46   C70   S    
C26   N4    A    
Cu4   O15   S    
C22   H6    S    
C30   N2    A    
C72   N12   T    
C65   N5    T    
C36   N4    A    
C59   C63   A    
C6    H2    S    
C46   C50   A    
C15   C34   S    
Cu3   N1    S    
Cu1   O10   S    
C23   H7    S    
C19   H17   S    
C47   C51   A    
C68   N8    T    
C57   C61   A    
C25   C27   A    
C29   C35   A    
C25   N3    A    
C30   C36   A    
C60   C64   A    
C11   H15   S    
C6    C62   A    
C21   C23   A    
C67   N7    T    
C48   C72   S    
C7    H3    S    
Cu3   O6    S    
C49   C53   A    
C2    O6    A    
C17   C19   A    
C49   H9    S    
C18   C20   A    
C23   C25   A    
C37   C41   A    
Cu4   O8    S    
C29   N1    A    
C35   H19   S    
C38   C42   A    
C7    C9    A    
C42   C66   S    
C48   C52   A    
C8    C10   A    
C9    H13   S    
C43   C67   S    
C52   H12   S    
C37   C57   A    
C52   C56   A    
C31   O13   A    
