data_mof_unit_61873.cif
_audit_creation_date              2012-12-10T20:14:17-0500
_audit_creation_method            fapswitch 2.2
_symmetry_space_group_name_H-M    P1
_symmetry_Int_Tables_number       1
_space_group_crystal_system       triclinic
_cell_length_a                    19.282559
_cell_length_b                    18.755622
_cell_length_c                    10.526506
_cell_angle_alpha                 90.000556
_cell_angle_beta                  91.726177
_cell_angle_gamma                 90.00409
_cell_volume                      3805.2505272

loop_
_atom_site_label
_atom_site_type_symbol
_atom_type_description
_atom_site_fract_x
_atom_site_fract_y
_atom_site_fract_z
_atom_type_partial_charge
C1    C     C_R   0.365987 0.500012 0.500261 0.903647
C2    C     C_R   0.446212 0.273067 0.443358 0.279442
C3    C     C_R   0.469319 0.727283 0.401712 0.292418
C4    C     C_R   0.553602 0.272802 0.556604 0.283054
C5    C     C_R   0.523951 0.801266 0.606312 -0.259652
C6    C     C_R   0.442112 0.198731 0.455514 -0.256290
C7    C     C_R   0.475954 0.801630 0.395022 -0.253721
C8    C     C_R   0.557170 0.198430 0.544981 -0.261661
C9    C     C_R   0.499795 0.841264 0.500982 0.062420
C10   C     C_R   0.499489 0.158825 0.500524 0.071313
C11   C     C_R   0.450716 0.962762 0.426144 -0.050771
C12   C     C_R   0.634020 0.500022 0.499628 0.903317
C13   C     C_R   0.539521 0.037417 0.591656 -0.053550
C14   C     C_R   0.548004 0.963004 0.576855 -0.051883
C15   C     C_R   0.458950 0.037177 0.410918 -0.052603
C16   C     C_R   0.499280 0.077303 0.501044 0.026625
C17   C     C_R   0.499502 0.922832 0.501404 0.028615
C18   C     C_R   0.501645 0.499937 0.258020 0.955920
C19   C     C_R   0.498790 0.499968 0.742093 0.954421
C20   C     C_3   0.535652 0.557653 0.042567 0.160623
C21   C     C_3   0.465550 0.441790 0.957797 0.149869
C22   C     C_3   0.565972 0.498055 0.959207 0.117818
C23   C     C_R   0.962395 0.499379 0.383043 -0.152828
C24   C     C_3   0.435105 0.501311 0.041054 0.117430
C25   C     C_3   0.468831 0.558779 0.958895 -0.123132
C26   C     C_3   0.532239 0.440750 0.041557 -0.126724
C27   C     C_3   0.498979 0.499792 0.876820 -0.212522
C28   C     C_3   0.502062 0.499730 0.123443 -0.212692
C29   C     C_R   0.744664 0.437596 0.467532 -0.190622
C30   C     C_R   0.254164 0.562292 0.469217 -0.183704
C31   C     C_R   0.255335 0.437693 0.532666 -0.181328
C32   C     C_R   0.745872 0.562587 0.528455 -0.172695
C33   C     C_R   0.816591 0.437084 0.467224 0.008690
C34   C     C_R   0.037595 0.499777 0.614938 -0.153834
C35   C     C_R   0.182214 0.562495 0.468342 0.003143
C36   C     C_R   0.183399 0.437124 0.532384 0.005131
C37   C     C_R   0.817813 0.562852 0.528697 0.000677
C38   C     C_R   0.853309 0.499880 0.498106 -0.006301
C39   C     C_R   0.146693 0.499700 0.499965 -0.006484
C40   C     C_R   0.709237 0.500068 0.498549 -0.052797
C41   C     C_R   0.290776 0.500012 0.500779 -0.055956
C42   C     C_1   0.433471 0.623334 0.911736 0.333143
C43   C     C_1   0.567417 0.376174 0.089148 0.324809
C44   C     C_1   0.851718 0.371474 0.436674 0.195570
C45   C     C_R   0.034233 0.499310 0.383502 -0.144449
C46   C     C_1   0.145873 0.627762 0.436210 0.197609
C47   C     C_1   0.148256 0.371687 0.563994 0.200838
C48   C     C_1   0.854175 0.628339 0.559222 0.202066
C49   C     C_1   0.388774 0.930137 0.370278 0.183347
C50   C     C_1   0.568990 0.070169 0.705883 0.190474
C51   C     C_1   0.609932 0.930686 0.633319 0.185564
C52   C     C_1   0.429154 0.069629 0.296704 0.186697
C53   C     C_R   0.965762 0.499851 0.614478 -0.144907
C54   C     C_R   0.071508 0.499537 0.499450 0.094001
C55   C     C_R   0.928489 0.499683 0.498535 0.094038
C56   C     C_R   0.530776 0.726953 0.598540 0.276014
H1    H     H_    0.716400 0.389300 0.442958 0.178015
H2    H     H_    0.394284 0.173117 0.425574 0.173465
H3    H     H_    0.460049 0.827447 0.307366 0.177566
H4    H     H_    0.604842 0.172522 0.574969 0.173092
H5    H     H_    0.281487 0.610625 0.444468 0.187260
H6    H     H_    0.283605 0.389577 0.558396 0.183472
H7    H     H_    0.718585 0.611074 0.552368 0.188155
H8    H     H_    0.933190 0.499311 0.293485 0.152185
H9    H     H_    0.066794 0.500029 0.704501 0.151868
H10   H     H_    0.060840 0.499072 0.294302 0.154628
H11   H     H_    0.939157 0.500014 0.703681 0.154615
H12   H     H_    0.539937 0.826725 0.694245 0.177800
I1    I     I_    0.593102 0.648318 0.112299 -0.243287
I2    I     I_    0.410459 0.348996 0.891317 -0.242705
I3    I     I_    0.669614 0.494095 0.891615 -0.269892
I4    I     I_    0.331182 0.502902 0.107740 -0.271656
I5    I     I_    0.599008 0.681005 0.736058 -0.261405
I6    I     I_    0.370207 0.319132 0.319622 -0.248264
I7    I     I_    0.401981 0.681962 0.261916 -0.280301
I8    I     I_    0.630273 0.318477 0.679141 -0.265717
N1    N     N_R   0.500000 0.689440 0.500000 -0.138992
N2    N     N_1   0.592363 0.095936 0.797484 -0.146778
N3    N     N_1   0.659615 0.905295 0.678162 -0.148669
N4    N     N_1   0.405517 0.095144 0.205093 -0.144076
N5    N     N_R   0.500000 0.310560 0.500000 -0.137269
N6    N     N_1   0.405655 0.674186 0.874464 -0.162395
N7    N     N_1   0.595086 0.325320 0.126778 -0.162805
N8    N     N_1   0.879881 0.318973 0.412237 -0.156355
N9    N     N_1   0.116741 0.679985 0.410487 -0.153914
N10   N     N_1   0.120082 0.319323 0.589281 -0.153921
N11   N     N_1   0.883324 0.680738 0.583659 -0.152197
N12   N     N_1   0.339093 0.904486 0.325916 -0.152164
O1    O     O_R   0.398180 0.560840 0.499970 -0.615737
O2    O     O_R   0.601820 0.439160 0.500030 -0.613042
O3    O     O_R   0.601820 0.560840 0.500030 -0.605690
O4    O     O_R   0.398180 0.439160 0.499970 -0.604355
O5    O     O_R   0.499980 0.560800 0.313940 -0.584186
O6    O     O_R   0.500020 0.439200 0.686060 -0.584364
O7    O     O_R   0.500020 0.560800 0.686060 -0.610710
O8    O     O_R   0.499980 0.439200 0.313940 -0.610689
Zn1   Zn    Zn3+2 0.500000 0.581210 0.500000 1.019725
Zn2   Zn    Zn3+2 0.500000 0.418790 0.500000 1.022050

loop_
_geom_bond_atom_site_label_1
_geom_bond_atom_site_label_2
_ccdc_geom_bond_type
C21   C26   S    
C20   C25   S    
C23   C45   A    
C43   N7    T    
C6    H2    S    
C12   O3    A    
C42   N6    T    
C4    C8    A    
O4    Zn2   S    
C30   C35   A    
C12   O2    A    
C3    C7    A    
C39   C54   S    
N5    Zn2   S    
O6    Zn2   S    
C15   C16   A    
C29   C33   A    
C18   O8    A    
C36   C47   S    
C5    C56   A    
C11   C15   A    
C4    N5    A    
O8    Zn2   S    
C30   C41   A    
N1    Zn1   S    
C19   C27   S    
C2    I6    S    
C46   N9    T    
C21   C27   S    
C13   C14   A    
C31   H6    S    
C2    C6    A    
C5    H12   S    
C50   N2    T    
C34   H9    S    
C7    H3    S    
C26   C43   S    
C53   C55   A    
C38   C55   S    
C47   N10   T    
C18   C28   S    
C24   C25   S    
C20   C28   S    
C32   C37   A    
C56   N1    A    
O1    Zn1   S    
C12   C40   S    
C35   C39   A    
C5    C9    A    
C37   C38   A    
C11   C49   S    
C14   C51   S    
C48   N11   T    
C15   C52   S    
O3    Zn1   S    
C37   C48   S    
C19   O6    A    
C9    C17   S    
C23   H8    S    
C20   C22   S    
C45   C54   A    
C34   C54   A    
C1    O4    A    
C22   C27   S    
C20   I1    S    
C13   C16   A    
C21   C24   S    
C3    N1    A    
O5    Zn1   S    
C22   I3    S    
C19   O7    A    
C3    I7    S    
C24   I4    S    
C1    C41   S    
C7    C9    A    
C11   C17   A    
C1    O1    A    
C56   I5    S    
C31   C41   A    
C33   C44   S    
C36   C39   A    
C24   C28   S    
C32   H7    S    
C29   H1    S    
C44   N8    T    
C25   C42   S    
C6    C10   A    
O7    Zn1   S    
C23   C55   A    
C25   C27   S    
C49   N12   T    
C26   C28   S    
C33   C38   A    
C21   I2    S    
C10   C16   S    
C8    H4    S    
C29   C40   A    
C32   C40   A    
C53   H11   S    
C51   N3    T    
C4    I8    S    
C13   C50   S    
C34   C53   A    
C8    C10   A    
C22   C26   S    
C30   H5    S    
C45   H10   S    
C18   O5    A    
C31   C36   A    
C2    N5    A    
C52   N4    T    
C35   C46   S    
O2    Zn2   S    
C14   C17   A    
