data_mof_unit_40488.cif
_audit_creation_date              2012-10-26T21:21:06-0400
_audit_creation_method            fapswitch 2.2
_symmetry_space_group_name_H-M    P1
_symmetry_Int_Tables_number       1
_space_group_crystal_system       triclinic
_cell_length_a                    10.834766
_cell_length_b                    10.857383
_cell_length_c                    9.771746
_cell_angle_alpha                 91.541225
_cell_angle_beta                  88.52357
_cell_angle_gamma                 90.26881
_cell_volume                      1148.71433024

loop_
_atom_site_label
_atom_site_type_symbol
_atom_type_description
_atom_site_fract_x
_atom_site_fract_y
_atom_site_fract_z
_atom_type_partial_charge
Br1   Br    Br    0.615242 0.267859 0.866647 -0.423937
Br2   Br    Br    0.377263 0.268544 0.128143 -0.372457
Br3   Br    Br    0.119576 0.639941 0.034481 -0.504706
Br4   Br    Br    0.242005 0.139951 0.453456 -0.466791
C1    C     C_R   0.500216 0.265498 0.498030 0.604851
C2    C     C_2   0.503319 0.132842 0.490359 -0.055843
C3    C     C_2   0.517002 0.406707 0.926130 0.325913
C4    C     C_R   0.262084 0.490402 0.502438 0.595962
C5    C     C_2   0.473704 0.406996 0.071486 0.324193
C6    C     C_R   0.495892 0.734695 0.502260 0.563682
C7    C     C_R   0.737176 0.507273 0.498548 0.534687
C8    C     C_R   0.101048 0.524099 0.764021 0.141828
C9    C     C_R   0.048943 0.609617 0.859236 0.212408
C10   C     C_R   0.941478 0.671855 0.828153 -0.095338
C11   C     C_R   0.880901 0.641845 0.707774 -0.112680
C12   C     C_R   0.056969 0.520168 0.627920 -0.014916
C13   C     C_R   0.935284 0.559485 0.609880 0.004014
C14   C     C_R   0.126273 0.477654 0.509899 0.046325
C15   C     C_R   0.062828 0.438953 0.391891 0.098080
C16   C     C_R   0.935492 0.452653 0.388191 -0.120091
C17   C     C_R   0.871376 0.512895 0.495936 -0.004698
C18   C     C_2   0.415383 0.933098 0.428463 0.087762
C19   C     C_2   0.484675 0.867574 0.512094 -0.085118
C20   C     C_2   0.403248 0.066644 0.456545 0.159856
Cu1   Cu    Cu3+1 0.500020 0.500020 0.638630 1.003251
Cu2   Cu    Cu3+1 0.499980 0.499980 0.361370 1.070094
H1    H     H_    0.593424 0.090073 0.495905 0.070023
H2    H     H_    0.366638 0.623415 0.843779 0.285637
H3    H     H_    0.251497 0.450330 0.853413 0.283581
H4    H     H_    0.181519 0.352428 0.741033 0.268694
H5    H     H_    0.291416 0.937513 0.273871 0.290880
H6    H     H_    0.414260 0.849352 0.241788 0.253902
H7    H     H_    0.557291 0.564545 0.113705 0.206707
H8    H     H_    0.900356 0.737182 0.901319 0.154660
H9    H     H_    0.793271 0.685488 0.690347 0.139382
H10   H     H_    0.886740 0.414744 0.301069 0.151266
H11   H     H_    0.524051 0.912093 0.602061 0.091896
H12   H     H_    0.087451 0.289761 0.266774 0.273206
H13   H     H_    0.108616 0.425189 0.190515 0.289940
H14   H     H_    0.501953 0.674654 0.899929 0.240665
N1    N     N_2   0.498640 0.498660 0.846910 -0.201551
N2    N     N_2   0.498610 0.498630 0.153040 -0.317931
N3    N     N_3   0.126022 0.377665 0.279245 -0.509740
N4    N     N_3   0.439534 0.601241 0.906144 -0.542300
N5    N     N_3   0.166756 0.421260 0.816485 -0.554179
N6    N     N_3   0.349304 0.874155 0.318454 -0.533443
O1    O     O_R   0.500020 0.321960 0.617040 -0.450292
O2    O     O_R   0.499980 0.321920 0.382900 -0.448909
O3    O     O_R   0.319670 0.500020 0.617100 -0.541502
O4    O     O_R   0.319630 0.499980 0.382950 -0.407659
O5    O     O_R   0.500020 0.678080 0.617100 -0.524613
O6    O     O_R   0.499980 0.678040 0.382960 -0.486624
O7    O     O_R   0.680370 0.500020 0.617050 -0.478698
O8    O     O_R   0.680330 0.499980 0.382900 -0.519325

loop_
_geom_bond_atom_site_label_1
_geom_bond_atom_site_label_2
_ccdc_geom_bond_type
C10   H8    S    
H2    N4    S    
C13   C17   A    
Cu1   O5    S    
C11   C13   A    
Cu2   O6    S    
C6    C19   S    
C15   N3    S    
Cu1   O1    S    
H4    N5    S    
C2    H1    S    
Br3   C9    S    
Cu2   O2    S    
C6    O6    A    
C3    N1    D    
C2    C20   D    
H12   N3    S    
C1    O2    A    
C9    C10   A    
C8    C9    A    
C1    O1    A    
C5    N2    D    
C7    O8    A    
C8    C12   A    
C6    O5    A    
Cu2   O8    S    
C11   H9    S    
C18   N6    S    
C19   H11   S    
Cu1   O7    S    
C18   C20   S    
Cu2   O4    S    
C1    C2    S    
Br4   C20   S    
N1    N4    S    
Cu1   O3    S    
H7    N2    S    
C16   H10   S    
C4    O4    A    
H14   N4    S    
C16   C17   A    
Cu2   N2    S    
C12   C14   A    
C14   C15   A    
Cu1   N1    S    
C3    C5    S    
C10   C11   A    
C8    N5    S    
H13   N3    S    
Cu1   Cu2   S    
Br1   C3    S    
Br2   C5    S    
H6    N6    S    
C4    O3    A    
C7    C17   S    
C18   C19   D    
C4    C14   S    
C15   C16   A    
H3    N5    S    
C12   C13   A    
H5    N6    S    
C7    O7    A    
