data_mof_unit_14115.cif
_audit_creation_date              2012-12-10T17:43:34-0500
_audit_creation_method            fapswitch 2.2
_symmetry_space_group_name_H-M    P1
_symmetry_Int_Tables_number       1
_space_group_crystal_system       triclinic
_cell_length_a                    14.938842
_cell_length_b                    10.676793
_cell_length_c                    9.94672
_cell_angle_alpha                 89.278316
_cell_angle_beta                  90.28105
_cell_angle_gamma                 92.184639
_cell_volume                      1585.19672521

loop_
_atom_site_label
_atom_site_type_symbol
_atom_type_description
_atom_site_fract_x
_atom_site_fract_y
_atom_site_fract_z
_atom_type_partial_charge
C1    C     C_R   0.509127 0.261094 0.502415 0.874441
C2    C     C_R   0.907450 0.600719 0.446074 0.151464
C3    C     C_R   0.946814 0.284647 0.599063 0.147467
C4    C     C_R   0.039958 0.284856 0.591342 -0.226815
C5    C     C_R   0.090240 0.388504 0.539298 0.069057
C6    C     C_R   0.045808 0.496646 0.496497 -0.034744
C7    C     C_R   0.094526 0.605698 0.451049 0.116727
C8    C     C_R   0.047882 0.707282 0.397201 -0.201003
C9    C     C_R   0.955453 0.704375 0.394437 -0.231059
C10   C     C_R   0.183919 0.386161 0.527849 0.082914
C11   C     C_R   0.231503 0.499767 0.497559 -0.131004
C12   C     C_R   0.327339 0.501081 0.499520 0.863708
C13   C     C_R   0.188334 0.610964 0.461836 0.076106
C14   C     C_R   0.515466 0.108008 0.763837 0.591052
C15   C     C_R   0.470891 0.049195 0.871739 -0.227535
C16   C     C_R   0.419174 0.939046 0.851764 0.173351
C17   C     C_R   0.423368 0.880472 0.727011 -0.234312
C18   C     C_R   0.472829 0.936554 0.619502 -0.012989
C19   C     C_R   0.505032 0.059906 0.632014 -0.028565
C20   C     C_R   0.522796 0.128483 0.510898 -0.073263
C21   C     C_R   0.537405 0.066526 0.390921 -0.227230
C22   C     C_R   0.527791 0.938493 0.388091 -0.230727
C23   C     C_R   0.495482 0.739721 0.499513 0.848912
C24   C     C_R   0.493179 0.873455 0.500150 -0.059358
C25   C     C_R   0.380812 0.337119 0.140817 -0.243694
C26   C     C_R   0.322808 0.255932 0.071244 -0.303680
C27   C     C_R   0.321766 0.257321 0.932288 0.600686
C28   C     C_R   0.380039 0.338348 0.861475 -0.224160
C29   C     C_R   0.440389 0.421101 0.928296 0.093190
C30   C     C_R   0.440652 0.420777 0.072662 0.159733
C31   C     C_R   0.557847 0.573620 0.072679 -0.138749
C32   C     C_R   0.559276 0.573726 0.930030 0.225802
C33   C     C_R   0.672508 0.500205 0.500319 0.888222
C34   C     C_R   0.815044 0.600494 0.445750 -0.270040
C35   C     C_R   0.767299 0.499103 0.500962 -0.053146
C36   C     C_R   0.809058 0.395778 0.554656 -0.262191
C37   C     C_R   0.902198 0.390752 0.551191 0.088215
C38   C     C_R   0.951961 0.495807 0.498061 0.048471
H1    H     H_    0.779964 0.679775 0.404862 0.134257
H2    H     H_    0.475720 0.091106 0.970148 0.167384
H3    H     H_    0.386094 0.792754 0.713688 0.179002
H4    H     H_    0.546822 0.890657 0.297865 0.171253
H5    H     H_    0.604379 0.633939 0.128084 0.149025
H6    H     H_    0.377650 0.330506 0.247593 0.237440
H7    H     H_    0.279109 0.190012 0.125145 0.176366
H8    H     H_    0.378106 0.330894 0.754970 0.208365
H9    H     H_    0.767423 0.319521 0.595431 0.172540
H10   H     H_    0.072359 0.202579 0.628341 0.169125
H11   H     H_    0.081441 0.790077 0.355438 0.157065
H12   H     H_    0.921415 0.784220 0.353136 0.146838
H13   H     H_    0.555961 0.116941 0.299352 0.176273
N1    N     N_R   0.499150 0.498800 0.142780 -0.123528
N2    N     N_R   0.499120 0.498720 0.857170 -0.109859
O1    O     O_R   0.500000 0.316780 0.614690 -0.581103
O2    O     O_R   0.499990 0.316750 0.385360 -0.644886
O3    O     O_R   0.367850 0.499980 0.614680 -0.644495
O4    O     O_R   0.367840 0.499960 0.385350 -0.633858
O5    O     O_R   0.500010 0.683250 0.614640 -0.648454
O6    O     O_R   0.500000 0.683220 0.385310 -0.627331
O7    O     O_R   0.632160 0.500040 0.614650 -0.605218
O8    O     O_R   0.632150 0.500020 0.385320 -0.614702
Zn1   Zn    Zn3+2 0.500010 0.500020 0.653130 0.960191
Zn2   Zn    Zn3+2 0.499990 0.499980 0.346870 0.929858
F1    F     F_    0.574780 0.203897 0.791551 -0.664183
C39   C     C_3   0.359757 0.883948 0.961688 -0.373481
C40   C     C_3   0.412277 0.854269 0.089103 -0.881482
H14   H     H_    0.471890 0.800172 0.064946 0.260796
H15   H     H_    0.433802 0.942662 0.139154 0.254892
H16   H     H_    0.369094 0.798267 0.159866 0.259792
H17   H     H_    0.307656 0.951566 0.985878 0.246952
H18   H     H_    0.324537 0.796315 0.927506 0.199250
F2    F     F_    0.266050 0.176132 0.865883 -0.717215
C41   C     C_3   0.630165 0.658205 0.864588 -0.389750
C42   C     C_3   0.723518 0.607008 0.884805 -0.833831
H19   H     H_    0.725781 0.509983 0.846273 0.290758
H20   H     H_    0.773478 0.667108 0.829180 0.246503
H21   H     H_    0.742242 0.606710 0.992987 0.247013
H22   H     H_    0.619076 0.671686 0.756993 0.268261
H23   H     H_    0.628407 0.753205 0.908864 0.177215
C43   C     C_3   0.898150 0.168652 0.656709 -0.405093
C44   C     C_3   0.859230 0.085433 0.545291 -0.847562
H24   H     H_    0.810644 0.136380 0.482391 0.261202
H25   H     H_    0.913865 0.053470 0.480132 0.254880
H26   H     H_    0.824088 0.001758 0.590597 0.252416
H27   H     H_    0.944770 0.111859 0.717467 0.209069
H28   H     H_    0.844983 0.194709 0.727549 0.216435
C45   C     C_3   0.232509 0.262285 0.538304 -0.384962
C46   C     C_3   0.208938 0.178021 0.419202 -0.889916
H29   H     H_    0.140917 0.133831 0.429883 0.263084
H30   H     H_    0.211453 0.233935 0.324575 0.264871
H31   H     H_    0.257790 0.102589 0.412481 0.252413
H32   H     H_    0.306330 0.275445 0.538995 0.195446
H33   H     H_    0.216932 0.212698 0.634038 0.263356
C47   C     C_3   0.241756 0.734998 0.439593 -0.413302
C48   C     C_3   0.224457 0.827874 0.551672 -0.854748
H34   H     H_    0.155832 0.863481 0.545743 0.263088
H35   H     H_    0.233292 0.782328 0.651560 0.259077
H36   H     H_    0.272515 0.909356 0.542995 0.257777
H37   H     H_    0.314803 0.723066 0.437128 0.205456
H38   H     H_    0.226325 0.776598 0.339770 0.198720

loop_
_geom_bond_atom_site_label_1
_geom_bond_atom_site_label_2
_ccdc_geom_bond_type
O5    Zn1   S    
C23   O5    A    
C40   H15   S    
C45   C46   S    
C48   H34   S    
C41   C42   S    
C19   C20   A    
C31   N1    A    
C7    C13   A    
C44   H24   S    
C48   H36   S    
C7    C8    A    
C23   O6    A    
C28   H8    S    
C26   C27   A    
C43   H27   S    
C42   H20   S    
C18   C24   A    
C36   C37   A    
C37   C38   A    
C18   C19   A    
C5    C6    A    
C40   H16   S    
C15   C16   A    
C36   H9    S    
O7    Zn1   S    
C34   C35   A    
O8    Zn2   S    
C43   H28   S    
C26   H7    S    
C35   C36   A    
C8    C9    A    
C42   H21   S    
O2    Zn2   S    
C41   H22   S    
C6    C38   A    
C2    C34   A    
C40   H14   S    
C21   C22   A    
C3    C43   S    
C25   H6    S    
C44   H25   S    
O4    Zn2   S    
C10   C45   S    
C42   H19   S    
C34   H1    S    
C32   C41   S    
C16   C17   A    
O1    Zn1   S    
C25   C26   A    
C39   H18   S    
C1    O1    A    
C29   C30   A    
N2    Zn1   S    
C2    C38   A    
C31   C32   A    
C46   H31   S    
C47   H38   S    
C23   C24   S    
C14   F1    S    
C17   C18   A    
C41   H23   S    
C20   C21   A    
C12   O3    A    
C31   H5    S    
C12   O4    A    
C46   H30   S    
C33   O7    A    
C22   C24   A    
C3    C4    A    
C32   N2    A    
C21   H13   S    
C44   H26   S    
C4    H10   S    
C25   C30   A    
C30   N1    A    
C28   C29   A    
C1    C20   S    
C14   C19   A    
C9    H12   S    
C43   C44   S    
N1    Zn2   S    
C11   C12   S    
C48   H35   S    
C6    C7    A    
O6    Zn2   S    
C13   C47   S    
C1    O2    A    
C5    C10   A    
C11   C13   A    
C22   H4    S    
C29   N2    A    
C47   H37   S    
C45   H33   S    
C33   C35   S    
O3    Zn1   S    
C47   C48   S    
C17   H3    S    
C15   H2    S    
C10   C11   A    
C4    C5    A    
C46   H29   S    
C3    C37   A    
C33   O8    A    
C39   C40   S    
C27   C28   A    
C14   C15   A    
C16   C39   S    
C45   H32   S    
C2    C9    A    
C8    H11   S    
C27   F2    S    
C39   H17   S    
