data_mof_unit_23746.cif
_audit_creation_date              2012-12-11T15:34:44-0500
_audit_creation_method            fapswitch 2.2
_symmetry_space_group_name_H-M    P1
_symmetry_Int_Tables_number       1
_space_group_crystal_system       triclinic
_cell_length_a                    17.369265
_cell_length_b                    17.353493
_cell_length_c                    17.370091
_cell_angle_alpha                 88.499745
_cell_angle_beta                  90.000533
_cell_angle_gamma                 89.999667
_cell_volume                      5233.85325379

loop_
_atom_site_label
_atom_site_type_symbol
_atom_type_description
_atom_site_fract_x
_atom_site_fract_y
_atom_site_fract_z
_atom_type_partial_charge
C1    C     C_R   0.820451 0.093046 0.363556 0.506510
C2    C     C_R   0.194303 0.102977 0.388888 0.562285
C3    C     C_3   0.268973 0.903741 0.055837 0.002620
C4    C     C_3   0.927101 0.633341 0.873988 0.141937
C5    C     C_3   0.375033 0.457740 0.321999 -0.213443
C6    C     C_3   0.298619 0.825166 0.849154 0.153983
C7    C     C_3   0.759781 0.098185 0.031142 0.053970
C8    C     C_3   0.199243 0.587894 0.270090 0.098301
C9    C     C_3   0.585224 0.386952 0.646512 -0.204452
C10   C     C_3   0.823644 0.770947 0.108562 -0.119536
C11   C     C_3   0.268971 0.096267 0.944170 0.002653
C12   C     C_3   0.927117 0.366688 0.126097 0.142033
C13   C     C_R   0.890772 0.198255 0.594119 0.469974
C14   C     C_3   0.375044 0.542261 0.678049 -0.212777
C15   C     C_3   0.298669 0.174810 0.150871 0.153981
C16   C     C_3   0.759722 0.901844 0.968838 0.054195
C17   C     C_3   0.699238 0.912111 0.229921 0.098297
C18   C     C_3   0.085229 0.113052 0.853481 -0.204433
C19   C     C_3   0.323668 0.729074 0.391425 -0.119481
C20   C     C_3   0.768968 0.403737 0.555828 0.002625
C21   C     C_3   0.427113 0.133319 0.373927 0.142014
C22   C     C_3   0.875026 0.957746 0.821996 -0.213378
C23   C     C_3   0.798651 0.325184 0.349135 0.153995
C24   C     C_R   0.091026 0.824624 0.361887 0.451371
C25   C     C_3   0.259891 0.598194 0.531127 0.053683
C26   C     C_3   0.699237 0.087895 0.770086 0.098301
C27   C     C_3   0.085226 0.886950 0.146515 -0.204455
C28   C     C_3   0.323651 0.270943 0.608560 -0.119509
C29   C     C_3   0.768976 0.596264 0.444170 0.002666
C30   C     C_3   0.427118 0.866718 0.626152 0.142086
C31   C     C_3   0.875039 0.042261 0.178014 -0.213319
C32   C     C_3   0.798700 0.674798 0.650875 0.153991
C33   C     C_3   0.259721 0.401843 0.468835 0.054259
C34   C     C_R   0.185817 0.089292 0.628327 0.514409
C35   C     C_R   0.801312 0.891800 0.405479 0.511651
C36   C     C_R   0.115972 0.802267 0.582845 0.571368
C37   C     C_R   0.918957 0.174552 0.357454 0.467804
C38   C     C_R   0.320451 0.593043 0.863556 0.506357
C39   C     C_R   0.694304 0.397025 0.111113 0.562294
C40   C     C_R   0.390773 0.301745 0.905880 0.469986
C41   C     C_R   0.194303 0.897031 0.611118 0.562309
C42   C     C_R   0.591024 0.675374 0.138115 0.451404
C43   C     C_R   0.685815 0.410710 0.871671 0.514416
C44   C     C_R   0.301312 0.608199 0.094521 0.511672
C45   C     C_R   0.615964 0.697735 0.917162 0.571414
C46   C     C_R   0.418959 0.325450 0.142547 0.467799
C47   C     C_R   0.320452 0.406955 0.136444 0.506538
C48   C     C_R   0.694303 0.602978 0.888889 0.562272
C49   C     C_R   0.390772 0.698255 0.094119 0.469984
C50   C     C_R   0.591023 0.324627 0.861884 0.451384
C51   C     C_R   0.685817 0.589292 0.128328 0.514416
C52   C     C_R   0.890774 0.801745 0.405881 0.469952
C53   C     C_R   0.301312 0.391801 0.905478 0.511626
C54   C     C_R   0.615967 0.302265 0.082840 0.571400
C55   C     C_R   0.418956 0.674549 0.857452 0.467848
C56   C     C_R   0.201361 0.185374 0.728687 -0.215227
C57   C     C_R   0.768720 0.772285 0.339931 -0.228855
C58   C     C_R   0.768716 0.227715 0.660067 -0.228841
C59   C     C_R   0.201359 0.814628 0.271310 -0.215224
C60   C     C_R   0.824912 0.809871 0.750711 -0.277206
C61   C     C_R   0.257968 0.234209 0.375565 -0.262978
C62   C     C_R   0.257982 0.765809 0.624434 -0.262991
C63   C     C_R   0.091025 0.175376 0.638114 0.451398
C64   C     C_R   0.824907 0.190133 0.249292 -0.277204
C65   C     C_R   0.701360 0.685372 0.228689 -0.215224
C66   C     C_R   0.268721 0.272287 0.839928 -0.228862
C67   C     C_R   0.268718 0.727715 0.160068 -0.228837
C68   C     C_R   0.701356 0.314630 0.771307 -0.215216
C69   C     C_R   0.324912 0.309869 0.250710 -0.277183
C70   C     C_R   0.757966 0.734211 0.875566 -0.263033
C71   C     C_R   0.757973 0.265795 0.124432 -0.262999
C72   C     C_R   0.324900 0.690133 0.749294 -0.277148
C73   C     C_R   0.852621 0.153745 0.321057 -0.149270
C74   C     C_R   0.185816 0.910708 0.371673 0.514419
C75   C     C_R   0.192654 0.817948 0.601609 -0.118982
C76   C     C_R   0.814396 0.815967 0.392560 -0.039705
C77   C     C_R   0.158378 0.147661 0.671171 -0.031820
C78   C     C_R   0.158377 0.852340 0.328828 -0.031822
C79   C     C_R   0.814394 0.184033 0.607440 -0.039733
C80   C     C_R   0.192647 0.182062 0.398396 -0.118954
C81   C     C_R   0.852624 0.846258 0.678945 -0.149258
C82   C     C_R   0.352621 0.653739 0.821054 -0.149240
C83   C     C_R   0.692649 0.317940 0.101605 -0.118968
C84   C     C_R   0.314396 0.315968 0.892559 -0.039705
C85   C     C_R   0.801312 0.108199 0.594521 0.511660
C86   C     C_R   0.658377 0.647659 0.171173 -0.031835
C87   C     C_R   0.658374 0.352343 0.828824 -0.031832
C88   C     C_R   0.314395 0.684033 0.107439 -0.039746
C89   C     C_R   0.692646 0.682063 0.898397 -0.118940
C90   C     C_R   0.352624 0.346256 0.178944 -0.149271
C91   C     C_R   0.261317 0.302013 0.764124 0.301857
C92   C     C_R   0.698242 0.658707 0.305424 0.399190
C93   C     C_R   0.738774 0.247110 0.793108 0.460514
C94   C     C_R   0.239608 0.800903 0.138685 0.456992
C95   C     C_R   0.820080 0.700157 0.837651 0.366426
C96   C     C_R   0.115965 0.197735 0.417162 0.571416
C97   C     C_R   0.295037 0.354286 0.310585 0.445837
C98   C     C_R   0.334775 0.770157 0.735876 0.456342
C99   C     C_R   0.754491 0.184228 0.129241 0.446484
C100  C     C_R   0.261314 0.697988 0.235872 0.301849
C101  C     C_R   0.698235 0.341292 0.694571 0.399180
C102  C     C_R   0.738773 0.752894 0.206889 0.460527
C103  C     C_R   0.239610 0.199100 0.861313 0.456992
C104  C     C_R   0.820081 0.299849 0.162356 0.366449
C105  C     C_R   0.295034 0.645724 0.689406 0.445723
C106  C     C_R   0.334793 0.229848 0.264146 0.456400
C107  C     C_R   0.918961 0.825454 0.642551 0.467811
C108  C     C_R   0.754480 0.815778 0.870751 0.446416
C109  C     C_R   0.761311 0.802014 0.264128 0.301847
C110  C     C_R   0.198240 0.158711 0.805423 0.399191
C111  C     C_R   0.238780 0.747109 0.293110 0.460506
C112  C     C_R   0.739606 0.300903 0.638682 0.456995
C113  C     C_R   0.320080 0.200155 0.337648 0.366439
C114  C     C_R   0.795033 0.854288 0.810584 0.445842
C115  C     C_R   0.834786 0.270154 0.235859 0.456399
C116  C     C_R   0.254509 0.684243 0.629223 0.446586
C117  C     C_R   0.761310 0.197989 0.735870 0.301855
C118  C     C_R   0.820452 0.906955 0.636443 0.506532
C119  C     C_R   0.198237 0.841291 0.194575 0.399179
C120  C     C_R   0.238778 0.252894 0.706886 0.460523
C121  C     C_R   0.739612 0.699097 0.361315 0.456989
C122  C     C_R   0.320079 0.799863 0.662376 0.366473
C123  C     C_R   0.795038 0.145717 0.189413 0.445817
C124  C     C_R   0.834799 0.729851 0.764151 0.456451
C125  C     C_R   0.254483 0.315776 0.370752 0.446403
C126  C     C_3   0.199251 0.412112 0.729913 0.098306
C127  C     C_3   0.585233 0.613044 0.353482 -0.204449
C128  C     C_3   0.823659 0.229075 0.891426 -0.119500
Cl1   Cl    Cl    0.723526 0.067638 0.355742 -0.523473
Cl2   Cl    Cl    0.207380 0.073864 0.292848 -0.585944
Cl3   Cl    Cl    0.917610 0.286077 0.549620 -0.510213
Cl4   Cl    Cl    0.044275 0.741437 0.331327 -0.602446
Cl5   Cl    Cl    0.283472 0.065135 0.616391 -0.567841
Cl6   Cl    Cl    0.713303 0.916651 0.447393 -0.484032
Cl7   Cl    Cl    0.080750 0.718403 0.541004 -0.402959
Cl8   Cl    Cl    0.990787 0.230179 0.310836 -0.601872
Cl9   Cl    Cl    0.223525 0.567636 0.855742 -0.523474
Cl10  Cl    Cl    0.707379 0.426138 0.207154 -0.585937
Cl11  Cl    Cl    0.417614 0.213924 0.950381 -0.510231
Cl12  Cl    Cl    0.207362 0.926142 0.707162 -0.585925
Cl13  Cl    Cl    0.544269 0.758556 0.168679 -0.602464
Cl14  Cl    Cl    0.783471 0.434861 0.883610 -0.567806
Cl15  Cl    Cl    0.213303 0.583349 0.052605 -0.484034
Cl16  Cl    Cl    0.580743 0.781573 0.959053 -0.403053
Cl17  Cl    Cl    0.490793 0.269829 0.189171 -0.601870
Cl18  Cl    Cl    0.223526 0.432362 0.144257 -0.523457
Cl19  Cl    Cl    0.707382 0.573866 0.792848 -0.585943
Cl20  Cl    Cl    0.417611 0.786077 0.049619 -0.510197
Cl21  Cl    Cl    0.544270 0.241443 0.831321 -0.602469
Cl22  Cl    Cl    0.783473 0.565139 0.116388 -0.567836
Cl23  Cl    Cl    0.917617 0.713925 0.450385 -0.510254
Cl24  Cl    Cl    0.213303 0.416650 0.947394 -0.484025
Cl25  Cl    Cl    0.580749 0.218419 0.040963 -0.403037
Cl26  Cl    Cl    0.490782 0.730186 0.810838 -0.601881
Cl27  Cl    Cl    0.044271 0.258559 0.668677 -0.602446
Cl28  Cl    Cl    0.283472 0.934862 0.383613 -0.567819
Cl29  Cl    Cl    0.713302 0.083348 0.552606 -0.484038
Cl30  Cl    Cl    0.080744 0.281574 0.459050 -0.403048
Cl31  Cl    Cl    0.990803 0.769859 0.689193 -0.601877
Cl32  Cl    Cl    0.723525 0.932360 0.644254 -0.523461
H1    H     H_    0.154948 0.395374 0.773736 0.146056
H2    H     H_    0.306692 0.921466 0.104240 0.163590
H3    H     H_    0.218534 0.942680 0.050199 0.131382
H4    H     H_    0.303201 0.911405 0.002395 0.140081
H5    H     H_    0.940522 0.678210 0.916707 0.045891
H6    H     H_    0.959299 0.644731 0.819558 0.174353
H7    H     H_    0.947414 0.577240 0.898408 0.178685
H8    H     H_    0.411250 0.453380 0.269681 0.160000
H9    H     H_    0.402196 0.425075 0.370945 0.094004
H10   H     H_    0.373937 0.519313 0.337576 0.174619
H11   H     H_    0.313880 0.788400 0.900085 0.135850
H12   H     H_    0.179516 0.396648 0.671495 0.163600
H13   H     H_    0.239938 0.809266 0.828758 0.106806
H14   H     H_    0.295439 0.885606 0.868026 0.146304
H15   H     H_    0.733493 0.095028 0.973141 0.171950
H16   H     H_    0.762682 0.038836 0.055886 0.114199
H17   H     H_    0.819120 0.121505 0.023603 0.001007
H18   H     H_    0.154935 0.604639 0.226274 0.146044
H19   H     H_    0.179518 0.603357 0.328512 0.163631
H20   H     H_    0.202929 0.524685 0.269843 0.227890
H21   H     H_    0.552168 0.440305 0.632980 0.154759
H22   H     H_    0.551461 0.352560 0.689659 0.155479
H23   H     H_    0.202943 0.475321 0.730156 0.227890
H24   H     H_    0.591027 0.354788 0.592232 0.157649
H25   H     H_    0.855525 0.722115 0.136901 0.164088
H26   H     H_    0.852454 0.826337 0.121293 0.124780
H27   H     H_    0.827216 0.761783 0.045758 0.157823
H28   H     H_    0.306695 0.078540 0.895772 0.163596
H29   H     H_    0.218532 0.057329 0.949804 0.131381
H30   H     H_    0.303193 0.088606 0.997617 0.140049
H31   H     H_    0.940600 0.321786 0.083430 0.045898
H32   H     H_    0.959271 0.355361 0.180566 0.174449
H33   H     H_    0.947425 0.422778 0.101647 0.178637
H34   H     H_    0.552180 0.559690 0.367014 0.154766
H35   H     H_    0.373925 0.480757 0.662204 0.174266
H36   H     H_    0.411132 0.546360 0.730493 0.159953
H37   H     H_    0.402371 0.575103 0.629298 0.093986
H38   H     H_    0.313937 0.211565 0.099936 0.135840
H39   H     H_    0.239981 0.190711 0.171248 0.106796
H40   H     H_    0.295500 0.114365 0.132012 0.146311
H41   H     H_    0.733418 0.905002 0.026833 0.171951
H42   H     H_    0.762609 0.961190 0.944087 0.114191
H43   H     H_    0.819066 0.878541 0.976397 0.000943
H44   H     H_    0.654941 0.895378 0.273752 0.146064
H45   H     H_    0.551468 0.647434 0.310335 0.155473
H46   H     H_    0.679496 0.896638 0.171508 0.163605
H47   H     H_    0.702929 0.975320 0.230154 0.227889
H48   H     H_    0.052173 0.059699 0.867012 0.154767
H49   H     H_    0.051466 0.147444 0.810334 0.155474
H50   H     H_    0.091032 0.145216 0.907761 0.157648
H51   H     H_    0.355537 0.777910 0.363080 0.164103
H52   H     H_    0.352485 0.673689 0.378691 0.124729
H53   H     H_    0.327249 0.738240 0.454228 0.157873
H54   H     H_    0.803193 0.411399 0.502384 0.140062
H55   H     H_    0.806690 0.421463 0.604229 0.163587
H56   H     H_    0.591035 0.645208 0.407763 0.157651
H57   H     H_    0.718529 0.442675 0.550192 0.131383
H58   H     H_    0.440586 0.178218 0.416600 0.045890
H59   H     H_    0.459276 0.144653 0.319464 0.174433
H60   H     H_    0.447421 0.077229 0.398375 0.178648
H61   H     H_    0.873927 0.019311 0.837591 0.174599
H62   H     H_    0.911236 0.953403 0.769674 0.160003
H63   H     H_    0.902198 0.925071 0.870929 0.093999
H64   H     H_    0.813920 0.288427 0.400069 0.135844
H65   H     H_    0.739966 0.309280 0.328753 0.106794
H66   H     H_    0.795475 0.385627 0.367997 0.146311
H67   H     H_    0.855533 0.277903 0.863073 0.164098
H68   H     H_    0.233673 0.595051 0.473093 0.171903
H69   H     H_    0.262736 0.538841 0.555870 0.114287
H70   H     H_    0.319250 0.621490 0.523663 0.001034
H71   H     H_    0.654929 0.104642 0.726269 0.146038
H72   H     H_    0.679511 0.103357 0.828508 0.163599
H73   H     H_    0.702921 0.024686 0.769837 0.227888
H74   H     H_    0.052168 0.940302 0.132985 0.154764
H75   H     H_    0.051463 0.852556 0.189661 0.155473
H76   H     H_    0.091029 0.854788 0.092234 0.157649
H77   H     H_    0.355531 0.222111 0.636901 0.164089
H78   H     H_    0.852473 0.173684 0.878704 0.124749
H79   H     H_    0.352462 0.326333 0.621291 0.124786
H80   H     H_    0.327224 0.261778 0.545757 0.157828
H81   H     H_    0.806702 0.578539 0.395772 0.163590
H82   H     H_    0.718539 0.557324 0.449802 0.131377
H83   H     H_    0.803198 0.588602 0.497617 0.140039
H84   H     H_    0.440620 0.821815 0.583492 0.045914
H85   H     H_    0.459259 0.855399 0.680630 0.174471
H86   H     H_    0.447424 0.922809 0.601704 0.178621
H87   H     H_    0.873946 0.980697 0.162409 0.174579
H88   H     H_    0.911236 0.046595 0.230348 0.159974
H89   H     H_    0.827237 0.238254 0.954227 0.157856
H90   H     H_    0.902224 0.074945 0.129093 0.094002
H91   H     H_    0.813966 0.711553 0.599939 0.135830
H92   H     H_    0.740007 0.690688 0.671245 0.106792
H93   H     H_    0.795546 0.614351 0.632020 0.146317
H94   H     H_    0.233414 0.405008 0.526826 0.171946
H95   H     H_    0.262611 0.461187 0.444078 0.114212
H96   H     H_    0.319064 0.378539 0.476400 0.000914
N1    N     N_R   0.868470 0.074730 0.422590 -0.133933
N2    N     N_R   0.131530 0.074730 0.422590 -0.152489
N3    N     N_R   0.925270 0.131530 0.577410 -0.136542
N4    N     N_R   0.074730 0.868470 0.422590 -0.124595
N5    N     N_R   0.131530 0.074730 0.577410 -0.157242
N6    N     N_R   0.868470 0.925270 0.422590 -0.145027
N7    N     N_R   0.074730 0.868470 0.577410 -0.125485
N8    N     N_R   0.925270 0.131530 0.422590 -0.127537
N9    N     N_R   0.368470 0.574730 0.922590 -0.133931
N10   N     N_R   0.631530 0.425270 0.077410 -0.152487
N11   N     N_R   0.425270 0.368470 0.922590 -0.136550
N12   N     N_R   0.131530 0.925270 0.577410 -0.152487
N13   N     N_R   0.574730 0.631530 0.077410 -0.124585
N14   N     N_R   0.631530 0.425270 0.922590 -0.157244
N15   N     N_R   0.368470 0.574730 0.077410 -0.145026
N16   N     N_R   0.574730 0.631530 0.922590 -0.125515
N17   N     N_R   0.425270 0.368470 0.077410 -0.127536
N18   N     N_R   0.368470 0.425270 0.077410 -0.133929
N19   N     N_R   0.631530 0.574730 0.922590 -0.152489
N20   N     N_R   0.425270 0.631530 0.077410 -0.136542
N21   N     N_R   0.574730 0.368470 0.922590 -0.124588
N22   N     N_R   0.631530 0.574730 0.077410 -0.157242
N23   N     N_R   0.925270 0.868470 0.422590 -0.136547
N24   N     N_R   0.368470 0.425270 0.922590 -0.145042
N25   N     N_R   0.574730 0.368470 0.077410 -0.125501
N26   N     N_R   0.425270 0.631530 0.922590 -0.127537
N27   N     N_R   0.074730 0.131530 0.577410 -0.124587
N28   N     N_R   0.131530 0.925270 0.422590 -0.157242
N29   N     N_R   0.868470 0.074730 0.577410 -0.145030
N30   N     N_R   0.074730 0.131530 0.422590 -0.125510
N31   N     N_R   0.925270 0.868470 0.577410 -0.127540
N32   N     N_R   0.868470 0.925270 0.577410 -0.133932
Ni1   Ni    Ni4+2 0.869670 0.000000 0.500000 0.310596
Ni2   Ni    Ni4+2 0.130330 0.000000 0.500000 0.265765
Ni3   Ni    Ni4+2 0.000000 0.869670 0.500000 0.316796
Ni4   Ni    Ni4+2 0.000000 0.130330 0.500000 0.316800
Ni5   Ni    Ni4+2 0.369670 0.500000 0.000000 0.310584
Ni6   Ni    Ni4+2 0.630330 0.500000 0.000000 0.265759
Ni7   Ni    Ni4+2 0.500000 0.369670 0.000000 0.316792
Ni8   Ni    Ni4+2 0.500000 0.630330 0.000000 0.316798
O1    O     O_3   0.272345 0.379547 0.746935 -0.639290
O2    O     O_3   0.657733 0.407854 0.675937 -0.572856
O3    O     O_3   0.745208 0.773982 0.129734 -0.583726
O4    O     O_3   0.244439 0.173964 0.937891 -0.603505
O5    O     O_3   0.847287 0.371878 0.139502 -0.543347
O6    O     O_3   0.298664 0.566183 0.692326 -0.585935
O7    O     O_3   0.356824 0.179405 0.207606 -0.545043
O8    O     O_3   0.711715 0.856580 0.922677 -0.519211
O9    O     O_3   0.772334 0.879548 0.246940 -0.639302
O10   O     O_3   0.157738 0.092150 0.824057 -0.572846
O11   O     O_3   0.245229 0.726028 0.370265 -0.583707
O12   O     O_3   0.657743 0.592144 0.324058 -0.572852
O13   O     O_3   0.744437 0.326040 0.562105 -0.603505
O14   O     O_3   0.347285 0.128126 0.360507 -0.543343
O15   O     O_3   0.798659 0.933829 0.807645 -0.585857
O16   O     O_3   0.856810 0.320596 0.292403 -0.545049
O17   O     O_3   0.211819 0.643457 0.577225 -0.519165
O18   O     O_3   0.772332 0.120454 0.753060 -0.639300
O19   O     O_3   0.157734 0.907852 0.175942 -0.572852
O20   O     O_3   0.245215 0.273979 0.629731 -0.583734
O21   O     O_3   0.744443 0.673960 0.437892 -0.603499
O22   O     O_3   0.347283 0.871896 0.639536 -0.543353
O23   O     O_3   0.745220 0.226029 0.870263 -0.583736
O24   O     O_3   0.798669 0.066176 0.192347 -0.585852
O25   O     O_3   0.856849 0.679409 0.707616 -0.545002
O26   O     O_3   0.211718 0.356575 0.422676 -0.519218
O27   O     O_3   0.244441 0.826044 0.062109 -0.603516
O28   O     O_3   0.847286 0.628129 0.860507 -0.543301
O29   O     O_3   0.298666 0.433826 0.307647 -0.585858
O30   O     O_3   0.356788 0.820590 0.792432 -0.545075
O31   O     O_3   0.711750 0.143429 0.077296 -0.519195
O32   O     O_3   0.272337 0.620454 0.253060 -0.639311

loop_
_geom_bond_atom_site_label_1
_geom_bond_atom_site_label_2
_ccdc_geom_bond_type
C95   C124  A    
C55   Cl26  S    
C71   C104  A    
C13   C79   A    
C105  C116  A    
C118  Cl32  S    
C26   O18   S    
C50   N21   A    
C58   C112  A    
C57   C76   S    
C17   H46   S    
C18   H50   S    
C1    Cl1   S    
C61   C80   S    
C10   H25   S    
C18   O10   S    
N8    Ni4   S    
C9    H22   S    
C57   C109  A    
C21   H60   S    
C32   H93   S    
C53   Cl24  S    
C59   C111  A    
C42   C86   A    
C117  O18   S    
C47   Cl18  S    
N28   Ni2   S    
C64   C115  A    
C16   H42   S    
C35   Cl6   S    
C54   C83   A    
N4    N28   A    
C121  O21   S    
C103  O4    S    
C12   H32   S    
C22   H61   S    
C25   H70   S    
C19   H52   S    
C20   H55   S    
C33   H95   S    
C68   C101  A    
C6    H14   S    
C71   C99   A    
N19   Ni6   S    
C28   H77   S    
C8    H20   S    
N21   Ni7   S    
C128  O23   S    
N5    Ni2   S    
C16   O8    S    
C29   H83   S    
C74   Cl28  S    
C14   O6    S    
C9    O2    S    
C58   C79   S    
C108  O8    S    
C93   O23   S    
C21   O14   S    
C62   C75   S    
C36   Cl7   S    
C97   O29   S    
C79   C85   A    
C99   O31   S    
C5    O29   S    
C30   H86   S    
N7    Ni3   S    
C66   C103  A    
N27   Ni4   S    
C24   N4    A    
C128  H89   S    
C11   H30   S    
C127  H45   S    
C9    H24   S    
N16   N19   A    
C127  O12   S    
C126  H12   S    
C40   N11   A    
C31   H90   S    
C100  C111  A    
C43   Cl14  S    
C124  O25   S    
C53   N24   A    
C112  O13   S    
C20   H57   S    
C60   C114  A    
N1    Ni1   S    
C101  C112  A    
C111  O11   S    
C7    H17   S    
C125  O26   S    
C103  C110  A    
C120  O20   S    
C35   N6    A    
N18   Ni5   S    
C30   O22   S    
C28   H79   S    
N20   Ni8   S    
C98   O30   S    
N22   Ni6   S    
C109  O9    S    
N11   N24   A    
C6    O30   S    
C41   Cl12  S    
C3    H2    S    
C10   O3    S    
C3    O27   S    
C51   Cl22  S    
C20   O13   S    
C45   Cl16  S    
C64   C73   S    
C22   O15   S    
C39   Cl10  S    
C30   H84   S    
C126  H23   S    
C93   C117  A    
C59   C78   S    
C10   H27   S    
C71   C83   S    
N15   N20   A    
C14   H37   S    
C35   C76   A    
C106  C113  A    
C11   H28   S    
C36   N7    A    
C19   O11   S    
C58   C117  A    
C49   Cl20  S    
C19   H53   S    
C20   H54   S    
C107  N31   A    
C36   C75   A    
N14   Ni6   S    
C60   C81   S    
C15   O7    S    
C7    H16   S    
C42   Cl13  S    
N9    Ni5   S    
C23   O16   S    
N11   Ni7   S    
C27   O19   S    
C27   H76   S    
C52   N23   A    
C50   C87   A    
C122  O22   S    
C7    O31   S    
C47   C90   A    
C31   H88   S    
C70   C89   S    
C17   O9    S    
C62   C122  A    
N10   N25   A    
C98   C122  A    
C34   N5    A    
C52   C76   A    
C95   O28   S    
C26   H71   S    
N6    Ni1   S    
N30   Ni4   S    
C21   H58   S    
C13   N3    A    
C37   N8    A    
C67   C100  A    
N25   Ni7   S    
C15   H40   S    
C50   Cl21  S    
N26   Ni8   S    
N3    Ni4   S    
C44   Cl15  S    
C10   H26   S    
C67   C94   A    
C9    H21   S    
C21   H59   S    
C68   C87   S    
C69   C97   A    
C45   N16   A    
C14   H35   S    
C81   C107  A    
C104  O5    S    
C12   H33   S    
C40   C84   A    
C47   N18   A    
C65   C86   S    
C126  O1    S    
C52   Cl23  S    
C22   H62   S    
C32   H91   S    
C25   H69   S    
C67   C88   S    
C19   H51   S    
C33   H94   S    
C38   N9    A    
C102  C109  A    
C34   C77   A    
C128  H78   S    
C48   Cl19  S    
C4    H5    S    
N17   Ni7   S    
C5    H8    S    
C108  C114  A    
N15   Ni5   S    
C37   C73   A    
C27   H74   S    
C23   H65   S    
N5    N27   A    
C31   O24   S    
C12   O5    S    
C96   N30   A    
C29   H82   S    
C126  H1    S    
C45   C89   A    
C118  N32   A    
C3    H3    S    
N2    Ni2   S    
C54   N25   A    
C74   N28   A    
C38   C82   A    
C49   C88   A    
C85   Cl29  S    
C51   C86   A    
N9    N26   A    
C1    N1    A    
N7    N12   A    
C46   N17   A    
C110  O10   S    
C17   H47   S    
C18   H49   S    
C97   C125  A    
C15   H38   S    
C92   O12   S    
C81   C118  A    
C11   H29   S    
C41   C75   A    
C104  C115  A    
C116  O17   S    
C24   Cl4   S    
N31   N32   A    
C13   Cl3   S    
C37   Cl8   S    
N16   Ni8   S    
C44   N15   A    
C24   C78   A    
C53   C84   A    
C119  O19   S    
C16   H41   S    
C23   H66   S    
N14   N21   A    
C12   H31   S    
C59   C119  A    
C123  O24   S    
C33   H96   S    
C69   C106  A    
C46   C90   A    
C6    H13   S    
C64   C123  A    
C113  O14   S    
C4    H7    S    
N10   Ni6   S    
C1    C73   A    
C115  O16   S    
C39   C83   A    
C101  O2    S    
C28   H80   S    
C8    H19   S    
C25   O17   S    
C2    Cl2   S    
C38   Cl9   S    
C33   O26   S    
C105  O6    S    
C28   O20   S    
C72   C105  A    
C74   C78   A    
N6    N23   A    
C5    H9    S    
C41   N12   A    
C70   C108  A    
C65   C92   A    
C96   Cl30  S    
C30   H85   S    
N29   Ni1   S    
N1    N8    A    
C54   Cl25  S    
C39   N10   A    
C63   N27   A    
C11   O4    S    
C72   C98   A    
C85   N29   A    
C127  H56   S    
C46   Cl17  S    
C91   O1    S    
C94   O27   S    
C40   Cl11  S    
C18   H48   S    
N3    N29   A    
C43   N14   A    
C49   N20   A    
N13   Ni8   S    
C7    H15   S    
C55   N26   A    
C80   C96   A    
C16   H43   S    
C27   H75   S    
N4    Ni3   S    
C56   C120  A    
C31   H87   S    
C65   C102  A    
C56   C110  A    
C6    H11   S    
C114  O15   S    
C127  H34   S    
C102  O3    S    
C34   Cl5   S    
C26   H72   S    
C66   C84   S    
C56   C77   S    
C51   N22   A    
C32   O25   S    
C17   H44   S    
C106  O7    S    
C62   C116  A    
C15   H39   S    
C94   C119  A    
C5    H10   S    
N24   Ni5   S    
C55   C82   A    
C3    H4    S    
C26   H73   S    
C2    N2    A    
N23   Ni3   S    
C48   C89   A    
C61   C113  A    
N31   Ni3   S    
C60   C124  A    
N12   Ni2   S    
C69   C90   S    
C99   C123  A    
C63   C77   A    
C14   H36   S    
C107  Cl31  S    
C66   C91   A    
C22   H63   S    
C32   H92   S    
C25   H68   S    
C68   C93   A    
N2    N30   A    
C43   C87   A    
N32   Ni1   S    
C42   N13   A    
C70   C95   A    
C63   Cl27  S    
C92   C121  A    
C128  H67   S    
C100  O32   S    
C4    H6    S    
N13   N22   A    
C29   O21   S    
C8    O32   S    
C2    C80   A    
C57   C121  A    
C48   N19   A    
C8    H18   S    
C23   H64   S    
C4    O28   S    
C29   H81   S    
C91   C120  A    
C61   C125  A    
C44   C88   A    
C72   C82   S    
N17   N18   A    
