data_mof_unit_56063.cif
_audit_creation_date              2013-03-05T15:59:42-0500
_audit_creation_method            fapswitch 2.2
_symmetry_space_group_name_H-M    P1
_symmetry_Int_Tables_number       1
_space_group_crystal_system       triclinic
_cell_length_a                    18.445865
_cell_length_b                    25.949627
_cell_length_c                    18.237263
_cell_angle_alpha                 90.545531
_cell_angle_beta                  90.507233
_cell_angle_gamma                 89.732541
_cell_volume                      8728.67932675

loop_
_atom_site_label
_atom_site_type_symbol
_atom_site_description
_atom_site_fract_x
_atom_site_fract_y
_atom_site_fract_z
_atom_type_partial_charge
Zn1   Zn    Zn3+2 0.500000 0.706650 0.586810 1.098003
Zn2   Zn    Zn3+2 0.500000 0.293350 0.413190 1.167431
Zn3   Zn    Zn3+2 0.500000 0.706650 0.413190 1.116283
Zn4   Zn    Zn3+2 0.500000 0.293350 0.586810 1.166229
Zn5   Zn    Zn3+2 1.000000 0.206650 0.086810 1.166559
Zn6   Zn    Zn3+2 0.000000 0.793350 0.913190 1.086608
Zn7   Zn    Zn3+2 0.000000 0.206650 0.913190 1.157186
Zn8   Zn    Zn3+2 1.000000 0.793350 0.086810 1.125022
Zn9   Zn    Zn3+2 0.586710 0.793420 0.500000 1.089458
Zn10  Zn    Zn3+2 0.413290 0.206580 0.500000 1.122078
Zn11  Zn    Zn3+2 0.413290 0.793420 0.500000 1.094255
Zn12  Zn    Zn3+2 0.586710 0.206580 0.500000 1.106551
Zn13  Zn    Zn3+2 0.086710 0.293420 0.000000 1.091930
Zn14  Zn    Zn3+2 0.913290 0.706580 0.000000 1.093440
Zn15  Zn    Zn3+2 0.913290 0.293420 0.000000 1.111641
Zn16  Zn    Zn3+2 0.086710 0.706580 0.000000 1.079159
O1    O     O_3   0.500000 0.750040 0.500000 -0.564998
O2    O     O_3   0.500000 0.249960 0.500000 -0.560804
O3    O     O_3   1.000000 0.250040 0.000000 -0.573464
O4    O     O_3   1.000000 0.749960 0.000000 -0.557159
O5    O     O_R   0.585420 0.719700 0.353880 -0.556794
O6    O     O_R   0.414580 0.280300 0.646120 -0.566680
O7    O     O_R   0.414580 0.719700 0.646120 -0.564040
O8    O     O_R   0.585420 0.280300 0.353880 -0.563768
O9    O     O_R   0.585420 0.280300 0.646120 -0.590172
O10   O     O_R   0.414580 0.719700 0.353880 -0.587635
O11   O     O_R   0.414580 0.280300 0.353880 -0.599961
O12   O     O_R   0.585420 0.719700 0.646120 -0.608868
O13   O     O_R   0.085420 0.219700 0.853880 -0.573680
O14   O     O_R   0.914580 0.780300 0.146120 -0.548809
O15   O     O_R   0.914580 0.219700 0.146120 -0.561859
O16   O     O_R   0.085420 0.780300 0.853880 -0.622221
O17   O     O_R   0.085420 0.780300 0.146120 -0.593456
O18   O     O_R   0.914580 0.219700 0.853880 -0.555010
O19   O     O_R   0.914580 0.780300 0.853880 -0.582663
O20   O     O_R   0.085420 0.219700 0.146120 -0.550129
O21   O     O_R   0.646120 0.780390 0.585510 -0.623718
O22   O     O_R   0.353880 0.219610 0.414490 -0.605443
O23   O     O_R   0.353880 0.780390 0.414490 -0.628683
O24   O     O_R   0.646120 0.219610 0.585510 -0.617150
O25   O     O_R   0.646120 0.219610 0.414490 -0.633861
O26   O     O_R   0.353880 0.780390 0.585510 -0.626164
O27   O     O_R   0.353880 0.219610 0.585510 -0.631127
O28   O     O_R   0.646120 0.780390 0.414490 -0.616953
O29   O     O_R   0.146120 0.280390 0.085510 -0.660330
O30   O     O_R   0.853880 0.719610 0.914490 -0.627637
O31   O     O_R   0.853880 0.280390 0.914490 -0.634637
O32   O     O_R   0.146120 0.719610 0.085510 -0.627575
O33   O     O_R   0.146120 0.719610 0.914490 -0.612483
O34   O     O_R   0.853880 0.280390 0.085510 -0.618053
O35   O     O_R   0.853880 0.719610 0.085510 -0.643896
O36   O     O_R   0.146120 0.280390 0.914490 -0.614405
O37   O     O_R   0.560660 0.865840 0.500000 -0.580862
O38   O     O_R   0.439340 0.134160 0.500000 -0.604699
O39   O     O_R   0.439340 0.865840 0.500000 -0.595782
O40   O     O_R   0.560660 0.134160 0.500000 -0.596548
O41   O     O_R   0.060660 0.365840 0.000000 -0.576436
O42   O     O_R   0.939340 0.634160 0.000000 -0.609645
O43   O     O_R   0.939340 0.365840 0.000000 -0.582373
O44   O     O_R   0.060660 0.634160 0.000000 -0.605410
O45   O     O_R   0.500000 0.634240 0.439310 -0.606845
O46   O     O_R   0.500000 0.365760 0.560690 -0.601125
O47   O     O_R   0.500000 0.634240 0.560690 -0.584938
O48   O     O_R   0.500000 0.365760 0.439310 -0.579762
O49   O     O_R   0.000000 0.134240 0.939310 -0.615154
O50   O     O_R   1.000000 0.865760 0.060690 -0.615741
O51   O     O_R   0.000000 0.134240 0.060690 -0.593782
O52   O     O_R   0.000000 0.865760 0.939310 -0.651279
C1    C     C_R   0.641231 0.748014 0.360632 0.892983
C2    C     C_R   0.359791 0.250628 0.640061 0.980709
C3    C     C_R   0.361812 0.751590 0.641774 0.968062
C4    C     C_R   0.640417 0.250562 0.360241 0.968381
C5    C     C_R   0.639492 0.249747 0.640532 0.985569
C6    C     C_R   0.361312 0.750946 0.358829 0.953194
C7    C     C_R   0.360530 0.249695 0.359723 1.003278
C8    C     C_R   0.639247 0.750418 0.640336 0.955011
C9    C     C_R   0.140473 0.249168 0.860326 0.972961
C10   C     C_R   0.858969 0.752559 0.139349 0.933963
C11   C     C_R   0.859189 0.249074 0.139213 0.961605
C12   C     C_R   0.138659 0.748670 0.858396 0.959339
C13   C     C_R   0.139366 0.749611 0.140840 0.937590
C14   C     C_R   0.860366 0.250186 0.859551 0.958460
C15   C     C_R   0.860032 0.749990 0.859997 1.018612
C16   C     C_R   0.139835 0.250012 0.139986 0.900534
C17   C     C_R   0.499699 0.890080 0.500405 1.042177
C18   C     C_R   0.500219 0.110062 0.498589 1.032996
C19   C     C_R   0.999935 0.390178 0.000982 1.016972
C20   C     C_R   0.000180 0.610109 0.000199 1.004805
C21   C     C_R   0.497111 0.609618 0.499714 0.759692
C22   C     C_R   0.499159 0.389814 0.500327 0.945951
C23   C     C_R   0.000176 0.109341 0.999561 0.971083
C24   C     C_R   0.991257 0.889901 0.999651 0.863901
C25   C     C_R   0.590926 0.540193 0.404661 0.429853
C26   C     C_R   0.359385 0.452293 0.502055 0.434328
C27   C     C_R   0.384622 0.544968 0.580140 0.385228
C28   C     C_R   0.633092 0.454948 0.489704 0.446345
C29   C     C_R   0.941794 0.054068 0.869463 0.470454
C30   C     C_R   0.931762 0.958935 0.126200 0.495668
C31   C     C_R   0.032881 0.039778 0.129313 0.478239
C32   C     C_R   0.940557 0.948721 0.862692 0.388668
C33   C     C_R   0.662939 0.521894 0.401228 -0.074209
C34   C     C_R   0.300847 0.479360 0.534496 -0.005374
C35   C     C_R   0.314522 0.524026 0.577265 -0.069626
C36   C     C_R   0.685650 0.481400 0.448201 -0.004573
C37   C     C_R   0.953722 0.030283 0.801565 -0.009351
C38   C     C_R   0.951217 0.982170 0.193797 -0.067419
C39   C     C_R   0.006909 0.019566 0.195624 -0.034173
C40   C     C_R   0.953448 0.976170 0.797970 -0.051046
C41   C     C_R   0.560647 0.473598 0.487181 -0.107182
C42   C     C_R   0.437610 0.524530 0.532780 -0.084531
C43   C     C_R   0.430716 0.472506 0.511687 -0.135105
C44   C     C_R   0.549968 0.524159 0.464618 -0.123212
C45   C     C_R   0.959585 0.972565 0.930857 -0.076380
C46   C     C_R   0.000876 0.022724 0.062567 -0.138363
C47   C     C_R   0.969249 0.973936 0.062972 -0.148317
C48   C     C_R   0.964494 0.027186 0.933011 -0.116146
C49   C     C_R   0.496936 0.445358 0.500925 0.007818
C50   C     C_R   0.494365 0.552853 0.499144 0.004705
C51   C     C_R   0.969086 0.945255 0.997529 -0.005256
C52   C     C_R   0.991748 0.052451 0.997790 -0.032266
C53   C     C_R   0.235785 0.736670 0.676307 -0.046315
C54   C     C_R   0.722173 0.202986 0.276921 -0.068079
C55   C     C_R   0.764879 0.769194 0.321684 -0.026664
C56   C     C_R   0.285434 0.203600 0.729036 -0.073116
C57   C     C_R   0.233054 0.260454 0.323734 -0.051228
C58   C     C_R   0.754220 0.718056 0.687383 -0.051882
C59   C     C_R   0.766936 0.259223 0.676169 -0.049756
C60   C     C_R   0.234608 0.740462 0.323724 -0.065742
C61   C     C_R   0.775927 0.295926 0.220803 -0.074794
C62   C     C_R   0.265494 0.763209 0.823964 -0.057895
C63   C     C_R   0.216383 0.295600 0.773083 -0.090259
C64   C     C_R   0.735431 0.733594 0.178629 -0.025823
C65   C     C_R   0.742430 0.780136 0.814354 -0.010343
C66   C     C_R   0.267857 0.238969 0.176307 -0.033363
C67   C     C_R   0.266841 0.760612 0.176008 -0.048925
C68   C     C_R   0.732621 0.241144 0.824027 -0.040994
C69   C     C_R   0.722047 0.297983 0.274851 0.391226
C70   C     C_R   0.321765 0.764716 0.772141 0.326853
C71   C     C_R   0.270341 0.297623 0.719114 0.380823
C72   C     C_R   0.687641 0.722126 0.235074 0.358893
C73   C     C_R   0.688600 0.783125 0.759522 0.351015
C74   C     C_R   0.322710 0.237455 0.229718 0.425558
C75   C     C_R   0.322516 0.763943 0.229009 0.396363
C76   C     C_R   0.676921 0.239394 0.770910 0.369491
C77   C     C_R   0.179600 0.735268 0.727991 0.327692
C78   C     C_R   0.774223 0.201087 0.220805 0.379102
C79   C     C_R   0.813876 0.780913 0.265835 0.405483
C80   C     C_R   0.232693 0.201971 0.784585 0.383904
C81   C     C_R   0.177696 0.262466 0.270144 0.411343
C82   C     C_R   0.810447 0.717644 0.739840 0.366313
C83   C     C_R   0.822634 0.260862 0.729294 0.386159
C84   C     C_R   0.178087 0.740721 0.271631 0.384882
C85   C     C_R   0.696290 0.250875 0.303477 -0.201734
C86   C     C_R   0.305798 0.751353 0.698211 -0.157023
C87   C     C_R   0.304173 0.250977 0.697045 -0.193169
C88   C     C_R   0.698907 0.745033 0.305097 -0.223869
C89   C     C_R   0.694620 0.750900 0.697054 -0.188654
C90   C     C_R   0.304771 0.249066 0.303074 -0.249763
C91   C     C_R   0.305859 0.751440 0.302221 -0.206456
C92   C     C_R   0.695107 0.249282 0.697276 -0.227847
C93   C     C_R   0.195172 0.748877 0.801988 -0.177226
C94   C     C_R   0.802014 0.248208 0.194496 -0.206449
C95   C     C_R   0.801766 0.758078 0.194708 -0.211740
C96   C     C_R   0.197330 0.248381 0.804748 -0.199006
C97   C     C_R   0.195780 0.250615 0.196627 -0.238080
C98   C     C_R   0.804067 0.749263 0.803177 -0.192658
C99   C     C_R   0.804555 0.250706 0.802862 -0.174044
C100  C     C_R   0.195451 0.749796 0.197470 -0.198257
C101  C     C_R   0.491042 0.974666 0.565229 0.264188
C102  C     C_R   0.494622 0.026426 0.430232 0.274714
C103  C     C_R   0.504673 0.972198 0.430884 0.294302
C104  C     C_R   0.505253 0.027859 0.564947 0.305191
C105  C     C_R   0.966451 0.474632 0.059814 0.318599
C106  C     C_R   0.023493 0.526421 0.938700 0.287087
C107  C     C_R   0.035221 0.473202 0.944371 0.253416
C108  C     C_R   0.978099 0.528253 0.064654 0.263054
C109  C     C_R   0.500662 0.053895 0.497593 -0.375583
C110  C     C_R   0.498732 0.946407 0.498846 -0.381825
C111  C     C_R   0.000672 0.554072 0.001270 -0.361607
C112  C     C_R   0.000262 0.446741 0.001757 -0.377099
N1    N     N_3   0.258099 0.547853 0.619586 -0.354396
H1    H     H_    0.238197 0.520956 0.656563 0.263288
H2    H     H_    0.216073 0.558934 0.584234 0.193716
N2    N     N_3   0.760331 0.465983 0.451643 -0.323717
H3    H     H_    0.790965 0.497593 0.469333 0.200738
H4    H     H_    0.777510 0.455323 0.399270 0.246384
N3    N     N_3   0.711614 0.543816 0.349380 -0.326916
H5    H     H_    0.730206 0.514544 0.314470 0.261956
H6    H     H_    0.755983 0.559247 0.377876 0.191170
N4    N     N_3   0.228289 0.460353 0.526441 -0.315511
H7    H     H_    0.196483 0.488844 0.501678 0.208705
H8    H     H_    0.207224 0.452831 0.578155 0.249945
N5    N     N_3   0.036027 0.038155 0.264044 -0.337902
H9    H     H_    0.057527 0.006921 0.292878 0.208861
H10   H     H_    0.994057 0.054563 0.294633 0.219783
N6    N     N_3   0.954373 0.949631 0.728692 -0.416497
H11   H     H_    0.001905 0.959385 0.701433 0.195550
H12   H     H_    0.909914 0.961714 0.697266 0.240665
N7    N     N_3   0.954315 0.060879 0.736540 -0.349048
H13   H     H_    0.909754 0.050932 0.703665 0.226815
H14   H     H_    0.001720 0.052500 0.707732 0.207712
N8    N     N_3   0.916068 0.967034 0.259850 -0.304901
H15   H     H_    0.891941 0.999588 0.283612 0.220632
H16   H     H_    0.955009 0.952517 0.296232 0.212873
S1    S     S_3+6 0.541820 0.543265 0.320112 0.102283
O53   O     O_2   0.504763 0.594335 0.310027 -0.198243
O54   O     O_2   0.590858 0.532969 0.256163 -0.233409
O55   O     O_3   0.477774 0.497481 0.320728 -0.518863
H17   H     H_    0.453615 0.499665 0.272132 0.401626
S2    S     S_3+6 0.340353 0.403961 0.434085 0.053653
O56   O     O_2   0.353350 0.351260 0.464922 -0.343318
O57   O     O_2   0.263176 0.407256 0.407341 -0.256822
O58   O     O_3   0.394468 0.412414 0.361588 -0.505965
H18   H     H_    0.380174 0.385191 0.325939 0.390265
S3    S     S_3+6 0.411845 0.571425 0.665852 0.091625
O59   O     O_2   0.380153 0.624417 0.674054 -0.278205
O60   O     O_2   0.382630 0.538255 0.725839 -0.222456
O61   O     O_3   0.502687 0.573096 0.674581 -0.502453
H19   H     H_    0.511949 0.593475 0.719874 0.396706
S4    S     S_3+6 0.660735 0.410896 0.559194 0.055324
O62   O     O_2   0.651715 0.356312 0.532666 -0.341087
O63   O     O_2   0.738666 0.419083 0.580875 -0.242546
O64   O     O_3   0.609211 0.420506 0.633777 -0.517766
H20   H     H_    0.623225 0.392574 0.667812 0.395506
S5    S     S_3+6 0.861113 0.091723 0.873720 0.078307
O65   O     O_2   0.857826 0.128141 0.810246 -0.285419
O66   O     O_2   0.797801 0.055651 0.867698 -0.205992
O67   O     O_3   0.853887 0.124970 0.952782 -0.558355
H21   H     H_    0.808861 0.145510 0.947425 0.374106
S6    S     S_3+6 0.846063 0.928417 0.113995 0.098304
O68   O     O_2   0.855594 0.872287 0.096083 -0.294982
O69   O     O_2   0.799578 0.934067 0.180847 -0.209861
O70   O     O_3   0.803257 0.956740 0.043090 -0.491761
H22   H     H_    0.760467 0.934847 0.032699 0.406205
S7    S     S_3+6 0.118121 0.071279 0.130767 0.060175
O71   O     O_2   0.112684 0.119420 0.176715 -0.254519
O72   O     O_2   0.172955 0.035907 0.165545 -0.240847
O73   O     O_3   0.146348 0.085734 0.046017 -0.572060
H23   H     H_    0.189115 0.108099 0.053816 0.391984
S8    S     S_3+6 0.865824 0.905830 0.857211 0.078601
O74   O     O_2   0.857087 0.874281 0.925094 -0.315857
O75   O     O_2   0.798679 0.938126 0.847522 -0.191161
O76   O     O_3   0.872819 0.866964 0.783254 -0.505305
H24   H     H_    0.925179 0.859020 0.779003 0.374451
N9    N     N_3   0.224256 0.722135 0.601003 -0.430853
H25   H     H_    0.184711 0.746045 0.577824 0.228100
H26   H     H_    0.209627 0.683329 0.597929 0.258705
N10   N     N_3   0.692801 0.156668 0.306805 -0.368051
H27   H     H_    0.660349 0.138676 0.267084 0.290940
H28   H     H_    0.734977 0.132489 0.324029 0.261006
N11   N     N_3   0.783637 0.778011 0.397599 -0.395509
H29   H     H_    0.789159 0.817267 0.409039 0.275970
H30   H     H_    0.831313 0.758001 0.410318 0.234081
N12   N     N_3   0.322190 0.157788 0.704705 -0.361774
H31   H     H_    0.284117 0.129743 0.690000 0.266004
H32   H     H_    0.356208 0.144820 0.746766 0.293260
N13   N     N_3   0.218453 0.270194 0.399808 -0.371896
H33   H     H_    0.175815 0.246839 0.416648 0.255830
H34   H     H_    0.205638 0.309106 0.407066 0.299960
N14   N     N_3   0.756253 0.685541 0.623110 -0.450978
H35   H     H_    0.761763 0.647093 0.638702 0.258173
H36   H     H_    0.799822 0.696178 0.590493 0.241707
N15   N     N_3   0.781172 0.268367 0.600146 -0.379299
H37   H     H_    0.822964 0.244056 0.582447 0.257465
H38   H     H_    0.794871 0.307028 0.593533 0.291992
N16   N     N_3   0.221540 0.729397 0.399459 -0.424651
H39   H     H_    0.184515 0.756103 0.420708 0.257941
H40   H     H_    0.202282 0.691768 0.403768 0.252799
N17   N     N_3   0.807176 0.342054 0.192775 -0.334808
H41   H     H_    0.834773 0.361191 0.235133 0.259024
H42   H     H_    0.766347 0.364954 0.169753 0.287182
N18   N     N_3   0.277332 0.777098 0.899428 -0.433769
H43   H     H_    0.316772 0.752823 0.922016 0.238116
H44   H     H_    0.292594 0.815756 0.902986 0.252598
N19   N     N_3   0.178295 0.341020 0.795979 -0.313984
H45   H     H_    0.148100 0.355171 0.751757 0.279241
H46   H     H_    0.215676 0.368107 0.815441 0.302093
N20   N     N_3   0.714656 0.724740 0.103320 -0.386982
H47   H     H_    0.659407 0.732570 0.095986 0.242430
H48   H     H_    0.725938 0.686619 0.088604 0.286308
N21   N     N_3   0.734848 0.807109 0.883058 -0.380103
H49   H     H_    0.689821 0.792570 0.910211 0.226331
H50   H     H_    0.726891 0.846309 0.873609 0.301972
N22   N     N_3   0.285748 0.227947 0.101255 -0.323956
H51   H     H_    0.252825 0.198089 0.081565 0.200829
H52   H     H_    0.276816 0.260908 0.069946 0.230040
N23   N     N_3   0.280820 0.769693 0.099766 -0.423726
H53   H     H_    0.320430 0.743857 0.081422 0.249785
H54   H     H_    0.298378 0.807479 0.092876 0.256049
N24   N     N_3   0.718053 0.232958 0.900216 -0.413177
H55   H     H_    0.676432 0.257682 0.917175 0.268165
H56   H     H_    0.703536 0.194546 0.907539 0.261362
S9    S     S_3+6 0.687554 0.358801 0.307633 0.024913
O77   O     O_2   0.685322 0.357653 0.389748 -0.300902
O78   O     O_2   0.731850 0.404406 0.285699 -0.366976
O79   O     O_3   0.602940 0.367243 0.274568 -0.468321
H57   H     H_    0.582940 0.396664 0.303057 0.403327
S10   S     S_3+6 0.410166 0.787213 0.796428 0.083216
O80   O     O_2   0.465133 0.746007 0.779090 -0.256070
O81   O     O_2   0.425173 0.833369 0.750158 -0.178796
O82   O     O_3   0.421053 0.804994 0.884829 -0.522364
H58   H     H_    0.445784 0.775592 0.908838 0.383491
S11   S     S_3+6 0.293306 0.357148 0.675930 0.024001
O83   O     O_2   0.289375 0.348797 0.594550 -0.299408
O84   O     O_2   0.244117 0.401393 0.695266 -0.318311
O85   O     O_3   0.378343 0.373714 0.700017 -0.475668
H59   H     H_    0.391064 0.402177 0.666724 0.385982
S12   S     S_3+6 0.626537 0.669914 0.222529 0.097188
O86   O     O_2   0.636085 0.636070 0.288115 -0.238727
O87   O     O_2   0.549964 0.689743 0.218647 -0.187444
O88   O     O_3   0.642681 0.633792 0.147413 -0.542271
H60   H     H_    0.602916 0.608286 0.145573 0.421773
S13   S     S_3+6 0.618173 0.829865 0.768183 0.101912
O89   O     O_2   0.564503 0.826877 0.706053 -0.227159
O90   O     O_2   0.579154 0.822047 0.839180 -0.258526
O91   O     O_3   0.656062 0.888741 0.768759 -0.472395
H61   H     H_    0.624556 0.910356 0.800353 0.417092
S14   S     S_3+6 0.413351 0.221056 0.203808 0.078465
O92   O     O_2   0.452836 0.269945 0.186587 -0.255570
O93   O     O_2   0.452715 0.193804 0.264756 -0.292203
O94   O     O_3   0.413993 0.182295 0.129329 -0.492344
H62   H     H_    0.465879 0.178049 0.116966 0.398350
S15   S     S_3+6 0.409406 0.788021 0.202845 0.056223
O95   O     O_2   0.461579 0.793900 0.266059 -0.297678
O96   O     O_2   0.441895 0.752147 0.146808 -0.269489
O97   O     O_3   0.398027 0.846353 0.164909 -0.521572
H63   H     H_    0.446695 0.856046 0.147279 0.407545
S16   S     S_3+6 0.584911 0.226562 0.796158 0.036486
O98   O     O_2   0.547332 0.277344 0.808826 -0.252191
O99   O     O_2   0.545883 0.197831 0.735838 -0.315592
O100  O     O_3   0.578833 0.191324 0.872723 -0.541179
H64   H     H_    0.526312 0.189850 0.883339 0.408366
S17   S     S_3+6 0.091894 0.712285 0.703374 0.077004
O101  O     O_2   0.077608 0.666348 0.750311 -0.173904
O102  O     O_2   0.036902 0.753632 0.719906 -0.271893
O103  O     O_3   0.081209 0.693768 0.615238 -0.532431
H65   H     H_    0.056025 0.722798 0.590779 0.381052
S18   S     S_3+6 0.804973 0.140515 0.183731 0.035654
O104  O     O_2   0.815456 0.145194 0.102488 -0.291764
O105  O     O_2   0.876474 0.127346 0.219228 -0.287314
O106  O     O_3   0.747436 0.091506 0.197253 -0.535354
H66   H     H_    0.773937 0.060266 0.180641 0.416634
S19   S     S_3+6 0.877024 0.831503 0.289556 0.079647
O107  O     O_2   0.926502 0.850456 0.231075 -0.187935
O108  O     O_2   0.832391 0.876830 0.314827 -0.282047
O109  O     O_3   0.928304 0.812177 0.360906 -0.552155
H67   H     H_    0.945550 0.844339 0.384843 0.384542
S20   S     S_3+6 0.210141 0.142808 0.828845 0.027591
O110  O     O_2   0.197528 0.152707 0.909099 -0.337066
O111  O     O_2   0.141479 0.122455 0.794566 -0.276379
O112  O     O_3   0.274929 0.097291 0.821670 -0.545597
H68   H     H_    0.254090 0.066292 0.844568 0.404112
S21   S     S_3+6 0.086259 0.278941 0.294053 0.048667
O113  O     O_2   0.051668 0.310339 0.234224 -0.290910
O114  O     O_2   0.044417 0.229809 0.302396 -0.254489
O115  O     O_3   0.080461 0.313173 0.372538 -0.550458
H69   H     H_    0.027821 0.316881 0.381639 0.402252
S22   S     S_3+6 0.885089 0.675183 0.726972 0.082517
O116  O     O_2   0.917127 0.683106 0.652471 -0.269938
O117  O     O_2   0.942527 0.684394 0.783879 -0.213888
O118  O     O_3   0.855916 0.614092 0.733230 -0.519463
H70   H     H_    0.895541 0.592685 0.712632 0.405611
S23   S     S_3+6 0.914409 0.275059 0.704952 0.043594
O119  O     O_2   0.949663 0.307327 0.764058 -0.298498
O120  O     O_2   0.955119 0.224970 0.697874 -0.255977
O121  O     O_3   0.921125 0.307150 0.625660 -0.551481
H71   H     H_    0.973865 0.309876 0.616772 0.402587
S24   S     S_3+6 0.085767 0.735356 0.299369 0.056946
O122  O     O_2   0.056146 0.789263 0.302315 -0.231496
O123  O     O_2   0.042901 0.704639 0.244139 -0.295569
O124  O     O_3   0.074790 0.707953 0.381707 -0.564117
H72   H     H_    0.023261 0.714095 0.394076 0.405917
S25   S     S_3+6 0.457050 0.945400 0.646070 0.123352
O125  O     O_2   0.406439 0.901834 0.628276 -0.271685
O126  O     O_2   0.519790 0.925388 0.690380 -0.186211
O127  O     O_3   0.410720 0.988947 0.696290 -0.469757
H73   H     H_    0.400779 0.971506 0.743200 0.402006
S26   S     S_3+6 0.474041 0.060037 0.347018 0.113331
O128  O     O_2   0.427581 0.106658 0.361239 -0.281596
O129  O     O_2   0.543813 0.077032 0.313081 -0.261478
O130  O     O_3   0.428306 0.022263 0.287330 -0.431003
H74   H     H_    0.425718 0.042277 0.241389 0.407918
S27   S     S_3+6 0.521664 0.936237 0.348057 0.115640
O131  O     O_2   0.450734 0.915876 0.319052 -0.222891
O132  O     O_2   0.556108 0.969294 0.290978 -0.174814
O133  O     O_3   0.578060 0.886229 0.362410 -0.543962
H75   H     H_    0.577758 0.866393 0.315725 0.386294
S28   S     S_3+6 0.530786 0.062494 0.646726 0.117987
O134  O     O_2   0.469007 0.096847 0.669472 -0.273232
O135  O     O_2   0.550584 0.027375 0.708819 -0.174179
O136  O     O_3   0.603652 0.099095 0.629898 -0.531258
H76   H     H_    0.615792 0.115845 0.677498 0.402456
S29   S     S_3+6 0.907616 0.442411 0.121855 0.090561
O137  O     O_2   0.847572 0.417839 0.077901 -0.266481
O138  O     O_2   0.950240 0.401245 0.160789 -0.303344
O139  O     O_3   0.867876 0.480997 0.184301 -0.436571
H77   H     H_    0.844116 0.457442 0.218948 0.383146
S30   S     S_3+6 0.026949 0.557469 0.852446 0.124988
O140  O     O_2   0.972239 0.600215 0.851002 -0.254004
O141  O     O_2   0.101464 0.579228 0.841931 -0.222292
O142  O     O_3   0.006338 0.516297 0.783611 -0.462695
H78   H     H_    0.015308 0.535827 0.738199 0.391101
S31   S     S_3+6 0.094706 0.439785 0.882916 0.092835
O143  O     O_2   0.052303 0.398420 0.843733 -0.255277
O144  O     O_2   0.129711 0.473561 0.827124 -0.193410
O145  O     O_3   0.162212 0.412567 0.931826 -0.520677
H79   H     H_    0.188986 0.441915 0.954052 0.365732
S32   S     S_3+6 0.972123 0.562592 0.149751 0.121845
O146  O     O_2   0.896006 0.582368 0.159587 -0.242334
O147  O     O_2   0.991964 0.527985 0.212505 -0.165374
O148  O     O_3   0.029712 0.612665 0.152253 -0.519846
H80   H     H_    0.999125 0.643560 0.143888 0.347928

loop_
_geom_bond_atom_site_label_1
_geom_bond_atom_site_label_2
_geom_bond_distance
_ccdc_geom_bond_type
C104  C109  1.409234 A    
Zn6   O16   1.945642 S    
Zn7   O13   1.951778 S    
S7    O72   1.502970 D    
O64   H20   0.990678 S    
C82   S22   1.775232 S    
Zn5   O51   1.934053 S    
O34   C11   1.281371 A    
C42   C50   1.428146 A    
C46   C47   1.396561 A    
S11   O84   1.501373 D    
O82   H58   0.990715 S    
C5    C92   1.450791 S    
C6    C91   1.446941 S    
N22   H51   1.045619 S    
S31   O144  1.501426 D    
C24   C51   1.492418 S    
C107  S31   1.790660 S    
C38   C39   1.416401 A    
Zn5   O20   1.932650 S    
C26   C43   1.427511 A    
S5    O67   1.679217 S    
Zn6   O19   1.932652 S    
S22   O118  1.681732 S    
N15   H38   1.044074 S    
O23   C6    1.272685 A    
C42   C43   1.406243 A    
N12   H32   1.043954 S    
C108  C111  1.408670 A    
C27   C35   1.405296 A    
N18   H43   1.044584 S    
C67   C100  1.407376 A    
N23   H54   1.043134 S    
C103  C110  1.419519 A    
O97   H63   0.990617 S    
C76   C92   1.413156 A    
N5    H9    1.045078 S    
S12   O88   1.680530 S    
Zn4   O2    1.933981 S    
C70   C86   1.417702 A    
S1    O54   1.503406 D    
N7    H13   1.045002 S    
N9    H25   1.044543 S    
C74   C90   1.410408 A    
O11   C7    1.283354 A    
S24   O122  1.500089 D    
S21   O114  1.503120 D    
N10   H28   1.045204 S    
C14   C99   1.452629 S    
N1    H2    1.044941 S    
C15   C98   1.456277 S    
C73   S13   1.780155 S    
C53   C86   1.401841 A    
S15   O95   1.502279 D    
C22   C49   1.441686 S    
N15   H37   1.045193 S    
Zn16  O33   1.947039 S    
S25   O127  1.682628 S    
C25   C33   1.410278 A    
C57   C90   1.407959 A    
O103  H65   0.990836 S    
S17   O101  1.499835 D    
O91   H61   0.990506 S    
C80   C96   1.414068 A    
Zn12  O24   1.926229 S    
S3    O59   1.498419 D    
N12   H31   1.045205 S    
O16   C12   1.279540 A    
C78   C94   1.417595 A    
O40   C18   1.280758 A    
S11   O83   1.499003 D    
Zn16  O4    1.951560 S    
O85   H59   0.990914 S    
C66   C97   1.413916 A    
C69   C85   1.419368 A    
S6    O69   1.502359 D    
C57   C81   1.408345 A    
C72   C88   1.417523 A    
S2    O57   1.503060 D    
C73   C89   1.411628 A    
O79   H57   0.991020 S    
S32   O147  1.503090 D    
Zn7   O3    1.933983 S    
N17   H42   1.044790 S    
O130  H74   0.990629 S    
C53   C77   1.407898 A    
S10   O80   1.503499 D    
S27   O131  1.503223 D    
C62   C70   1.410886 A    
Zn6   O4    1.951455 S    
C20   C111  1.454467 S    
S29   O137  1.502318 D    
S17   O103  1.683416 S    
C103  S27   1.797095 S    
O49   C23   1.279969 A    
C28   C36   1.418813 A    
S14   O94   1.682542 S    
C35   N1    1.435383 S    
Zn7   O49   1.942846 S    
Zn3   O10   1.933683 S    
N6    H11   1.045033 S    
O42   C20   1.281562 A    
C64   N20   1.439236 S    
C28   C41   1.419637 A    
C30   C38   1.411415 A    
O33   C12   1.282709 A    
Zn10  O22   1.929644 S    
C83   S23   1.794663 S    
O35   C10   1.298874 A    
C65   C98   1.403051 A    
Zn13  O29   1.929643 S    
C77   C93   1.418937 A    
C63   C96   1.406945 A    
Zn10  O2    1.960155 S    
C83   C99   1.412900 A    
S20   O110  1.503539 D    
O52   C24   1.272214 A    
Zn3   O1    1.933983 S    
C54   C78   1.409813 A    
O43   C19   1.286287 A    
C64   C95   1.408639 A    
C25   C44   1.402066 A    
C48   C52   1.433884 A    
C37   N7    1.433544 S    
C61   C69   1.406424 A    
C26   C34   1.416197 A    
C68   C76   1.406442 A    
O94   H62   0.990630 S    
O37   C17   1.285941 A    
S26   O128  1.501191 D    
S24   O124  1.681836 S    
O124  H72   0.990659 S    
N4    H7    1.045172 S    
O112  H68   0.990616 S    
C31   C46   1.416171 A    
O142  H78   0.990609 S    
O44   C20   1.280890 A    
C55   N11   1.440520 S    
C78   S18   1.796587 S    
S13   O90   1.502847 D    
Zn13  O41   1.937557 S    
C102  C103  1.418651 A    
C82   C98   1.415899 A    
C31   S7    1.775387 S    
O32   C13   1.275220 A    
N13   H33   1.045209 S    
Zn16  O44   1.941903 S    
C106  C107  1.401499 A    
S14   O93   1.502879 D    
C59   C83   1.406421 A    
C30   S6    1.782607 S    
C60   C84   1.404322 A    
C59   N15   1.435558 S    
S28   O134  1.502398 D    
C70   S10   1.785253 S    
O70   H22   0.990531 S    
C71   S11   1.794661 S    
C84   S24   1.787180 S    
C9    C96   1.464910 S    
C67   C75   1.406460 A    
C10   C95   1.472368 S    
S8    O75   1.502281 D    
S4    O62   1.501919 D    
S12   O87   1.502312 D    
C108  S32   1.786188 S    
S29   O139  1.680207 S    
C8    C89   1.447241 S    
C32   C40   1.407005 A    
C1    C88   1.476627 S    
C2    C87   1.466703 S    
C74   S14   1.789791 S    
C81   C97   1.415132 A    
S3    O61   1.682514 S    
O38   C18   1.283126 A    
O50   C24   1.291036 A    
C3    C86   1.464916 S    
S20   O112  1.681389 S    
C66   N22   1.436603 S    
O41   C19   1.283509 A    
O5    C1    1.271972 A    
S15   O96   1.502571 D    
S9    O77   1.499073 D    
Zn4   O6    1.951780 S    
C71   C87   1.415875 A    
S23   O119  1.503810 D    
O47   C21   1.278055 A    
S22   O117  1.494975 D    
N16   H40   1.044517 S    
C72   S12   1.778269 S    
C26   S2    1.788755 S    
S18   O105  1.503416 D    
S19   O108  1.503682 D    
S23   O121  1.681387 S    
S30   O141  1.502933 D    
O8    C4    1.276877 A    
C58   C89   1.399273 A    
S16   O98   1.502957 D    
C107  C112  1.418583 A    
C68   C99   1.408954 A    
N21   H50   1.042818 S    
S2    O58   1.680351 S    
C47   C51   1.400527 A    
C43   C49   1.421406 A    
C75   S15   1.793185 S    
N22   H52   1.044539 S    
S27   O133  1.680396 S    
C29   C37   1.397042 A    
C68   N24   1.435534 S    
C58   C82   1.404812 A    
C30   C47   1.408719 A    
S28   O136  1.681552 S    
S8    O74   1.500982 D    
C54   C85   1.412051 A    
C32   S8    1.777308 S    
O9    C5    1.275408 A    
C34   C35   1.413330 A    
C63   C71   1.407465 A    
O13   C9    1.277972 A    
N18   H44   1.044455 S    
C56   C87   1.411572 A    
C60   N16   1.436088 S    
N20   H47   1.045923 S    
O18   C14   1.276513 A    
C33   N3    1.433159 S    
C59   C92   1.408661 A    
O6    C2    1.276766 A    
S4    O64   1.682195 S    
C60   C91   1.406083 A    
C29   S5    1.778383 S    
N19   H45   1.044650 S    
O48   C22   1.270878 A    
S19   O107  1.497912 D    
S24   O123  1.500536 D    
S21   O113  1.503742 D    
C41   C49   1.413398 A    
N11   H29   1.043151 S    
Zn14  O30   1.929644 S    
O58   H18   0.990548 S    
O127  H73   0.990595 S    
Zn15  O3    1.951561 S    
C56   C80   1.411816 A    
N8    H16   1.044939 S    
S9    O79   1.682340 S    
S25   O126  1.499293 D    
S1    O55   1.679577 S    
O76   H24   0.990194 S    
Zn4   O46   1.942846 S    
O24   C5    1.272722 A    
Zn11  O26   1.947038 S    
N24   H55   1.045230 S    
O121  H71   0.990626 S    
O67   H21   0.989380 S    
C16   C97   1.453667 S    
C101  S25   1.784837 S    
C19   C112  1.467767 S    
C45   C51   1.422281 A    
O55   H17   0.990443 S    
Zn1   O12   1.932650 S    
S7    O71   1.501075 D    
Zn2   O11   1.932652 S    
C40   N6    1.433357 S    
C76   S16   1.795939 S    
C55   C88   1.400880 A    
C53   N9    1.435003 S    
N17   H41   1.044317 S    
S10   O81   1.499902 D    
S16   O100  1.681225 S    
C84   C100  1.414823 A    
Zn4   O9    1.933681 S    
S11   O85   1.681892 S    
S17   O102  1.503381 D    
Zn14  O42   1.937557 S    
Zn13  O3    1.960154 S    
C102  C109  1.418200 A    
Zn14  O4    1.960155 S    
S31   O145  1.682014 S    
O139  H77   0.989811 S    
C56   N12   1.434437 S    
N8    H15   1.045197 S    
O19   C15   1.286277 A    
N14   H35   1.044291 S    
C105  C112  1.423646 A    
S1    O53   1.500437 D    
C18   C109  1.457444 S    
S10   O82   1.683260 S    
O39   C17   1.281261 A    
O100  H64   0.990623 S    
Zn12  O25   1.947039 S    
O7    C3    1.277048 A    
C66   C74   1.398940 A    
Zn13  O36   1.940093 S    
Zn14  O35   1.940092 S    
N14   H36   1.043833 S    
S20   O111  1.503252 D    
O28   C1    1.289250 A    
C29   C48   1.417442 A    
C7    C90   1.451382 S    
N6    H12   1.045012 S    
C36   N2    1.433685 S    
O21   C8    1.280126 A    
C33   C36   1.421338 A    
N9    H26   1.044613 S    
Zn7   O18   1.933683 S    
Zn9   O37   1.937557 S    
C11   C94   1.465840 S    
S26   O129  1.502848 D    
S18   O106  1.681608 S    
S21   O115  1.681341 S    
Zn11  O39   1.941903 S    
N10   H27   1.043824 S    
O73   H23   0.989999 S    
Zn11  O1    1.951561 S    
N4    H8    1.043680 S    
C4    C85   1.467344 S    
Zn15  O43   1.941903 S    
C27   C42   1.408548 A    
C75   C91   1.413797 A    
Zn5   O3    1.951454 S    
C64   C72   1.396299 A    
C31   C39   1.411302 A    
C65   C73   1.405372 A    
Zn8   O14   1.951780 S    
S26   O130  1.681842 S    
C77   S17   1.779228 S    
O133  H75   0.990697 S    
N3    H5    1.045075 S    
C106  S30   1.775957 S    
C28   S4    1.784246 S    
S13   O89   1.499724 D    
O26   C3    1.282090 A    
C34   N4    1.434378 S    
C13   C100  1.455326 S    
N2    H4    1.043420 S    
S8    O76   1.681965 S    
S6    O68   1.499594 D    
O30   C15   1.280536 A    
S32   O146  1.504259 D    
S28   O135  1.501803 D    
O148  H80   0.990402 S    
N7    H14   1.045031 S    
O145  H79   0.991107 S    
C79   C95   1.437048 A    
C46   C52   1.425355 A    
O88   H60   0.990397 S    
Zn8   O50   1.942846 S    
C57   N13   1.435453 S    
Zn2   O2    1.951455 S    
C27   S3    1.770815 S    
S31   O143  1.502644 D    
Zn15  O31   1.926230 S    
C25   S1    1.783634 S    
Zn16  O32   1.926229 S    
S4    O63   1.503024 D    
O61   H19   0.990543 S    
O136  H76   0.991428 S    
O106  H66   0.991045 S    
N2    H3    1.045124 S    
S29   O138  1.503405 D    
Zn8   O4    1.933981 S    
N19   H46   1.044473 S    
S3    O60   1.503595 D    
N11   H30   1.044611 S    
C104  S28   1.794402 S    
N1    H1    1.045185 S    
S6    O70   1.682367 S    
Zn15  O34   1.947038 S    
S5    O66   1.502705 D    
N23   H53   1.044380 S    
N5    H10   1.044932 S    
C45   C48   1.420861 A    
Zn6   O52   1.934053 S    
S23   O120  1.503129 D    
S30   O142  1.682786 S    
Zn1   O47   1.934053 S    
O51   C23   1.283216 A    
O45   C21   1.280374 A    
C79   S19   1.806061 S    
O22   C7    1.280630 A    
Zn3   O45   1.942846 S    
C37   C40   1.405149 A    
Zn2   O48   1.934053 S    
S16   O99   1.503215 D    
C41   C44   1.391406 A    
C17   C110  1.462229 S    
S13   O91   1.682931 S    
N21   H49   1.044581 S    
N13   H34   1.043441 S    
S27   O132  1.502309 D    
C63   N19   1.430104 S    
S14   O92   1.502958 D    
S7    O73   1.681605 S    
C38   N8    1.432135 S    
C62   N18   1.434437 S    
S32   O148  1.682203 S    
Zn9   O21   1.929643 S    
S5    O65   1.501938 D    
C21   C50   1.474070 S    
Zn11  O23   1.926230 S    
Zn12  O40   1.941903 S    
O25   C4    1.283540 A    
C62   C93   1.404985 A    
Zn9   O1    1.960154 S    
C55   C79   1.404099 A    
Zn1   O7    1.945644 S    
O27   C2    1.277946 A    
Zn2   O8    1.945642 S    
C101  C104  1.406279 A    
N20   H48   1.043037 S    
Zn3   O5    1.951778 S    
O29   C16   1.280509 A    
C67   N23   1.438235 S    
C101  C110  1.417285 A    
C39   N5    1.434310 S    
S12   O86   1.499263 D    
C54   N10   1.434916 S    
C105  C108  1.410734 A    
Zn9   O28   1.940093 S    
Zn10  O27   1.940092 S    
C23   C52   1.485171 S    
O31   C14   1.272313 A    
C32   C45   1.425167 A    
O15   C11   1.277936 A    
C81   S21   1.794528 S    
O118  H70   0.990461 S    
C58   N14   1.438389 S    
S15   O97   1.681782 S    
C69   S9    1.797885 S    
S9    O78   1.500665 D    
S25   O125  1.500810 D    
C44   C50   1.413587 A    
O109  H67   0.990671 S    
O20   C16   1.284418 A    
C65   N21   1.436971 S    
O46   C22   1.270607 A    
C105  S29   1.790348 S    
O115  H69   0.990602 S    
O10   C6    1.274281 A    
C61   C94   1.407915 A    
C80   S20   1.793626 S    
N24   H56   1.043424 S    
Zn8   O17   1.933681 S    
S2    O56   1.501075 D    
S22   O116  1.502750 D    
Zn10  O38   1.937557 S    
C12   C93   1.471102 S    
N3    H6    1.044891 S    
C61   N17   1.431677 S    
N16   H39   1.044991 S    
O14   C10   1.260427 A    
Zn1   O1    1.951454 S    
C102  S26   1.794408 S    
S18   O104  1.502038 D    
S19   O109  1.680963 S    
Zn12  O2    1.951560 S    
S30   O140  1.496405 D    
O17   C13   1.275338 A    
C106  C111  1.408633 A    
O36   C9    1.275441 A    
Zn5   O15   1.945644 S    
O12   C8    1.281872 A    
