data_mof_unit_20162.cif
_audit_creation_date              2012-12-10T17:03:43-0500
_audit_creation_method            fapswitch 2.2
_symmetry_space_group_name_H-M    P1
_symmetry_Int_Tables_number       1
_space_group_crystal_system       triclinic
_cell_length_a                    10.029729
_cell_length_b                    10.71341
_cell_length_c                    13.113628
_cell_angle_alpha                 90.160737
_cell_angle_beta                  71.692482
_cell_angle_gamma                 90.002805
_cell_volume                      1337.76533959

loop_
_atom_site_label
_atom_site_type_symbol
_atom_type_description
_atom_site_fract_x
_atom_site_fract_y
_atom_site_fract_z
_atom_type_partial_charge
C1    C     C_R   0.497348 0.737315 0.507395 0.943621
C2    C     C_R   0.446634 0.592745 0.974773 0.089200
C3    C     C_R   0.487724 0.595936 0.861865 0.028951
C4    C     C_R   0.551932 0.571272 0.023936 0.098123
C5    C     C_R   0.695513 0.571538 0.960930 0.099229
C6    C     C_R   0.733156 0.603436 0.852977 -0.178348
C7    C     C_R   0.630214 0.618870 0.804581 -0.136360
C8    C     C_R   0.518273 0.542048 0.132384 -0.307006
C9    C     C_R   0.764582 0.509987 0.114666 0.382325
C10   C     C_R   0.384716 0.577404 0.810175 -0.204313
C11   C     C_2   0.576343 0.070984 0.553505 -0.174993
C12   C     C_R   0.425455 0.525500 0.699890 0.904017
C13   C     C_2   0.500911 0.130471 0.500912 -0.379770
C14   C     C_2   0.588105 0.936303 0.550177 0.435066
C15   C     C_2   0.487120 0.868326 0.529004 -0.406564
C16   C     C_2   0.101860 0.432861 0.434431 -0.115153
C17   C     C_2   0.949969 0.427057 0.439168 -0.054813
C18   C     C_R   0.499971 0.262619 0.500242 0.964279
C19   C     C_R   0.577063 0.499929 0.295828 0.908196
C20   C     C_R   0.799544 0.539222 0.006310 -0.211223
C21   C     C_R   0.622560 0.514814 0.179159 -0.142385
C22   C     C_R   0.244135 0.606879 0.867271 0.376907
C23   C     C_R   0.204741 0.625023 0.978047 -0.124389
C24   C     C_R   0.302785 0.610569 0.032504 -0.222348
H1    H     H_    0.441826 0.084153 0.455412 0.153588
H2    H     H_    0.388242 0.910001 0.529846 0.152017
H3    H     H_    0.077492 0.546839 0.559969 0.198706
H4    H     H_    0.921640 0.359767 0.387566 0.196230
H5    H     H_    0.842005 0.612983 0.804834 0.208923
H6    H     H_    0.908105 0.533754 0.957221 0.214326
H7    H     H_    0.409926 0.537701 0.181518 0.184885
H8    H     H_    0.264730 0.621912 0.118596 0.171191
H9    H     H_    0.097332 0.649070 0.022474 0.203559
H10   H     H_    0.663965 0.649537 0.722027 0.209144
H11   H     H_    0.637354 0.122698 0.594923 0.202408
N1    N     N_2   0.148270 0.498670 0.498870 -0.179550
N2    N     N_2   0.852610 0.498640 0.498840 -0.186626
O1    O     O_R   0.386950 0.680940 0.500020 -0.601890
O2    O     O_R   0.613110 0.680900 0.499980 -0.564578
O3    O     O_R   0.330780 0.500000 0.653640 -0.549693
O4    O     O_R   0.556930 0.499960 0.653610 -0.636988
O5    O     O_R   0.386890 0.319100 0.500020 -0.606315
O6    O     O_R   0.613050 0.319060 0.499980 -0.606040
O7    O     O_R   0.443070 0.500040 0.346390 -0.633427
O8    O     O_R   0.669220 0.500000 0.346360 -0.551579
Zn1   Zn    Zn3+2 0.349000 0.500030 0.500020 1.002276
Zn2   Zn    Zn3+2 0.651000 0.499970 0.499980 1.009633
Cl1   Cl    Cl    0.902511 0.464061 0.163033 -0.641060
Cl2   Cl    Cl    0.739016 0.874151 0.574029 -0.608119
H12   H     H_    0.176120 0.376183 0.374096 0.170284
H13   H     H_    0.880008 0.567110 0.543345 0.186033
Cl3   Cl    Cl    0.119831 0.639008 0.801518 -0.669589

loop_
_geom_bond_atom_site_label_1
_geom_bond_atom_site_label_2
_ccdc_geom_bond_type
C12   O3    A    
C2    C4    A    
C23   C24   A    
C24   H8    S    
N1    Zn1   S    
C6    C7    A    
C1    C15   S    
H3    N1    S    
N2    Zn2   S    
C9    C20   A    
C4    C8    A    
C9    C21   A    
C11   H11   S    
C2    C3    A    
O4    Zn2   S    
C3    C10   A    
C17   N2    D    
C18   O6    A    
C16   N1    D    
O3    Zn1   S    
C11   C13   D    
C13   H1    S    
C12   O4    A    
C10   C12   S    
C13   C18   S    
C1    O1    A    
O2    Zn2   S    
C19   C21   S    
O7    Zn1   S    
C8    C21   A    
C3    C7    A    
C18   O5    A    
C2    C24   A    
C5    C6    A    
N2    H13   S    
C7    H10   S    
O1    Zn1   S    
C14   Cl2   S    
C1    O2    A    
C19   O8    A    
C6    H5    S    
C19   O7    A    
C9    Cl1   S    
C22   Cl3   S    
O5    Zn1   S    
O8    Zn2   S    
C11   C14   S    
C5    C20   A    
C14   C15   D    
C16   C17   S    
C15   H2    S    
C20   H6    S    
C22   C23   A    
C17   H4    S    
O6    Zn2   S    
C10   C22   A    
C8    H7    S    
C16   H12   S    
C4    C5    A    
C23   H9    S    
