data_mof_unit_46193.cif
_audit_creation_date              2012-12-10T18:42:33-0500
_audit_creation_method            fapswitch 2.2
_symmetry_space_group_name_H-M    P1
_symmetry_Int_Tables_number       1
_space_group_crystal_system       triclinic
_cell_length_a                    8.589023
_cell_length_b                    10.654967
_cell_length_c                    9.857141
_cell_angle_alpha                 90.308183
_cell_angle_beta                  98.664844
_cell_angle_gamma                 89.911356
_cell_volume                      891.774647541

loop_
_atom_site_label
_atom_site_type_symbol
_atom_type_description
_atom_site_fract_x
_atom_site_fract_y
_atom_site_fract_z
_atom_type_partial_charge
C1    C     C_R   0.505555 0.260301 0.500281 0.919750
C2    C     C_R   0.614684 0.061098 0.596806 -0.024003
C3    C     C_R   0.490116 0.872249 0.500648 -0.111683
C4    C     C_R   0.509884 0.127751 0.499352 -0.111684
C5    C     C_R   0.597622 0.578068 0.085115 -0.054295
C6    C     C_R   0.402378 0.421932 0.914885 -0.054295
C7    C     C_R   0.597569 0.578043 0.941325 -0.049597
C8    C     C_R   0.402430 0.421957 0.058675 -0.049597
C9    C     C_2   0.257283 0.879131 0.305622 0.915504
C10   C     C_2   0.742717 0.120869 0.694377 0.915504
C11   C     C_R   0.494445 0.739699 0.499719 0.919751
C12   C     C_R   0.201122 0.499621 0.464082 1.007447
C13   C     C_R   0.798878 0.500379 0.535918 1.007447
C14   C     C_2   0.035967 0.499961 0.444773 -0.339711
C15   C     C_2   0.964033 0.500039 0.555226 -0.339711
C16   C     C_R   0.398618 0.067784 0.402962 -0.231389
C17   C     C_R   0.601382 0.932216 0.597038 -0.231389
C18   C     C_R   0.385315 0.938902 0.403194 -0.024003
H1    H     H_    0.974041 0.500387 0.340008 0.181119
H2    H     H_    0.885699 0.111158 0.876387 0.350769
H3    H     H_    0.025959 0.499613 0.659992 0.181119
H4    H     H_    0.317503 0.122655 0.331499 0.181787
H5    H     H_    0.682497 0.877345 0.668501 0.181787
H6    H     H_    0.675758 0.640513 0.150071 0.139508
H7    H     H_    0.324242 0.359487 0.849929 0.139508
H8    H     H_    0.675613 0.640498 0.897509 0.135410
H9    H     H_    0.324387 0.359501 0.102491 0.135410
H10   H     H_    0.114301 0.888842 0.123613 0.350769
N1    N     N_R   0.499960 0.499970 0.857200 -0.087779
N2    N     N_R   0.500040 0.500030 0.142800 -0.087779
O1    O     O_R   0.499990 0.316750 0.614620 -0.609182
O2    O     O_R   0.202588 0.937391 0.180632 -0.803962
O3    O     O_2   0.803850 0.218399 0.664421 -0.642068
O4    O     O_R   0.797412 0.062609 0.819368 -0.803962
O5    O     O_R   0.500010 0.683250 0.385380 -0.609182
O6    O     O_R   0.499990 0.316780 0.385290 -0.625766
O7    O     O_R   0.500010 0.683220 0.614710 -0.625766
O8    O     O_R   0.271750 0.499990 0.587840 -0.627557
O9    O     O_R   0.728250 0.500010 0.412160 -0.627557
O10   O     O_R   0.271750 0.500010 0.358510 -0.606276
O11   O     O_R   0.728250 0.499990 0.641490 -0.606277
O12   O     O_2   0.196150 0.781600 0.335578 -0.642068
Zn1   Zn    Zn3+2 0.500000 0.499980 0.653120 0.981976
Zn2   Zn    Zn3+2 0.500000 0.500020 0.346880 0.981975

loop_
_geom_bond_atom_site_label_1
_geom_bond_atom_site_label_2
_ccdc_geom_bond_type
C4    C16   A    
C2    C4    A    
O7    Zn1   S    
O9    Zn2   S    
C7    N1    A    
H10   O2    S    
C1    C4    S    
H2    O4    S    
C5    H6    S    
C8    N2    A    
O8    Zn1   S    
C10   O4    S    
N1    Zn1   S    
C2    C17   A    
O5    Zn2   S    
O11   Zn1   S    
N2    Zn2   S    
C9    O12   D    
C17   H5    S    
C7    H8    S    
O1    Zn1   S    
C13   O11   A    
C12   C14   S    
C3    C17   A    
C10   O3    D    
C5    C7    A    
C13   C15   S    
C1    O1    A    
C12   O8    A    
C11   O5    A    
C15   H3    S    
C13   O9    A    
C6    H7    S    
O6    Zn2   S    
C2    C10   S    
C9    C18   S    
O10   Zn2   S    
C6    N1    A    
C3    C11   S    
C3    C18   A    
C16   C18   A    
C5    N2    A    
C11   O7    A    
C8    H9    S    
C14   C15   D    
C6    C8    A    
C12   O10   A    
C9    O2    S    
C14   H1    S    
C1    O6    A    
C16   H4    S    
