data_mof_unit_42634.cif
_audit_creation_date              2012-12-11T14:56:33-0500
_audit_creation_method            fapswitch 2.2
_symmetry_space_group_name_H-M    P1
_symmetry_Int_Tables_number       1
_space_group_crystal_system       triclinic
_cell_length_a                    10.582944
_cell_length_b                    10.689042
_cell_length_c                    17.070245
_cell_angle_alpha                 80.397612
_cell_angle_beta                  90.099428
_cell_angle_gamma                 119.561636
_cell_volume                      1648.78761595

loop_
_atom_site_label
_atom_site_type_symbol
_atom_type_description
_atom_site_fract_x
_atom_site_fract_y
_atom_site_fract_z
_atom_type_partial_charge
C1    C     C_R   0.277319 0.887990 0.132948 0.539892
C2    C     C_R   0.712058 0.258944 0.301209 -0.135367
C3    C     C_R   0.714982 0.248848 0.222180 -0.134318
C4    C     C_R   0.639900 0.298756 0.169887 0.034656
C5    C     C_1   0.635415 0.871756 0.211308 -0.047701
C6    C     C_1   0.661565 0.855610 0.279123 -0.044616
C7    C     C_1   0.225994 0.853234 0.215586 -0.036030
C8    C     C_1   0.177753 0.834172 0.283096 -0.030535
C9    C     C_1   0.656238 0.350253 0.779963 -0.054513
C10   C     C_1   0.679035 0.393778 0.709613 -0.007365
C11   C     C_R   0.573989 0.684045 0.806704 0.232262
C12   C     C_R   0.634083 0.271315 0.090019 0.530773
C13   C     C_R   0.590113 0.657835 0.731718 0.241639
C14   C     C_R   0.710081 0.763189 0.679340 -0.067282
C15   C     C_R   0.830363 0.874756 0.708311 -0.181778
C16   C     C_R   0.818690 0.898855 0.785603 0.198627
C17   C     C_R   0.683474 0.815841 0.830768 0.002901
C18   C     C_R   0.239917 0.975171 0.757519 -0.119594
C19   C     C_R   0.228302 0.963487 0.678688 -0.182660
C20   C     C_R   0.174988 0.826172 0.657542 0.042510
C21   C     C_R   0.155906 0.704910 0.714247 0.243929
C22   C     C_R   0.179543 0.721761 0.793250 -0.123676
C23   C     C_R   0.601732 0.881922 0.131023 0.538858
C24   C     C_R   0.208330 0.851944 0.815391 0.003925
C25   C     C_R   0.683221 0.813200 0.358657 0.559574
C26   C     C_R   0.681934 0.385687 0.399024 0.557194
C27   C     C_R   0.107763 0.812429 0.359894 0.555660
C28   C     C_R   0.707061 0.754967 0.595015 0.579948
C29   C     C_R   0.715159 0.442417 0.626466 0.556282
C30   C     C_R   0.104041 0.804332 0.584439 0.548045
C31   C     C_R   0.232921 0.869353 0.896380 0.580904
C32   C     C_R   0.638710 0.287787 0.861504 0.528168
C33   C     C_R   0.645774 0.861618 0.900213 0.588808
C34   C     C_R   0.553356 0.349468 0.198373 -0.127593
C35   C     C_R   0.552871 0.362633 0.277733 -0.122843
C36   C     C_R   0.638370 0.323938 0.328146 0.025545
Cr1   Cr    Cr6+3 0.402240 0.783890 0.019450 1.039152
Cr2   Cr    Cr6+3 0.382360 0.097900 0.991800 1.000141
Cr3   Cr    Cr6+3 0.715380 0.118170 0.988700 1.021365
Cr4   Cr    Cr6+3 0.936650 0.882420 0.465510 1.014056
Cr5   Cr    Cr6+3 0.605770 0.565620 0.493360 1.028007
Cr6   Cr    Cr6+3 0.921340 0.550490 0.496380 1.043499
H1    H     H_    0.776188 0.225925 0.339738 0.139692
H2    H     H_    0.932061 0.943208 0.670948 0.162235
H3    H     H_    0.274218 0.081044 0.772913 0.161876
O1    O     O_R   0.521780 0.757110 0.108900 -0.509851
O2    O     O_R   0.513330 0.228330 0.898660 -0.523409
O3    O     O_R   0.739230 0.266130 0.888050 -0.531004
O4    O     O_R   0.712580 0.991850 0.918770 -0.477335
O5    O     O_3   0.499990 0.999980 0.999980 -0.296780
O6    O     O_R   0.083770 0.911170 0.376030 -0.502074
O7    O     O_R   0.808770 0.880340 0.383890 -0.487910
O8    O     O_R   0.584340 0.689460 0.394160 -0.510600
O9    O     O_R   0.614320 0.443940 0.423590 -0.505905
O10   O     O_R   0.805020 0.410040 0.421340 -0.509707
O11   O     O_R   0.049240 0.685450 0.403290 -0.491573
O12   O     O_R   0.275160 0.783810 0.101120 -0.496998
O13   O     O_R   0.077520 0.903010 0.551800 -0.554703
O14   O     O_R   0.802980 0.872780 0.546830 -0.511533
O15   O     O_R   0.578090 0.681300 0.569920 -0.489177
O16   O     O_R   0.608530 0.436370 0.586530 -0.482537
O17   O     O_R   0.798770 0.401880 0.597100 -0.512103
O18   O     O_R   0.043450 0.677890 0.566230 -0.458536
O19   O     O_3   0.821250 0.666180 0.485090 -0.302968
O20   O     O_R   0.237900 0.972600 0.090980 -0.487734
O21   O     O_R   0.511190 0.220540 0.061620 -0.529648
O22   O     O_R   0.736920 0.257720 0.063840 -0.520767
O23   O     O_R   0.710450 0.984050 0.081720 -0.487164
O24   O     O_R   0.524090 0.765520 0.933110 -0.468338
O25   O     O_R   0.277300 0.791600 0.938160 -0.495368
O26   O     O_R   0.240210 0.981010 0.915190 -0.494943
H4    H     H_    0.489895 0.382018 0.159031 0.132657
H5    H     H_    0.247959 0.059258 0.635422 0.147138
O27   O     O_3   0.112127 0.572224 0.690830 -0.585420
C37   C     C_3   0.005993 0.454124 0.747087 -0.124939
H6    H     H_    0.937850 0.364163 0.715525 0.158430
H7    H     H_    0.934059 0.483563 0.776853 0.131244
H8    H     H_    0.058629 0.415553 0.793493 0.093167
H9    H     H_    0.170034 0.632134 0.837968 0.148437
H10   H     H_    0.494464 0.412627 0.297856 0.146931
H11   H     H_    0.775909 0.201215 0.202197 0.142389
O28   O     O_3   0.440549 0.590735 0.850954 -0.565638
C38   C     C_3   0.442778 0.469106 0.895987 -0.056460
H12   H     H_    0.550225 0.496998 0.919387 0.118836
H13   H     H_    0.409309 0.383296 0.859444 0.164015
H14   H     H_    0.360432 0.423216 0.948233 0.122701
O29   O     O_3   0.493879 0.524694 0.710719 -0.575868
C39   C     C_3   0.357980 0.514384 0.697347 -0.018975
H15   H     H_    0.367153 0.622689 0.674396 0.179371
H16   H     H_    0.283269 0.458271 0.752574 0.147008
H17   H     H_    0.308755 0.445262 0.651851 0.135565
O30   O     O_3   0.941103 0.985583 0.821244 -0.543233
C40   C     C_3   0.993212 0.133078 0.787404 -0.107504
H18   H     H_    0.085967 0.201287 0.819908 0.129960
H19   H     H_    0.906535 0.161025 0.794935 0.135291
H20   H     H_    0.034333 0.159072 0.723545 0.099314

loop_
_geom_bond_atom_site_label_1
_geom_bond_atom_site_label_2
_ccdc_geom_bond_type
O29   C39   S    
C40   H18   S    
Cr1   O24   S    
Cr3   O23   S    
C19   C20   A    
Cr5   O16   S    
C26   O10   A    
C7    C8    T    
C20   C30   S    
C18   C24   A    
C25   O8    A    
C22   H9    S    
C18   C19   A    
C5    C6    T    
C6    C25   S    
C33   O4    A    
C15   C16   A    
C35   H10   S    
C34   C35   A    
C9    C32   S    
Cr6   O11   S    
C29   O17   A    
C31   O25   A    
Cr2   O21   S    
C16   C17   A    
C3    H11   S    
C1    O20   A    
Cr2   O20   S    
C13   C14   A    
C4    C12   S    
C9    C10   T    
Cr6   O17   S    
C33   O24   A    
C31   O26   A    
C40   H19   S    
Cr4   O14   S    
C21   C22   A    
C32   O3    A    
C17   C33   S    
C26   O9    A    
C27   O6    A    
C4    C34   A    
C28   O15   A    
C11   O28   S    
C12   O22   A    
C29   O16   A    
Cr4   O13   S    
O27   C37   S    
C19   H5    S    
C27   O11   A    
Cr4   O7    S    
C12   O21   A    
C21   O27   S    
C35   C36   A    
C23   O23   A    
C37   H6    S    
C1    O12   A    
Cr6   O10   S    
C38   H12   S    
C5    C23   S    
C39   H17   S    
C2    H1    S    
C13   O29   S    
C39   H15   S    
C37   H7    S    
Cr5   O8    S    
Cr2   O2    S    
C26   C36   S    
C38   H13   S    
C39   H16   S    
C16   O30   S    
C40   H20   S    
C32   O2    A    
C22   C24   A    
C3    C4    A    
C18   H3    S    
Cr6   O19   S    
C28   O14   A    
C2    C36   A    
Cr2   O26   S    
C11   C17   A    
Cr3   O4    S    
C1    C7    S    
Cr3   O22   S    
Cr5   O15   S    
C15   H2    S    
Cr2   O5    S    
Cr4   O6    S    
Cr4   O19   S    
C2    C3    A    
C24   C31   S    
Cr3   O5    S    
Cr1   O5    S    
C11   C13   A    
C10   C29   S    
C30   O13   A    
C30   O18   A    
O30   C40   S    
C37   H8    S    
Cr5   O9    S    
C25   O7    A    
C34   H4    S    
C38   H14   S    
C20   C21   A    
O28   C38   S    
C23   O1    A    
C8    C27   S    
C14   C15   A    
Cr5   O19   S    
C14   C28   S    
Cr1   O1    S    
Cr1   O25   S    
Cr6   O18   S    
Cr1   O12   S    
Cr3   O3    S    
