data_mof_unit_29244.cif
_audit_creation_date              2012-12-10T18:11:08-0500
_audit_creation_method            fapswitch 2.2
_symmetry_space_group_name_H-M    P1
_symmetry_Int_Tables_number       1
_space_group_crystal_system       triclinic
_cell_length_a                    10.768963
_cell_length_b                    9.506947
_cell_length_c                    10.641087
_cell_angle_alpha                 89.964307
_cell_angle_beta                  87.473903
_cell_angle_gamma                 90.054442
_cell_volume                      1088.37467698

loop_
_atom_site_label
_atom_site_type_symbol
_atom_type_description
_atom_site_fract_x
_atom_site_fract_y
_atom_site_fract_z
_atom_type_partial_charge
C1    C     C_R   0.259702 0.499911 0.499327 0.795634
C2    C     C_3   0.503165 0.499978 0.122762 -0.043254
C3    C     C_3   0.068032 0.645214 0.538206 -0.348734
C4    C     C_3   0.065553 0.389690 0.590448 -0.363172
C5    C     C_3   0.926724 0.649005 0.528892 -0.368094
C6    C     C_3   0.922898 0.394850 0.596144 -0.395208
C7    C     C_3   0.075966 0.465703 0.358498 -0.001813
C8    C     C_3   0.120861 0.499481 0.494926 -0.019026
C9    C     C_3   0.877013 0.500537 0.497693 0.109020
C10   C     C_3   0.929782 0.457231 0.365448 -0.382429
C11   C     C_3   0.623267 0.083369 0.461987 -0.266381
C12   C     C_3   0.623301 0.916902 0.462112 -0.260567
C13   C     C_3   0.468651 0.083717 0.630946 0.144684
C14   C     C_3   0.468603 0.916080 0.630931 0.151565
C15   C     C_3   0.408974 0.083104 0.416368 -0.176081
C16   C     C_3   0.409111 0.916852 0.416219 -0.201502
C17   C     C_R   0.502062 0.500006 0.259604 0.807374
C18   C     C_R   0.739494 0.500205 0.499776 0.758709
C19   C     C_R   0.499523 0.500086 0.740607 0.854162
C20   C     C_3   0.441155 0.614157 0.045749 -0.169540
C21   C     C_3   0.445670 0.383101 0.045104 -0.119186
C22   C     C_3   0.383865 0.497342 0.966259 0.238874
C23   C     C_3   0.499824 0.500630 0.877730 -0.040734
C24   C     C_3   0.557902 0.617484 0.955729 -0.165014
C25   C     C_3   0.562519 0.386699 0.955186 -0.208045
C26   C     C_3   0.620207 0.503472 0.035421 -0.172823
Cu1   Cu    Cu3+1 0.499860 0.642410 0.500060 0.930168
Cu2   Cu    Cu3+1 0.499860 0.357590 0.500060 0.940499
H1    H     H_    0.886854 0.523391 0.293027 0.191443
H2    H     H_    0.896987 0.348576 0.345624 0.134116
H3    H     H_    0.695711 0.120410 0.525507 0.148653
H4    H     H_    0.695632 0.880035 0.525829 0.148290
H5    H     H_    0.651125 0.122708 0.366343 0.165934
H6    H     H_    0.651338 0.877586 0.366572 0.170786
H7    H     H_    0.541729 0.117506 0.695330 0.094824
H8    H     H_    0.541619 0.882330 0.695372 0.092643
H9    H     H_    0.313815 0.120751 0.442589 0.175648
H10   H     H_    0.313956 0.878726 0.442034 0.171608
H11   H     H_    0.429587 0.121380 0.318925 0.165938
H12   H     H_    0.430073 0.879021 0.318748 0.152767
H13   H     H_    0.391409 0.707643 0.085011 0.159561
H14   H     H_    0.401521 0.285343 0.082494 0.198328
H15   H     H_    0.603594 0.713753 0.916720 0.149533
H16   H     H_    0.612112 0.293275 0.915630 0.151956
H17   H     H_    0.717075 0.505885 0.067028 0.151927
H18   H     H_    0.109812 0.733048 0.481615 0.184965
H19   H     H_    0.096142 0.281656 0.565185 0.186011
H20   H     H_    0.089953 0.663512 0.637830 0.221696
H21   H     H_    0.099058 0.411204 0.685382 0.225578
H22   H     H_    0.883554 0.687273 0.619568 0.167704
H23   H     H_    0.888336 0.426633 0.692125 0.178825
H24   H     H_    0.902225 0.725044 0.454296 0.192374
H25   H     H_    0.886400 0.287448 0.578370 0.171328
N1    N     N_3   0.500250 0.143650 0.502780 -0.154558
N2    N     N_3   0.500250 0.856350 0.502780 -0.150035
O1    O     O_R   0.317570 0.620260 0.500070 -0.578047
O2    O     O_R   0.317570 0.379740 0.500070 -0.560223
O3    O     O_R   0.499850 0.620240 0.316900 -0.600632
O4    O     O_R   0.499850 0.379760 0.316900 -0.581666
O5    O     O_R   0.682190 0.620260 0.500030 -0.601142
O6    O     O_R   0.682190 0.379740 0.500030 -0.603045
O7    O     O_R   0.499910 0.620280 0.683200 -0.569234
O8    O     O_R   0.499910 0.379720 0.683200 -0.569242
I1    I     I_    0.191351 0.498659 0.927754 -0.308591
I2    I     I_    0.301027 0.175385 0.721900 -0.349206
I3    I     I_    0.300948 0.824022 0.721776 -0.347963
C27   C     C_2   0.124196 0.580631 0.267853 0.452207
H26   H     H_    0.223649 0.591680 0.249257 0.069293
O9    O     O_2   0.054968 0.662382 0.216757 -0.552754
C28   C     C_2   0.125817 0.323714 0.312121 0.309185
H27   H     H_    0.094624 0.227647 0.358673 0.078613
O10   O     O_2   0.199355 0.313868 0.221927 -0.564487

loop_
_geom_bond_atom_site_label_1
_geom_bond_atom_site_label_2
_ccdc_geom_bond_type
C7    C10   S    
C1    C8    S    
C4    C8    S    
C6    C9    S    
C20   H13   S    
C7    C8    S    
C13   I2    S    
Cu2   O2    S    
C1    O1    A    
C24   C26   S    
C13   H7    S    
Cu1   O5    S    
C14   H8    S    
Cu1   N2    S    
C19   O7    A    
C15   C16   S    
C3    H20   S    
C15   H9    S    
C26   H17   S    
C20   C24   S    
C19   O8    A    
C23   C24   S    
C5    H24   S    
C28   H27   S    
C6    H23   S    
C9    C10   S    
C17   O3    A    
Cu2   O6    S    
C14   N2    S    
C11   H3    S    
C13   C14   S    
C12   H4    S    
C2    C17   S    
C7    C28   S    
C25   H16   S    
C2    C20   S    
C27   H26   S    
C15   N1    S    
C11   H5    S    
C4    C6    S    
C3    C8    S    
Cu2   N1    S    
Cu1   O1    S    
C25   C26   S    
C22   I1    S    
C27   O9    D    
C19   C23   S    
C5    C9    S    
Cu1   O7    S    
C1    O2    A    
C10   H2    S    
C2    C21   S    
C14   I3    S    
C2    C26   S    
C15   H11   S    
C11   N1    S    
C16   H12   S    
C18   O5    A    
C17   O4    A    
C5    H22   S    
C6    H25   S    
C12   H6    S    
C13   N1    S    
Cu2   O4    S    
C21   C25   S    
C20   C22   S    
C3    C5    S    
Cu1   O3    S    
C11   C12   S    
C18   O6    A    
C3    H18   S    
C4    H21   S    
C16   N2    S    
C10   H1    S    
C23   C25   S    
C12   N2    S    
C7    C27   S    
C21   H14   S    
Cu2   O8    S    
C9    C18   S    
Cu1   Cu2   S    
C24   H15   S    
C22   C23   S    
C28   O10   D    
C21   C22   S    
C16   H10   S    
C4    H19   S    
