data_mof_unit_58500.cif
_audit_creation_date              2012-10-26T19:20:36-0400
_audit_creation_method            fapswitch 2.2
_symmetry_space_group_name_H-M    P1
_symmetry_Int_Tables_number       1
_space_group_crystal_system       triclinic
_cell_length_a                    10.856798
_cell_length_b                    11.03244
_cell_length_c                    9.820959
_cell_angle_alpha                 110.730913
_cell_angle_beta                  100.437806
_cell_angle_gamma                 90.910521
_cell_volume                      1077.85368497

loop_
_atom_site_label
_atom_site_type_symbol
_atom_type_description
_atom_site_fract_x
_atom_site_fract_y
_atom_site_fract_z
_atom_type_partial_charge
C1    C     C_R   0.490898 0.254059 0.440750 0.561687
C2    C     C_R   0.737810 0.489491 0.500478 0.545101
C3    C     C_R   0.163825 0.670419 0.754525 -0.114925
C4    C     C_R   0.833968 0.324872 0.245029 -0.109090
C5    C     C_R   0.131358 0.710206 0.893418 -0.075486
C6    C     C_R   0.866693 0.282046 0.106305 -0.095222
C7    C     C_R   0.020650 0.657288 0.910439 0.104113
C8    C     C_R   0.979293 0.331633 0.088981 0.105642
C9    C     C_R   0.937171 0.573585 0.784120 -0.081329
C10   C     C_R   0.062841 0.415448 0.214282 -0.060465
C11   C     C_R   0.963031 0.542366 0.639215 -0.007342
C12   C     C_R   0.509138 0.745941 0.559252 0.562573
C13   C     C_R   0.036386 0.450856 0.359525 -0.013725
C14   C     C_R   0.084949 0.577395 0.628504 -0.000852
C15   C     C_R   0.913841 0.417530 0.370393 -0.002379
C16   C     C_R   0.873417 0.475864 0.505733 -0.032336
C17   C     C_R   0.125731 0.519595 0.493107 -0.032451
C18   C     C_2   0.485975 0.115074 0.407151 -0.126511
C19   C     C_2   0.514181 0.884932 0.592857 -0.127862
C20   C     C_2   0.502679 0.069490 0.516979 -0.159423
C21   C     C_2   0.497654 0.930523 0.483036 -0.158260
C22   C     C_2   0.510815 0.510495 0.082342 -0.030439
C23   C     C_2   0.489182 0.489509 0.917658 -0.029320
C24   C     C_R   0.261830 0.508933 0.499096 0.545894
Cu1   Cu    Cu3+1 0.521920 0.521810 0.644910 0.926054
Cu2   Cu    Cu3+1 0.478080 0.478190 0.355090 0.930056
H1    H     H_    0.250915 0.713996 0.746470 0.138608
H2    H     H_    0.468549 0.049468 0.291637 0.101774
H3    H     H_    0.415431 0.416767 0.842345 0.157283
H4    H     H_    0.584558 0.583248 0.157656 0.153495
H5    H     H_    0.624523 0.622689 0.936821 0.200865
H6    H     H_    0.375505 0.377282 0.063172 0.210424
H7    H     H_    0.940571 0.232660 0.863806 0.231253
H8    H     H_    0.016964 0.380607 0.920769 0.222658
H9    H     H_    0.061174 0.653259 0.117131 0.224506
H10   H     H_    0.906462 0.645430 0.051173 0.219160
H11   H     H_    0.746012 0.283425 0.253669 0.139222
H12   H     H_    0.194629 0.779018 0.988864 0.127534
H13   H     H_    0.802510 0.213075 0.011978 0.108181
H14   H     H_    0.857522 0.527683 0.803872 0.141498
H15   H     H_    0.143429 0.457054 0.191605 0.156296
H16   H     H_    0.480273 0.865187 0.367333 0.154814
H17   H     H_    0.520128 0.134827 0.632684 0.153602
H18   H     H_    0.531541 0.950536 0.708371 0.100247
N1    N     N_2   0.445130 0.445420 0.137360 -0.357629
N2    N     N_2   0.554870 0.554580 0.862640 -0.359319
N3    N     N_3   0.011912 0.296183 0.945427 -0.634806
N4    N     N_3   0.993442 0.690764 0.056426 -0.626802
O1    O     O_R   0.511700 0.332340 0.577400 -0.496756
O2    O     O_R   0.488300 0.667660 0.422600 -0.495659
O3    O     O_R   0.474680 0.295500 0.332650 -0.492855
O4    O     O_R   0.525320 0.704500 0.667350 -0.493073
O5    O     O_R   0.338170 0.518410 0.622370 -0.496120
O6    O     O_R   0.661830 0.481590 0.377630 -0.497921
O7    O     O_R   0.301150 0.481570 0.377630 -0.507645
O8    O     O_R   0.698850 0.518430 0.622370 -0.506534

loop_
_geom_bond_atom_site_label_1
_geom_bond_atom_site_label_2
_ccdc_geom_bond_type
C12   O2    A    
C7    C9    A    
C2    C16   S    
H6    N1    S    
Cu1   O8    S    
C13   C17   A    
C9    C11   A    
C7    N4    S    
C22   N1    D    
C4    C15   A    
C3    H1    S    
Cu1   Cu2   S    
Cu1   O4    S    
C23   N2    D    
C2    O8    A    
Cu2   O3    S    
Cu2   O7    S    
C24   O7    A    
C1    O3    A    
C14   C17   A    
C1    C18   S    
C20   C21   S    
C3    C14   A    
C5    H12   S    
H9    N4    S    
C23   H3    S    
C12   C19   S    
C8    C10   A    
C12   O4    A    
Cu1   O5    S    
H10   N4    S    
C18   C20   D    
Cu2   O2    S    
C13   C15   A    
C2    O6    A    
H7    N3    S    
C11   C14   A    
Cu1   O1    S    
C8    N3    S    
C17   C24   S    
C21   H16   S    
C3    C5    A    
Cu2   O6    S    
C20   H17   S    
C18   H2    S    
C19   H18   S    
C4    C6    A    
C11   C16   A    
C5    C7    A    
C22   C23   S    
C6    C8    A    
H8    N3    S    
C22   H4    S    
Cu2   N1    S    
C19   C21   D    
C24   O5    A    
C6    H13   S    
C1    O1    A    
Cu1   N2    S    
H5    N2    S    
C9    H14   S    
C15   C16   A    
C4    H11   S    
C10   H15   S    
C10   C13   A    
