data_mof_unit_14349.cif
_audit_creation_date              2012-12-10T16:55:00-0500
_audit_creation_method            fapswitch 2.2
_symmetry_space_group_name_H-M    P1
_symmetry_Int_Tables_number       1
_space_group_crystal_system       triclinic
_cell_length_a                    7.809857
_cell_length_b                    8.5682
_cell_length_c                    15.713373
_cell_angle_alpha                 91.42208
_cell_angle_beta                  85.448911
_cell_angle_gamma                 93.512321
_cell_volume                      1045.98798261

loop_
_atom_site_label
_atom_site_type_symbol
_atom_type_description
_atom_site_fract_x
_atom_site_fract_y
_atom_site_fract_z
_atom_type_partial_charge
C1    C     C_R   0.545525 0.794542 0.497815 0.944557
C2    C     C_2   0.430501 0.041990 0.503209 -0.355069
C3    C     C_R   0.501410 0.500300 0.661524 0.886350
C4    C     C_R   0.454478 0.205462 0.502079 0.963433
C5    C     C_R   0.498596 0.499730 0.338478 0.905721
C6    C     C_3   0.317872 0.525293 0.957417 -0.370340
C7    C     C_3   0.627333 0.639413 0.949143 0.258766
C8    C     C_3   0.622551 0.638475 0.047800 -0.419252
C9    C     C_1   0.495880 0.500598 0.249670 -0.133378
C10   C     C_3   0.503330 0.505032 0.917350 0.237320
C11   C     C_3   0.315615 0.526329 0.055683 -0.385118
C12   C     C_3   0.498435 0.502994 0.082786 0.268888
C13   C     C_3   0.560380 0.345966 0.044702 -0.383017
C14   C     C_3   0.563427 0.347147 0.946442 -0.451227
C15   C     C_1   0.495893 0.501580 0.174307 -0.081602
C16   C     C_1   0.505034 0.503184 0.825725 -0.039970
C17   C     C_1   0.504498 0.501581 0.750349 -0.124597
C18   C     C_2   0.569496 0.958021 0.496465 -0.357343
Cl1   Cl    Cl    0.038773 0.323387 0.406082 -0.487151
Cl2   Cl    Cl    0.577476 0.827911 0.913461 -0.665808
H1    H     H_    0.269537 0.639434 0.082069 0.189215
H2    H     H_    0.754546 0.624127 0.067385 0.150172
H3    H     H_    0.477909 0.248419 0.923923 0.224888
H4    H     H_    0.696138 0.328611 0.918213 0.185490
H5    H     H_    0.473085 0.246984 0.069548 0.200522
H6    H     H_    0.229679 0.427740 0.935882 0.169201
H7    H     H_    0.223643 0.431478 0.081518 0.182125
H8    H     H_    0.691617 0.326937 0.063881 0.183152
H9    H     H_    0.700917 0.008743 0.489988 0.203165
H10   H     H_    0.299076 0.991287 0.509642 0.193708
H11   H     H_    0.987054 0.619141 0.563653 0.156356
H12   H     H_    0.268266 0.635835 0.936353 0.218838
H13   H     H_    0.760825 0.619746 0.922434 0.111057
H14   H     H_    0.580619 0.751716 0.075977 0.215055
N1    N     N_2   0.950340 0.457950 0.477370 0.102352
N2    N     N_2   0.049660 0.542050 0.522630 -0.110878
O1    O     O_R   0.389240 0.738570 0.505550 -0.619931
O2    O     O_R   0.678400 0.711630 0.491050 -0.638369
O3    O     O_R   0.355360 0.513470 0.630110 -0.618468
O4    O     O_R   0.644510 0.486530 0.615610 -0.634517
O5    O     O_R   0.321600 0.288370 0.508950 -0.573617
O6    O     O_R   0.610760 0.261430 0.494450 -0.598013
O7    O     O_R   0.355490 0.513470 0.384390 -0.565413
O8    O     O_R   0.644640 0.486530 0.369890 -0.593306
Zn1   Zn    Zn3+2 0.306930 0.517990 0.509680 1.027405
Zn2   Zn    Zn3+2 0.693070 0.482010 0.490320 1.028650

loop_
_geom_bond_atom_site_label_1
_geom_bond_atom_site_label_2
_ccdc_geom_bond_type
C14   H3    S    
C6    C10   S    
C7    C10   S    
C2    C4    S    
C11   C12   S    
C13   H8    S    
C5    C9    S    
C1    O1    A    
C8    C12   S    
C2    C18   D    
C7    H13   S    
C6    H12   S    
N1    N2    D    
C12   C15   S    
C11   H7    S    
O3    Zn1   S    
C5    O7    A    
C3    O3    A    
N2    Zn1   S    
C18   H9    S    
C8    H14   S    
C13   C14   S    
O4    Zn2   S    
O7    Zn1   S    
C13   H5    S    
C1    C18   S    
C6    H6    S    
C4    O6    A    
C1    O2    A    
C5    O8    A    
O8    Zn2   S    
C3    O4    A    
C3    C17   S    
C10   C14   S    
O2    Zn2   S    
C4    O5    A    
O1    Zn1   S    
C7    C8    S    
C2    H10   S    
C12   C13   S    
C7    Cl2   S    
O6    Zn2   S    
C14   H4    S    
C6    C11   S    
Cl1   N1    S    
O5    Zn1   S    
H11   N2    S    
C10   C16   S    
C9    C15   T    
N1    Zn2   S    
C8    H2    S    
C11   H1    S    
C16   C17   T    
