data_mof_unit_65512.cif
_audit_creation_date              2012-12-10T16:52:17-0500
_audit_creation_method            fapswitch 2.2
_symmetry_space_group_name_H-M    P1
_symmetry_Int_Tables_number       1
_space_group_crystal_system       triclinic
_cell_length_a                    11.077102
_cell_length_b                    10.979325
_cell_length_c                    9.701023
_cell_angle_alpha                 89.659915
_cell_angle_beta                  102.31043
_cell_angle_gamma                 90.258146
_cell_volume                      1152.67498483

loop_
_atom_site_label
_atom_site_type_symbol
_atom_type_description
_atom_site_fract_x
_atom_site_fract_y
_atom_site_fract_z
_atom_type_partial_charge
C1    C     C_R   0.496425 0.265478 0.499334 0.724724
C2    C     C_2   0.128544 0.508955 0.412138 0.376072
C3    C     C_2   0.067531 0.534405 0.514443 0.425873
C4    C     C_2   0.871575 0.509179 0.587731 0.377515
C5    C     C_2   0.932711 0.534185 0.484955 0.437497
C6    C     C_2   0.463802 0.935003 0.386575 0.000936
C7    C     C_2   0.513604 0.865504 0.499794 0.525703
C8    C     C_2   0.491691 0.065289 0.387261 0.077759
C9    C     C_2   0.476001 0.134725 0.496149 0.536338
C10   C     C_2   0.431690 0.427246 0.907037 0.356520
C11   C     C_2   0.452228 0.413644 0.065348 0.146442
C12   C     C_R   0.263062 0.502949 0.443266 0.728381
C13   C     C_R   0.500076 0.734410 0.499260 0.692913
C14   C     C_R   0.736978 0.502973 0.556699 0.753438
Cu1   Cu    Cu3+1 0.500020 0.500020 0.638640 1.202885
Cu2   Cu    Cu3+1 0.499980 0.499980 0.361360 1.136309
F1    F     F_    0.870963 0.559654 0.350719 -0.566267
F2    F     F_    0.607116 0.533672 0.926286 -0.435224
F3    F     F_    0.497436 0.611001 0.098183 -0.473617
F4    F     F_    0.129392 0.560896 0.648102 -0.604889
F5    F     F_    0.933435 0.486604 0.722438 -0.561180
F6    F     F_    0.066615 0.485640 0.277857 -0.563613
F7    F     F_    0.588620 0.915376 0.615513 -0.584215
F8    F     F_    0.429248 0.085577 0.603200 -0.610214
H1    H     H_    0.421975 0.329766 0.107034 0.056252
H2    H     H_    0.438209 0.834150 0.206726 0.304771
H3    H     H_    0.315908 0.832986 0.289076 0.242481
H4    H     H_    0.614803 0.068180 0.260561 0.263507
H5    H     H_    0.468164 0.100777 0.178113 0.258634
H6    H     H_    0.356741 0.263697 0.845401 0.226988
H7    H     H_    0.253538 0.375632 0.848901 0.265002
N1    N     N_2   0.498650 0.498660 0.846590 0.158443
N2    N     N_2   0.498620 0.498630 0.152710 0.149757
N3    N     N_3   0.385397 0.886522 0.261211 -0.556259
N4    N     N_3   0.535439 0.115800 0.269868 -0.583302
N5    N     N_3   0.337165 0.355308 0.820789 -0.531314
O1    O     O_R   0.500020 0.321960 0.617050 -0.547386
O2    O     O_R   0.499980 0.321920 0.382890 -0.616414
O3    O     O_R   0.320700 0.500020 0.574050 -0.545311
O4    O     O_R   0.320660 0.499980 0.339890 -0.554546
O5    O     O_R   0.500020 0.678080 0.617110 -0.499514
O6    O     O_R   0.499980 0.678040 0.382950 -0.580164
O7    O     O_R   0.679340 0.500020 0.660110 -0.485471
O8    O     O_R   0.679300 0.499980 0.425950 -0.526241

loop_
_geom_bond_atom_site_label_1
_geom_bond_atom_site_label_2
_ccdc_geom_bond_type
C2    F6    S    
C7    C13   S    
C10   N5    S    
C9    F8    S    
C12   O4    A    
C6    C7    D    
C11   N2    D    
C1    O1    A    
Cu2   N2    S    
Cu2   O8    S    
H6    N5    S    
C2    C12   S    
C12   O3    A    
C13   O5    A    
C2    C3    D    
C8    C9    D    
Cu1   O7    S    
Cu1   N1    S    
C4    F5    S    
Cu1   O3    S    
C1    O2    A    
Cu2   O4    S    
C10   N1    D    
C7    F7    S    
C13   O6    A    
H3    N3    S    
C4    C14   S    
C5    F1    S    
C10   C11   S    
C11   H1    S    
Cu1   Cu2   S    
C1    C9    S    
Cu2   O6    S    
C3    F4    S    
F2    N1    S    
Cu1   O5    S    
C14   O8    A    
F3    N2    S    
H5    N4    S    
H7    N5    S    
C4    C5    D    
C6    C8    S    
H2    N3    S    
Cu1   O1    S    
C6    N3    S    
H4    N4    S    
Cu2   O2    S    
C14   O7    A    
C3    C5    S    
C8    N4    S    
