data_mof_unit_14087.cif
_audit_creation_date              2012-12-10T17:39:23-0500
_audit_creation_method            fapswitch 2.2
_symmetry_space_group_name_H-M    P1
_symmetry_Int_Tables_number       1
_space_group_crystal_system       triclinic
_cell_length_a                    12.35577
_cell_length_b                    13.135356
_cell_length_c                    27.822569
_cell_angle_alpha                 77.340211
_cell_angle_beta                  101.316397
_cell_angle_gamma                 116.479658
_cell_volume                      3918.39075075

loop_
_atom_site_label
_atom_site_type_symbol
_atom_type_description
_atom_site_fract_x
_atom_site_fract_y
_atom_site_fract_z
_atom_type_partial_charge
C1    C     C_R   0.855022 0.286234 0.504873 0.772591
C2    C     C_R   0.905260 0.408282 0.026972 0.042282
C3    C     C_R   0.092785 0.589454 0.024293 0.042572
C4    C     C_R   0.999425 0.499567 0.592406 0.792274
C5    C     C_R   0.999394 0.498848 0.050908 0.067500
C6    C     C_R   0.817478 0.317897 0.055820 -0.203618
C7    C     C_R   0.819805 0.318421 0.105865 -0.147053
C8    C     C_R   0.909866 0.408573 0.129363 -0.020223
C9    C     C_R   0.000123 0.498826 0.102117 -0.043914
C10   C     C_R   0.091076 0.589085 0.126220 -0.019962
C11   C     C_R   0.089859 0.587669 0.176729 0.532218
C12   C     C_R   0.086086 0.478140 0.730997 -0.104041
C13   C     C_R   0.912218 0.410196 0.179861 0.531944
C14   C     C_R   0.909472 0.515667 0.269335 -0.103229
C15   C     C_R   0.909238 0.516130 0.319374 -0.225308
C16   C     C_R   0.144954 0.713998 0.491282 0.812960
C17   C     C_R   0.092907 0.484129 0.338980 -0.217429
C18   C     C_R   0.093025 0.483920 0.288887 -0.107244
C19   C     C_R   0.001273 0.499543 0.253917 0.358321
C20   C     C_R   0.902253 0.410464 0.975398 0.042542
C21   C     C_R   0.997902 0.498918 0.949192 0.067498
C22   C     C_R   0.094258 0.587376 0.973532 0.042351
C23   C     C_R   0.996370 0.497847 0.746180 0.355157
C24   C     C_R   0.806123 0.327302 0.948753 -0.203837
C25   C     C_R   0.188267 0.669093 0.896195 -0.146817
C26   C     C_R   0.181436 0.679736 0.049580 -0.203850
C27   C     C_R   0.180519 0.679175 0.099460 -0.147867
C28   C     C_R   0.000400 0.500216 0.407600 0.789028
C29   C     C_R   0.189536 0.670646 0.946040 -0.203698
C30   C     C_R   0.283987 0.022755 0.426831 -0.174434
C31   C     C_R   0.227792 0.836355 0.478799 -0.067788
C32   C     C_R   0.812151 0.084576 0.541423 -0.187076
C33   C     C_R   0.731467 0.970383 0.552717 -0.137540
C34   C     C_R   0.997221 0.498881 0.897992 -0.044022
C35   C     C_R   0.609433 0.933264 0.533722 -0.177814
C36   C     C_R   0.566101 0.009565 0.500969 0.092156
C37   C     C_R   0.651863 0.122881 0.485353 0.081622
C38   C     C_R   0.440960 0.976888 0.482564 0.073417
C39   C     C_R   0.406106 0.053509 0.445788 0.116168
C40   C     C_R   0.902631 0.414589 0.822495 0.532082
C41   C     C_R   0.493796 0.159347 0.427101 -0.220395
C42   C     C_R   0.614904 0.192939 0.446025 -0.185780
C43   C     C_R   0.349204 0.870684 0.499739 -0.291322
C44   C     C_R   0.194167 0.914186 0.442236 0.170924
C45   C     C_R   0.901264 0.413396 0.872974 -0.019273
C46   C     C_R   0.773030 0.162640 0.508988 -0.100518
C47   C     C_R   0.353735 0.332587 0.579608 -0.285328
C48   C     C_R   0.757292 0.642556 0.431646 0.064431
C49   C     C_R   0.660929 0.674448 0.416606 -0.247182
C50   C     C_R   0.558894 0.621858 0.442376 -0.190957
C51   C     C_R   0.552021 0.535858 0.483559 0.006002
C52   C     C_R   0.090195 0.582703 0.821176 0.532360
C53   C     C_R   0.654010 0.506695 0.497741 0.287932
C54   C     C_R   0.448311 0.477181 0.511101 -0.038008
C55   C     C_R   0.450910 0.391933 0.551756 0.130689
C56   C     C_R   0.806072 0.328775 0.898694 -0.147522
C57   C     C_R   0.550416 0.364974 0.564857 -0.271139
C58   C     C_R   0.649491 0.420921 0.538413 -0.184921
C59   C     C_R   0.341681 0.498287 0.500460 -0.025167
C60   C     C_R   0.251564 0.355383 0.567952 0.386412
C61   C     C_R   0.907212 0.517522 0.710897 -0.104707
C62   C     C_R   0.907905 0.517846 0.660801 -0.225272
C63   C     C_R   0.087120 0.478608 0.680938 -0.219185
C64   C     C_3   0.066275 0.882571 0.417092 -0.844645
C65   C     C_3   0.152550 0.284181 0.601205 -0.816460
C66   C     C_R   0.092539 0.584295 0.871672 -0.020122
C67   C     C_R   0.998132 0.498673 0.645332 -0.037763
C68   C     C_R   0.000904 0.500189 0.354700 -0.037673
Cu1   Cu    Cu3+1 0.098270 0.475420 0.511360 0.938913
Cu2   Cu    Cu3+1 0.901730 0.524580 0.488640 0.922961
H1    H     H_    0.157722 0.463527 0.670186 0.162453
H2    H     H_    0.259286 0.082562 0.398588 0.137605
H3    H     H_    0.155042 0.462443 0.758074 0.143817
H4    H     H_    0.369909 0.811520 0.529280 0.159078
H5    H     H_    0.904683 0.112417 0.559241 0.153314
H6    H     H_    0.552261 0.843694 0.544480 0.132161
H7    H     H_    0.762943 0.910799 0.577643 0.145934
H8    H     H_    0.679282 0.273431 0.428379 0.173462
H9    H     H_    0.551761 0.299212 0.596029 0.160763
H10   H     H_    0.357032 0.267327 0.610785 0.152229
H11   H     H_    0.332942 0.562077 0.470135 0.132491
H12   H     H_    0.837734 0.533114 0.722329 0.143569
H13   H     H_    0.834752 0.682521 0.410843 0.130438
H14   H     H_    0.730404 0.262855 0.880170 0.185991
H15   H     H_    0.486680 0.649421 0.429212 0.140367
H16   H     H_    0.665156 0.739794 0.384696 0.154973
H17   H     H_    0.720402 0.393281 0.551236 0.207631
H18   H     H_    0.837197 0.528731 0.330339 0.157821
H19   H     H_    0.838480 0.528129 0.242450 0.141641
H20   H     H_    0.750215 0.247226 0.126137 0.186685
H21   H     H_    0.746093 0.243826 0.041203 0.139410
H22   H     H_    0.727845 0.260205 0.965160 0.139156
H23   H     H_    0.263417 0.735018 0.876933 0.186838
H24   H     H_    0.837990 0.533307 0.634265 0.163291
H25   H     H_    0.003497 0.862933 0.444804 0.246198
H26   H     H_    0.058506 0.953716 0.388676 0.223315
H27   H     H_    0.038296 0.807357 0.397987 0.227163
H28   H     H_    0.069217 0.296798 0.591450 0.269856
H29   H     H_    0.125806 0.191476 0.601107 0.196579
H30   H     H_    0.187961 0.302609 0.639721 0.202062
H31   H     H_    0.252445 0.753772 0.031861 0.139144
H32   H     H_    0.164831 0.471832 0.365304 0.157511
H33   H     H_    0.250657 0.750344 0.116981 0.186113
H34   H     H_    0.164151 0.471214 0.277202 0.140181
H35   H     H_    0.268174 0.737867 0.961956 0.139411
H36   H     H_    0.468715 0.216648 0.397542 0.147755
N1    N     N_R   0.996274 0.498459 0.797703 -0.466819
N2    N     N_R   0.001239 0.499038 0.202409 -0.467503
N3    N     N_R   0.246290 0.438210 0.528570 -0.176716
N4    N     N_R   0.754320 0.561170 0.471730 -0.206581
O1    O     O_R   0.972510 0.318140 0.514280 -0.580226
O2    O     O_R   0.082990 0.479230 0.439860 -0.582323
O3    O     O_R   0.917010 0.520730 0.420680 -0.597818
O4    O     O_2   0.811747 0.331955 0.798486 -0.544240
O5    O     O_2   0.826706 0.323362 0.206324 -0.542002
O6    O     O_2   0.180565 0.665221 0.795612 -0.541926
O7    O     O_2   0.175925 0.674596 0.199922 -0.542318
O8    O     O_R   0.806530 0.359640 0.495100 -0.600854
O9    O     O_R   0.082990 0.479270 0.579320 -0.583594
O10   O     O_R   0.917010 0.520770 0.560140 -0.599333
O11   O     O_R   0.193470 0.640360 0.504900 -0.584403
O12   O     O_R   0.027490 0.681860 0.485720 -0.574949

loop_
_geom_bond_atom_site_label_1
_geom_bond_atom_site_label_2
_ccdc_geom_bond_type
C53   N4    A    
C10   C27   A    
C48   N4    A    
C25   H23   S    
C8    C13   A    
C22   C29   A    
C41   C42   A    
C57   H9    S    
C35   C36   A    
C16   O11   A    
C29   H35   S    
C58   H17   S    
C34   C66   A    
C32   H5    S    
C7    C8    A    
C39   C41   A    
C28   O2    A    
C16   C31   S    
C12   C23   A    
C26   C27   A    
C31   C43   A    
C62   C67   A    
C36   C37   A    
C28   C68   S    
C65   H28   S    
C61   H12   S    
C26   H31   S    
C38   C39   A    
Cu1   O2    S    
C1    C46   S    
C6    H21   S    
C18   C19   A    
C37   C42   A    
C16   O12   A    
C60   N3    A    
Cu2   N4    S    
C50   H15   S    
C59   N3    A    
C47   C60   A    
Cu1   N3    S    
C40   O4    S    
C20   C24   A    
C45   C56   A    
Cu2   O10   S    
C8    C9    A    
C4    O9    A    
C56   H14   S    
C9    C10   A    
C19   N2    S    
C43   H4    S    
C12   H3    S    
C30   C44   A    
C2    C6    A    
C47   H10   S    
C13   N2    A    
C24   H22   S    
C17   C18   A    
C54   C59   A    
C52   O6    S    
Cu2   O3    S    
C25   C29   A    
C40   C45   A    
C63   C67   A    
C35   H6    S    
C31   C44   A    
C2    C20   A    
C52   N1    A    
C41   H36   S    
C12   C63   A    
C14   C19   A    
C21   C34   A    
C3    C5    A    
C7    H20   S    
Cu1   O9    S    
C44   C64   S    
C51   C53   A    
C17   H32   S    
C14   H19   S    
C5    C9    A    
Cu2   O12   S    
Cu1   O11   S    
C23   N1    S    
C50   C51   A    
C34   C45   A    
C18   H34   S    
C65   H29   S    
C13   O5    S    
C40   N1    A    
C62   H24   S    
C64   H27   S    
C63   H1    S    
C60   C65   S    
C42   H8    S    
C55   C57   A    
C2    C5    A    
C11   O7    S    
C52   C66   A    
C47   C55   A    
C54   C55   A    
C48   C49   A    
C17   C68   A    
C32   C46   A    
C49   H16   S    
C3    C26   A    
C25   C66   A    
C59   H11   S    
C64   H25   S    
C65   H30   S    
C4    C67   S    
C30   H2    S    
C53   C58   A    
C6    C7    A    
C24   C56   A    
C48   H13   S    
C51   C54   A    
C32   C33   A    
C36   C38   A    
C38   C43   A    
C1    O1    A    
Cu1   O1    S    
C33   H7    S    
C57   C58   A    
Cu2   O8    S    
C15   C68   A    
C27   H33   S    
C33   C35   A    
C30   C39   A    
C64   H26   S    
C1    O8    A    
C61   C62   A    
Cu1   Cu2   S    
C10   C11   A    
C28   O3    A    
C23   C61   A    
C20   C21   A    
C49   C50   A    
C11   N2    A    
C14   C15   A    
C4    O10   A    
C3    C22   A    
C37   C46   A    
C21   C22   A    
C15   H18   S    
