data_mof_unit_8045.cif
_audit_creation_date              2012-12-10T19:33:11-0500
_audit_creation_method            fapswitch 2.2
_symmetry_space_group_name_H-M    P1
_symmetry_Int_Tables_number       1
_space_group_crystal_system       triclinic
_cell_length_a                    8.690219
_cell_length_b                    15.93535
_cell_length_c                    17.082884
_cell_angle_alpha                 95.52738
_cell_angle_beta                  92.7166
_cell_angle_gamma                 83.118744
_cell_volume                      2336.1658338

loop_
_atom_site_label
_atom_site_type_symbol
_atom_type_description
_atom_site_fract_x
_atom_site_fract_y
_atom_site_fract_z
_atom_type_partial_charge
C1    C     C_R   0.497817 0.490148 0.349000 0.809036
C2    C     C_R   0.501668 0.509929 0.651071 0.809201
C3    C     C_R   0.417001 0.758624 0.461020 0.105347
C4    C     C_R   0.584002 0.241168 0.538348 0.105469
C5    C     C_R   0.428990 0.846377 0.454541 0.022960
C6    C     C_R   0.570964 0.153677 0.545555 0.023418
C7    C     C_R   0.537919 0.886882 0.504548 0.353279
C8    C     C_R   0.460526 0.113377 0.496386 0.353616
C9    C     C_R   0.638410 0.836740 0.553179 -0.364460
C10   C     C_R   0.359332 0.163641 0.448167 -0.365759
C11   C     C_R   0.628175 0.749296 0.554520 0.000511
C12   C     C_R   0.370226 0.250978 0.446445 -0.000068
C13   C     C_R   0.205393 0.522253 0.501283 0.891014
C14   C     C_R   0.794593 0.477754 0.498586 0.891386
C15   C     C_2   0.039563 0.533985 0.504373 -0.358612
C16   C     C_2   0.960390 0.466077 0.495265 -0.357447
C17   C     C_R   0.491391 0.485177 0.263306 -0.029031
C18   C     C_R   0.506724 0.515191 0.736912 -0.031735
C19   C     C_R   0.566182 0.540523 0.224443 -0.269298
C20   C     C_R   0.440949 0.456145 0.775611 -0.267762
C21   C     C_R   0.558579 0.536033 0.143067 -0.220759
C22   C     C_R   0.448644 0.460456 0.856978 -0.220576
C23   C     C_R   0.474322 0.476280 0.098040 0.385263
C24   C     C_R   0.522091 0.524525 0.902308 0.386035
C25   C     C_R   0.398109 0.419228 0.137806 0.135325
C26   C     C_R   0.588698 0.585489 0.862821 0.135611
C27   C     C_R   0.409255 0.424839 0.220247 -0.286412
C28   C     C_R   0.578485 0.579603 0.780356 -0.286317
Cu1   Cu    Cu3+1 0.492520 0.415770 0.496210 0.936962
Cu2   Cu    Cu3+1 0.507480 0.584230 0.503790 0.936523
H1    H     H_    0.982707 0.598218 0.515625 0.168431
H2    H     H_    0.017274 0.401892 0.483861 0.168977
H3    H     H_    0.381988 0.406928 0.742947 0.150662
H4    H     H_    0.632339 0.586721 0.257023 0.150167
H5    H     H_    0.396088 0.412995 0.883887 0.162313
H6    H     H_    0.620070 0.579752 0.115889 0.162507
H7    H     H_    0.350760 0.382325 0.251364 0.149709
H8    H     H_    0.629578 0.625309 0.749587 0.151956
H9    H     H_    0.726465 0.865551 0.589882 0.154651
H10   H     H_    0.270163 0.135035 0.412125 0.154679
H11   H     H_    0.708835 0.712230 0.591516 0.134676
H12   H     H_    0.288770 0.288179 0.409936 0.134725
N1    N     N_2   0.466553 0.472455 0.014466 -0.260478
N2    N     N_2   0.529160 0.528548 0.985898 -0.260445
N3    N     N_R   0.518730 0.710760 0.509500 -0.191379
N4    N     N_R   0.481270 0.289240 0.490500 -0.191011
N5    N     N_2   0.559923 0.974811 0.502860 -0.243645
N6    N     N_2   0.438363 0.025472 0.498228 -0.243747
O1    O     O_R   0.493000 0.421040 0.382520 -0.586650
O2    O     O_R   0.507000 0.578960 0.617480 -0.587484
O3    O     O_R   0.505640 0.563310 0.388930 -0.590136
O4    O     O_R   0.494360 0.436690 0.611070 -0.590414
O5    O     O_R   0.269980 0.445280 0.497530 -0.588405
O6    O     O_R   0.730020 0.554720 0.502470 -0.588287
O7    O     O_R   0.282610 0.587550 0.503940 -0.577412
O8    O     O_R   0.717390 0.412450 0.496060 -0.576646
C29   C     C_3   0.301440 0.351046 0.100191 -0.408403
C30   C     C_3   0.284554 0.339027 0.010765 -0.823336
H13   H     H_    0.224587 0.397445 0.987440 0.260498
H14   H     H_    0.399686 0.320154 0.984820 0.257125
H15   H     H_    0.211983 0.286954 0.993574 0.231530
H16   H     H_    0.352107 0.289021 0.120415 0.202051
H17   H     H_    0.182646 0.364810 0.123282 0.201598
C31   C     C_3   0.672157 0.658993 0.900854 -0.408224
C32   C     C_3   0.698277 0.667361 0.989951 -0.823584
H18   H     H_    0.585671 0.680658 0.019418 0.258858
H19   H     H_    0.767978 0.609539 0.009428 0.258587
H20   H     H_    0.764863 0.721940 0.007263 0.231384
H21   H     H_    0.788307 0.653990 0.874910 0.200946
H22   H     H_    0.606608 0.719304 0.884053 0.202103
C33   C     C_R   0.715670 0.277571 0.581925 0.182929
C34   C     C_R   0.703711 0.307930 0.661671 -0.122719
C35   C     C_R   0.833451 0.332500 0.705510 -0.163288
C36   C     C_R   0.978276 0.322388 0.671418 -0.115352
C37   C     C_R   0.993763 0.286493 0.593898 -0.158201
C38   C     C_R   0.863454 0.263467 0.549439 -0.167992
H23   H     H_    0.594612 0.310421 0.690169 0.130485
H24   H     H_    0.822275 0.357554 0.766419 0.142430
H25   H     H_    0.079062 0.340613 0.705578 0.125665
H26   H     H_    0.106783 0.276433 0.568254 0.145737
H27   H     H_    0.877395 0.234526 0.489793 0.121083
C39   C     C_R   0.287965 0.721540 0.415616 0.183110
C40   C     C_R   0.303697 0.692305 0.335757 -0.122728
C41   C     C_R   0.176371 0.667084 0.290261 -0.161626
C42   C     C_R   0.030219 0.675403 0.322798 -0.118329
C43   C     C_R   0.010902 0.710235 0.400421 -0.157621
C44   C     C_R   0.138723 0.734100 0.446465 -0.166516
H28   H     H_    0.414127 0.690596 0.308598 0.131311
H29   H     H_    0.190491 0.642732 0.229335 0.143033
H30   H     H_    0.931353 0.656584 0.287376 0.124780
H31   H     H_    0.896809 0.718934 0.424891 0.144983
H32   H     H_    0.121779 0.762319 0.506147 0.121348
C45   C     C_3   0.667342 0.106058 0.608842 -0.385078
C46   C     C_3   0.565910 0.086674 0.674029 -0.812695
H33   H     H_    0.639856 0.054830 0.719815 0.232040
H34   H     H_    0.478907 0.044148 0.651062 0.272276
H35   H     H_    0.504802 0.146614 0.701777 0.237501
H36   H     H_    0.735596 0.047695 0.583204 0.218640
H37   H     H_    0.758826 0.141456 0.638339 0.199985
C47   C     C_3   0.333190 0.894150 0.391179 -0.385290
C48   C     C_3   0.435315 0.914026 0.326490 -0.811326
H38   H     H_    0.521595 0.956795 0.349931 0.272085
H39   H     H_    0.497329 0.854301 0.298817 0.237494
H40   H     H_    0.361740 0.945806 0.280530 0.232114
H41   H     H_    0.242119 0.858726 0.361283 0.199988
H42   H     H_    0.264446 0.952336 0.416836 0.218579

loop_
_geom_bond_atom_site_label_1
_geom_bond_atom_site_label_2
_ccdc_geom_bond_type
C14   O8    A    
Cu2   O3    S    
C45   C46   S    
C2    C18   S    
C35   C36   A    
Cu2   N3    S    
N1    N2    D    
C29   H16   S    
C21   H6    S    
Cu1   O1    S    
C42   C43   A    
C22   H5    S    
Cu2   O6    S    
C47   H41   S    
C48   H38   S    
C19   C21   A    
C24   C26   A    
C43   H31   S    
C33   C38   A    
C30   H14   S    
C15   C16   D    
C9    H9    S    
C23   N1    S    
C10   H10   S    
C26   C31   S    
C12   H12   S    
C2    O2    A    
C34   H23   S    
C40   C41   A    
C32   H19   S    
C35   H24   S    
C31   H22   S    
C37   H26   S    
C45   H37   S    
C18   C20   A    
C32   H20   S    
C30   H15   S    
C40   H28   S    
Cu2   O2    S    
C48   H39   S    
C44   H32   S    
C25   C29   S    
C10   C12   A    
C29   H17   S    
C13   O5    A    
C36   C37   A    
C17   C27   A    
C18   C28   A    
C41   C42   A    
C4    C6    A    
C5    C7    A    
C43   C44   A    
C4    N4    A    
C46   H35   S    
C30   H13   S    
C3    N3    A    
C7    N5    S    
C37   C38   A    
C8    N6    S    
Cu1   Cu2   S    
C1    O3    A    
N5    N6    D    
C5    C47   S    
C28   H8    S    
C6    C45   S    
C3    C39   S    
C31   H21   S    
C46   H34   S    
C9    C11   A    
C2    O4    A    
C20   H3    S    
C12   N4    A    
C14   O6    A    
C20   C22   A    
C39   C40   A    
C48   H40   S    
C36   H25   S    
C13   C15   S    
C24   N2    S    
C14   C16   S    
C11   N3    A    
C25   C27   A    
C41   H29   S    
C7    C9    A    
C1    C17   S    
C34   C35   A    
C3    C5    A    
C19   H4    S    
C38   H27   S    
C6    C8    A    
C42   H30   S    
C15   H1    S    
Cu1   O8    S    
C47   H42   S    
C16   H2    S    
Cu2   O7    S    
C26   C28   A    
Cu1   N4    S    
C31   C32   S    
C21   C23   A    
C33   C34   A    
C29   C30   S    
Cu1   O5    S    
C27   H7    S    
C47   C48   S    
C17   C19   A    
C11   H11   S    
C22   C24   A    
C23   C25   A    
C46   H33   S    
C8    C10   A    
C32   H18   S    
C1    O1    A    
C45   H36   S    
C4    C33   S    
C39   C44   A    
C13   O7    A    
Cu1   O4    S    
