data_mof_unit_15980.cif
_audit_creation_date              2012-12-10T17:50:39-0500
_audit_creation_method            fapswitch 2.2
_symmetry_space_group_name_H-M    P1
_symmetry_Int_Tables_number       1
_space_group_crystal_system       triclinic
_cell_length_a                    15.715773
_cell_length_b                    10.662209
_cell_length_c                    9.963975
_cell_angle_alpha                 90.195584
_cell_angle_beta                  91.92033
_cell_angle_gamma                 91.573573
_cell_volume                      1668.02939412

loop_
_atom_site_label
_atom_site_type_symbol
_atom_type_description
_atom_site_fract_x
_atom_site_fract_y
_atom_site_fract_z
_atom_type_partial_charge
C1    C     C_R   0.502189 0.260970 0.500357 0.863439
C2    C     C_R   0.697557 0.066474 0.723833 0.238931
C3    C     C_R   0.704955 0.938209 0.699586 -0.190298
C4    C     C_R   0.338193 0.501228 0.497822 0.878300
C5    C     C_R   0.644692 0.874684 0.616994 -0.222946
C6    C     C_R   0.573117 0.936796 0.562933 0.066841
C7    C     C_R   0.570691 0.067263 0.573922 0.053499
C8    C     C_R   0.505721 0.128856 0.501554 -0.117285
C9    C     C_R   0.441851 0.064443 0.427832 -0.243508
C10   C     C_R   0.438161 0.935389 0.428213 0.152341
C11   C     C_R   0.504067 0.872170 0.496880 -0.130736
C12   C     C_3   0.083400 0.513054 0.493494 0.087033
C13   C     C_R   0.386080 0.340181 0.133589 -0.136249
C14   C     C_R   0.330001 0.260506 0.061018 -0.207972
C15   C     C_R   0.330371 0.259152 0.922089 -0.195209
C16   C     C_R   0.500549 0.739280 0.499544 0.861200
C17   C     C_R   0.386662 0.337672 0.854776 -0.129575
C18   C     C_R   0.443547 0.421291 0.924715 0.128244
C19   C     C_R   0.443522 0.421715 0.069004 0.153415
C20   C     C_R   0.555109 0.572523 0.076516 -0.129804
C21   C     C_R   0.556782 0.571659 0.934313 0.193081
C22   C     C_R   0.662031 0.500107 0.502150 0.886099
C23   C     C_3   0.977454 0.587900 0.598694 -0.175684
C24   C     C_3   0.973960 0.390276 0.528557 -0.186945
C25   C     C_3   0.023184 0.431744 0.404134 0.193452
C26   C     C_1   0.249471 0.507496 0.492538 -0.191939
C27   C     C_1   0.751332 0.501246 0.507236 -0.201062
C28   C     C_3   0.034840 0.473639 0.617708 0.193625
C29   C     C_3   0.052046 0.344851 0.293242 -0.423897
C30   C     C_3   0.976236 0.280085 0.219652 -0.880460
C31   C     C_3   0.362027 0.869778 0.357785 -0.397099
C32   C     C_3   0.372708 0.865472 0.206102 -0.808097
C33   C     C_3   0.625700 0.650898 0.873550 -0.375788
C34   C     C_3   0.918012 0.505347 0.507572 0.149696
C35   C     C_3   0.712705 0.591664 0.892810 -0.884369
C36   C     C_3   0.081014 0.437835 0.749195 -0.400265
C37   C     C_3   0.019820 0.387302 0.852251 -0.904695
C38   C     C_3   0.754987 0.133177 0.826807 -0.431795
C39   C     C_3   0.812148 0.232400 0.763267 -0.887041
C40   C     C_3   0.027341 0.627422 0.473138 -0.233628
C41   C     C_3   0.965936 0.545496 0.382101 -0.157969
C42   C     C_1   0.174300 0.512172 0.490215 -0.095316
C43   C     C_1   0.826885 0.502696 0.509661 -0.060113
C44   C     C_R   0.633342 0.131590 0.655418 -0.201177
H1    H     H_    0.756522 0.886744 0.746012 0.134414
H2    H     H_    0.632386 0.231764 0.669999 0.173280
H3    H     H_    0.938238 0.223606 0.290822 0.261668
H4    H     H_    0.934949 0.350614 0.170564 0.262285
H5    H     H_    0.999414 0.216584 0.141098 0.250985
H6    H     H_    0.089301 0.400583 0.220461 0.211889
H7    H     H_    0.093858 0.272847 0.338394 0.202532
H8    H     H_    0.654440 0.776822 0.595878 0.137770
H9    H     H_    0.430973 0.814582 0.181711 0.274253
H10   H     H_    0.316764 0.815834 0.157380 0.238880
H11   H     H_    0.377306 0.962031 0.164912 0.248643
H12   H     H_    0.599864 0.631581 0.134663 0.157201
H13   H     H_    0.351048 0.773132 0.395471 0.208926
H14   H     H_    0.303183 0.920782 0.379255 0.186067
H15   H     H_    0.383331 0.334541 0.240016 0.196499
H16   H     H_    0.710990 0.494521 0.851939 0.282044
H17   H     H_    0.761200 0.647997 0.839018 0.241804
H18   H     H_    0.731984 0.589147 0.000996 0.249591
H19   H     H_    0.612503 0.663913 0.767147 0.269061
H20   H     H_    0.627687 0.746149 0.919544 0.181297
H21   H     H_    0.951239 0.293388 0.550386 0.132802
H22   H     H_    0.967211 0.453095 0.866208 0.264271
H23   H     H_    0.286554 0.198583 0.113100 0.142454
H24   H     H_    0.993755 0.294246 0.818858 0.261092
H25   H     H_    0.054617 0.375419 0.949983 0.261937
H26   H     H_    0.128256 0.365182 0.728469 0.205983
H27   H     H_    0.115802 0.522088 0.790944 0.213671
H28   H     H_    0.857709 0.186790 0.697222 0.257250
H29   H     H_    0.774356 0.300434 0.704170 0.264321
H30   H     H_    0.847678 0.285066 0.844229 0.257377
H31   H     H_    0.715032 0.178694 0.901920 0.212618
H32   H     H_    0.795873 0.065601 0.881782 0.203339
H33   H     H_    0.287242 0.196030 0.865921 0.143654
H34   H     H_    0.384495 0.328490 0.748352 0.200899
H35   H     H_    0.935621 0.574401 0.285231 0.136467
H36   H     H_    0.051145 0.723669 0.450078 0.149021
H37   H     H_    0.956478 0.650745 0.679523 0.134061
H38   H     H_    0.392350 0.115392 0.374549 0.139520
N1    N     N_R   0.499210 0.498800 0.142780 -0.138003
N2    N     N_R   0.499180 0.498720 0.857170 -0.141951
O1    O     O_R   0.500000 0.316780 0.614690 -0.648094
O2    O     O_R   0.499990 0.316750 0.385360 -0.625376
O3    O     O_R   0.376780 0.500000 0.614650 -0.627364
O4    O     O_R   0.376770 0.499980 0.385310 -0.632420
O5    O     O_R   0.500010 0.683250 0.614640 -0.636353
O6    O     O_R   0.500000 0.683220 0.385310 -0.608585
O7    O     O_R   0.623230 0.500020 0.614690 -0.633483
O8    O     O_R   0.623220 0.500000 0.385350 -0.604133
Zn1   Zn    Zn3+2 0.500010 0.500020 0.653130 0.915217
Zn2   Zn    Zn3+2 0.499990 0.499980 0.346870 0.932442

loop_
_geom_bond_atom_site_label_1
_geom_bond_atom_site_label_2
_ccdc_geom_bond_type
C2    C44   A    
C16   O6    A    
C37   H25   S    
C1    C8    S    
C20   H12   S    
C7    C8    A    
C4    O3    A    
C38   H32   S    
C12   C28   S    
C5    C6    A    
C31   H14   S    
C30   H4    S    
C36   C37   S    
C38   C39   S    
C21   C33   S    
C23   C40   S    
C37   H24   S    
C18   C19   A    
C39   H30   S    
C12   C42   S    
O2    Zn2   S    
O1    Zn1   S    
C10   C31   S    
C44   H2    S    
C8    C9    A    
C18   N2    A    
C22   O7    A    
C40   H36   S    
C5    H8    S    
C9    C10   A    
C32   H11   S    
C36   H27   S    
C33   H19   S    
C9    H38   S    
C29   H6    S    
C16   O5    A    
C13   C14   A    
C25   C29   S    
C34   C41   S    
C19   N1    A    
C32   H10   S    
C36   H26   S    
O6    Zn2   S    
C38   H31   S    
C1    O1    A    
O4    Zn2   S    
C13   C19   A    
C30   H3    S    
C24   C25   S    
C25   C41   S    
C6    C11   A    
C7    C44   A    
N1    Zn2   S    
C3    H1    S    
C24   C34   S    
C35   H16   S    
C12   C40   S    
C29   C30   S    
O7    Zn1   S    
C11   C16   S    
C2    C38   S    
C31   C32   S    
C21   N2    A    
C14   H23   S    
C23   C34   S    
C37   H22   S    
O8    Zn2   S    
C17   C18   A    
C35   H17   S    
C23   C28   S    
C39   H28   S    
C24   H21   S    
C4    O4    A    
C40   C41   S    
C30   H5    S    
C22   C27   S    
C32   H9    S    
C26   C42   T    
C29   H7    S    
C1    O2    A    
C15   C17   A    
C23   H37   S    
C34   C43   S    
C24   C28   S    
C3    C5    A    
C41   H35   S    
C4    C26   S    
C6    C7    A    
C13   H15   S    
C12   C25   S    
C31   H13   S    
C2    C3    A    
C15   H33   S    
C33   H20   S    
O3    Zn1   S    
C17   H34   S    
C33   C35   S    
C35   H18   S    
N2    Zn1   S    
C39   H29   S    
O5    Zn1   S    
C10   C11   A    
C27   C43   T    
C20   C21   A    
C28   C36   S    
C20   N1    A    
C22   O8    A    
C14   C15   A    
