data_mof_unit_66054.cif
_audit_creation_date              2012-12-10T16:56:32-0500
_audit_creation_method            fapswitch 2.2
_symmetry_space_group_name_H-M    P1
_symmetry_Int_Tables_number       1
_space_group_crystal_system       triclinic
_cell_length_a                    18.852086
_cell_length_b                    18.719039
_cell_length_c                    18.836662
_cell_angle_alpha                 109.179859
_cell_angle_beta                  110.263716
_cell_angle_gamma                 109.237212
_cell_volume                      5099.73968718

loop_
_atom_site_label
_atom_site_type_symbol
_atom_type_description
_atom_site_fract_x
_atom_site_fract_y
_atom_site_fract_z
_atom_type_partial_charge
C1    C     C_R   0.616785 0.619093 0.497682 0.932242
C2    C     C_3   0.185624 0.416937 0.197482 -0.168971
C3    C     C_3   0.220906 0.469356 0.296410 -0.158553
C4    C     C_3   0.313468 0.498793 0.312125 0.027151
C5    C     C_2   0.741519 0.820885 0.494664 -0.154727
C6    C     C_2   0.818046 0.824531 0.511858 -0.334949
C7    C     C_2   0.680320 0.759716 0.505878 -0.160043
C8    C     C_2   0.676240 0.682925 0.489463 -0.336055
C9    C     C_2   0.829135 0.507111 0.752339 -0.159865
C10   C     C_2   0.817088 0.489819 0.812010 -0.334025
C11   C     C_2   0.755992 0.495888 0.679217 -0.155871
C12   C     C_R   0.379952 0.499615 0.379522 0.865173
C13   C     C_2   0.695727 0.512154 0.690908 -0.333796
C14   C     C_2   0.258257 0.253672 0.578268 -0.164249
C15   C     C_2   0.182238 0.192281 0.504835 -0.350660
C16   C     C_2   0.319303 0.325954 0.577965 -0.159204
C17   C     C_2   0.324358 0.312051 0.506028 -0.340543
C18   C     C_R   0.008057 0.619594 0.126658 0.936946
C19   C     C_R   0.127056 0.499477 0.126538 0.866605
C20   C     C_R   0.005253 0.380397 0.886581 0.944381
C21   C     C_R   0.885978 0.497692 0.884197 0.934433
C22   C     C_R   0.001915 0.121910 0.618022 0.920612
C23   C     C_R   0.383219 0.380440 0.501847 0.934526
C24   C     C_R   0.881281 0.883390 0.502655 0.932238
C25   C     C_R   0.998850 0.878753 0.381982 0.935927
C26   C     C_R   0.118766 0.120848 0.501540 0.926655
C27   C     C_2   0.008398 0.747392 0.328268 -0.156152
C28   C     C_2   0.990373 0.806467 0.314174 -0.334326
C29   C     C_2   0.998565 0.675142 0.256938 -0.161976
C30   C     C_2   0.016167 0.688127 0.197903 -0.337542
C31   C     C_2   0.002593 0.260941 0.679718 0.033703
C32   C     C_2   0.011583 0.194691 0.686721 -0.385390
C33   C     C_2   0.014355 0.330389 0.755698 -0.206305
C34   C     C_R   0.622912 0.502819 0.621344 0.935520
C35   C     C_2   0.993201 0.312846 0.811278 -0.360107
C36   C     C_3   0.321504 0.580731 0.307052 -0.159240
C37   C     C_3   0.227621 0.551284 0.290054 -0.154320
C38   C     C_3   0.193638 0.498932 0.192479 0.026082
C39   C     C_3   0.286278 0.528363 0.208213 -0.167161
C40   C     C_3   0.279419 0.446361 0.214426 -0.172507
H1    H     H_    0.204430 0.594008 0.318736 0.126625
H2    H     H_    0.712644 0.662555 0.461634 0.156198
H3    H     H_    0.891334 0.525523 0.754860 0.162953
H4    H     H_    0.752422 0.461764 0.803870 0.157757
H5    H     H_    0.753536 0.477579 0.617021 0.162527
H6    H     H_    0.703599 0.540058 0.755491 0.156290
H7    H     H_    0.273863 0.252996 0.639154 0.164910
H8    H     H_    0.162119 0.198661 0.446808 0.151791
H9    H     H_    0.361900 0.389282 0.637329 0.165514
H10   H     H_    0.289059 0.246586 0.450207 0.159202
H11   H     H_    0.027167 0.750186 0.390963 0.163760
H12   H     H_    0.378936 0.647437 0.353695 0.132829
H13   H     H_    0.962016 0.798025 0.248962 0.156927
H14   H     H_    0.980370 0.612767 0.254929 0.163152
H15   H     H_    0.044011 0.753015 0.205706 0.157873
H16   H     H_    0.034204 0.196866 0.749261 0.153307
H17   H     H_    0.039006 0.396017 0.764970 0.171815
H18   H     H_    0.959687 0.246186 0.797675 0.157169
H19   H     H_    0.311157 0.552387 0.170395 0.146560
H20   H     H_    0.302256 0.403539 0.185203 0.148819
H21   H     H_    0.128304 0.350165 0.150871 0.140684
H22   H     H_    0.196355 0.445275 0.334381 0.128257
H23   H     H_    0.725194 0.864653 0.475479 0.165258
H24   H     H_    0.838540 0.788157 0.540803 0.156052
H25   H     H_    0.636563 0.776028 0.523869 0.163052
O1    O     O_R   0.591160 0.539400 0.449620 -0.628182
O2    O     O_R   0.056790 0.641480 0.096140 -0.622722
O3    O     O_R   0.047640 0.448900 0.098680 -0.630989
O4    O     O_R   0.149770 0.551010 0.098640 -0.627742
O5    O     O_R   0.957150 0.358410 0.917750 -0.626199
O6    O     O_R   0.059270 0.460520 0.917700 -0.621726
O7    O     O_R   0.864170 0.448890 0.915250 -0.623143
O8    O     O_R   0.966300 0.551000 0.915200 -0.619506
O9    O     O_R   0.946940 0.090450 0.537440 -0.604127
O10   O     O_R   0.050520 0.090460 0.641000 -0.628559
O11   O     O_R   0.857760 0.909540 0.448230 -0.616537
O12   O     O_R   0.589730 0.641530 0.550350 -0.616947
O13   O     O_R   0.961340 0.909540 0.551790 -0.627348
O14   O     O_R   0.949480 0.909540 0.359000 -0.623862
O15   O     O_R   0.053060 0.909550 0.462560 -0.616009
O16   O     O_R   0.038660 0.090460 0.448210 -0.623667
O17   O     O_R   0.142240 0.090460 0.551770 -0.614770
O18   O     O_R   0.408980 0.448930 0.357910 -0.630270
O19   O     O_R   0.407550 0.551060 0.458650 -0.627907
O20   O     O_R   0.410270 0.358470 0.449650 -0.622535
O21   O     O_R   0.408840 0.460600 0.550380 -0.618882
O22   O     O_R   0.592450 0.448940 0.541350 -0.617276
O23   O     O_R   0.591020 0.551070 0.642090 -0.625404
O24   O     O_R   0.954670 0.539370 0.096190 -0.616931
Zn1   Zn    Zn3+2 0.500950 0.431810 0.432740 0.944909
Zn2   Zn    Zn3+2 0.499050 0.568190 0.567260 0.946411
Zn3   Zn    Zn3+2 0.938780 0.431770 0.006970 0.945971
Zn4   Zn    Zn3+2 0.075160 0.568130 0.006910 0.945548
Zn5   Zn    Zn3+2 0.930840 0.000000 0.430850 0.960665
Zn6   Zn    Zn3+2 0.069160 0.000000 0.569150 0.947770
C41   C     C_R   0.990135 0.271924 0.602592 0.153107
C42   C     C_R   0.919256 0.281131 0.559182 -0.155618
C43   C     C_R   0.908316 0.293554 0.487679 -0.148143
C44   C     C_R   0.968525 0.297853 0.459722 -0.125033
C45   C     C_R   0.040001 0.290138 0.503466 -0.120306
C46   C     C_R   0.051075 0.277541 0.574876 -0.112022
H26   H     H_    0.872329 0.278207 0.580424 0.133414
H27   H     H_    0.853273 0.300069 0.454076 0.131268
H28   H     H_    0.960057 0.307642 0.404479 0.124753
H29   H     H_    0.087040 0.294367 0.482297 0.133945
H30   H     H_    0.107367 0.272893 0.609029 0.109664

loop_
_geom_bond_atom_site_label_1
_geom_bond_atom_site_label_2
_ccdc_geom_bond_type
C4    C36   S    
C40   H20   S    
C27   C29   S    
C25   O15   A    
C1    O12   A    
O9    Zn5   S    
O8    Zn4   S    
C42   C43   A    
O10   Zn6   S    
C7    C8    D    
O1    Zn1   S    
C25   C28   S    
C12   O19   A    
C45   H29   S    
C29   C30   D    
C22   C32   S    
C35   H18   S    
C22   O10   A    
C36   C37   S    
C8    H2    S    
O4    Zn4   S    
O21   Zn2   S    
C5    C6    D    
O7    Zn3   S    
O3    Zn3   S    
C29   H14   S    
C43   H27   S    
C1    C8    S    
C21   O8    A    
C5    H23   S    
C6    H24   S    
O11   Zn5   S    
C20   C35   S    
C4    C40   S    
C16   C17   D    
C23   O21   A    
C31   C33   S    
C20   O6    A    
C18   C30   S    
O19   Zn2   S    
C4    C12   S    
C9    C10   D    
C42   H26   S    
C36   H12   S    
C2    H21   S    
C44   H28   S    
C6    C24   S    
C26   O17   A    
C41   C46   A    
C20   O5    A    
C15   H8    S    
C27   H11   S    
C10   C21   S    
C9    H3    S    
C21   O7    A    
C10   H4    S    
C16   H9    S    
O14   Zn5   S    
C39   C40   S    
C5    C7    S    
C24   O11   A    
C15   C26   S    
C18   O2    A    
C12   O18   A    
O24   Zn3   S    
C37   C38   S    
C19   C38   S    
C7    H25   S    
C2    C38   S    
C31   C32   D    
C17   C23   S    
O23   Zn2   S    
O13   Zn6   S    
O20   Zn1   S    
C39   H19   S    
C41   C42   A    
C14   C15   D    
C1    O1    A    
C19   O3    A    
C34   O23   A    
O15   Zn6   S    
C9    C11   S    
C24   O13   A    
C26   O16   A    
C14   C16   S    
C11   H5    S    
C22   O9    A    
C3    C4    S    
C3    H22   S    
C46   H30   S    
O18   Zn1   S    
O12   Zn2   S    
C33   H17   S    
O17   Zn6   S    
C25   O14   A    
C18   O24   A    
C36   C39   S    
O5    Zn3   S    
C17   H10   S    
C28   H13   S    
C14   H7    S    
O6    Zn4   S    
C30   H15   S    
C44   C45   A    
C2    C3    S    
C13   C34   S    
O16   Zn5   S    
C11   C13   D    
C38   C39   S    
C45   C46   A    
C33   C35   D    
C34   O22   A    
C37   H1    S    
C19   O4    A    
C2    C40   S    
C3    C37   S    
C43   C44   A    
C23   O20   A    
O22   Zn1   S    
C27   C28   D    
O2    Zn4   S    
C13   H6    S    
C32   H16   S    
C31   C41   S    
