data_mof_unit_6012.cif
_audit_creation_date              2013-03-05T16:45:01-0500
_audit_creation_method            fapswitch 2.2
_symmetry_space_group_name_H-M    P1
_symmetry_Int_Tables_number       1
_space_group_crystal_system       triclinic
_cell_length_a                    11.690047
_cell_length_b                    15.853638
_cell_length_c                    16.944076
_cell_angle_alpha                 96.487964
_cell_angle_beta                  90.648433
_cell_angle_gamma                 92.799498
_cell_volume                      3115.9582941

loop_
_atom_site_label
_atom_site_type_symbol
_atom_site_description
_atom_site_fract_x
_atom_site_fract_y
_atom_site_fract_z
_atom_type_partial_charge
O1    O     O_R   0.494910 0.420530 0.382500 -0.528025
O2    O     O_R   0.505090 0.579470 0.617500 -0.537612
O3    O     O_R   0.504100 0.563720 0.388950 -0.580495
O4    O     O_R   0.495900 0.436280 0.611050 -0.565457
C1    C     C_R   0.501181 0.489595 0.347964 0.879430
C2    C     C_R   0.498598 0.510447 0.651589 0.865724
O5    O     O_R   0.332600 0.428410 0.496780 -0.594120
O6    O     O_R   0.667400 0.571590 0.503220 -0.543649
O7    O     O_R   0.341800 0.571600 0.503230 -0.578746
O8    O     O_R   0.658200 0.428400 0.496770 -0.567580
C3    C     C_R   0.283865 0.499878 0.499387 0.780081
C4    C     C_R   0.716119 0.499851 0.499432 0.828180
Cu1   Cu    Cu3+1 0.494550 0.415220 0.496180 0.982028
Cu2   Cu    Cu3+1 0.505450 0.584780 0.503820 0.981452
C5    C     C_1   0.162261 0.499524 0.498652 -0.213065
C6    C     C_1   0.837667 0.499045 0.498300 -0.188538
C7    C     C_1   0.059798 0.499076 0.498113 -0.003302
C8    C     C_1   0.940108 0.498738 0.497903 0.002961
C9    C     C_R   0.505287 0.482758 0.260399 -0.267962
C10   C     C_R   0.488038 0.516356 0.738005 -0.265627
C11   C     C_R   0.565973 0.544067 0.220005 0.342808
C12   C     C_R   0.412908 0.459569 0.773437 0.328321
C13   C     C_R   0.583743 0.526490 0.137494 0.161824
C14   C     C_R   0.409945 0.463319 0.856651 0.219658
C15   C     C_R   0.514757 0.460703 0.093835 0.147832
C16   C     C_R   0.479840 0.525156 0.903895 0.120085
C17   C     C_R   0.452852 0.401113 0.133817 0.415385
C18   C     C_R   0.545205 0.586587 0.867976 0.432542
C19   C     C_R   0.453826 0.410246 0.216705 -0.357870
C20   C     C_R   0.551231 0.580518 0.785461 -0.361891
N1    N     N_2   0.502659 0.455816 0.010064 -0.103283
N2    N     N_2   0.487748 0.526855 0.987512 -0.177268
H1    H     H_    0.412115 0.361277 0.247094 0.237293
H2    H     H_    0.607460 0.625109 0.758484 0.221139
N3    N     N_R   0.513630 0.712130 0.509560 -0.227459
N4    N     N_R   0.486370 0.287870 0.490440 -0.243750
C21   C     C_R   0.442940 0.749732 0.461150 -0.195191
C22   C     C_R   0.530442 0.250768 0.552049 -0.170078
C23   C     C_R   0.437268 0.838633 0.466659 0.299426
C24   C     C_R   0.525404 0.161200 0.552522 0.301070
C25   C     C_R   0.506318 0.890802 0.523811 0.122687
C26   C     C_R   0.488046 0.108298 0.482575 0.123398
C27   C     C_R   0.572746 0.850518 0.576984 0.062554
C28   C     C_R   0.448893 0.148432 0.417653 0.061438
C29   C     C_R   0.581495 0.760311 0.565800 0.524170
C30   C     C_R   0.438051 0.237581 0.426381 0.537550
N5    N     N_2   0.502711 0.982033 0.535266 -0.107831
N6    N     N_2   0.491387 0.016717 0.473068 -0.095175
H3    H     H_    0.569515 0.290821 0.601836 0.185413
H4    H     H_    0.388248 0.710236 0.418585 0.170467
O9    O     O_3   0.345359 0.397809 0.727577 -0.565956
C31   C     C_3   0.250534 0.434451 0.694133 0.076650
H5    H     H_    0.227488 0.395084 0.637230 0.173243
H6    H     H_    0.269404 0.500458 0.679395 0.098797
C32   C     C_3   0.147112 0.432991 0.748738 -0.307793
H7    H     H_    0.131089 0.367845 0.765807 0.263350
H8    H     H_    0.165159 0.477473 0.803389 0.240963
C33   C     C_3   0.039773 0.459712 0.707953 -0.905657
H9    H     H_    0.053809 0.524741 0.690360 0.256320
H10   H     H_    0.966938 0.459616 0.749440 0.276673
H11   H     H_    0.017284 0.414660 0.654348 0.259275
O10   O     O_3   0.616623 0.616867 0.261516 -0.545589
C34   C     C_3   0.536032 0.681294 0.270727 0.129207
H12   H     H_    0.561860 0.724098 0.324985 0.177669
H13   H     H_    0.446991 0.655998 0.280067 0.112086
C35   C     C_3   0.536832 0.734939 0.200847 -0.397792
H14   H     H_    0.624514 0.763057 0.193821 0.269933
H15   H     H_    0.510441 0.694454 0.145202 0.218256
C36   C     C_3   0.454781 0.806969 0.214575 -0.808682
H16   H     H_    0.366040 0.781000 0.221964 0.258317
H17   H     H_    0.455934 0.843932 0.162662 0.260100
H18   H     H_    0.481347 0.850383 0.268447 0.304044
N7    N     N_R   0.330637 0.408420 0.893123 0.143681
O11   O     O_R   0.319367 0.327807 0.867803 -0.348223
O12   O     O_R   0.260758 0.440953 0.946091 -0.412566
N8    N     N_R   0.675998 0.569718 0.098996 0.159560
O13   O     O_R   0.717530 0.534111 0.033187 -0.293208
O14   O     O_R   0.734400 0.634406 0.136188 -0.320058
O15   O     O_3   0.399908 0.329739 0.091457 -0.562517
C37   C     C_3   0.279531 0.336601 0.089706 0.156638
H19   H     H_    0.249465 0.314262 0.028191 0.236610
H20   H     H_    0.251406 0.402971 0.103486 0.140283
C38   C     C_3   0.221390 0.278562 0.145276 -0.412462
H21   H     H_    0.256680 0.214421 0.135705 0.266805
H22   H     H_    0.237906 0.305239 0.207859 0.215813
C39   C     C_3   0.092001 0.270195 0.130916 -0.858977
H23   H     H_    0.054538 0.333425 0.141984 0.267704
H24   H     H_    0.052558 0.227651 0.171893 0.265705
H25   H     H_    0.071743 0.242431 0.068894 0.271259
O16   O     O_3   0.614794 0.647016 0.913318 -0.541732
C40   C     C_3   0.549252 0.715695 0.943875 0.070958
H26   H     H_    0.591021 0.744540 0.000445 0.191241
H27   H     H_    0.459928 0.695828 0.958986 0.123949
C41   C     C_3   0.548020 0.783219 0.885876 -0.340862
H28   H     H_    0.637469 0.802124 0.871346 0.257416
H29   H     H_    0.502597 0.756525 0.829973 0.232847
C42   C     C_3   0.488006 0.861807 0.921147 -0.848097
H30   H     H_    0.397822 0.844515 0.935037 0.251690
H31   H     H_    0.488198 0.909211 0.877641 0.280346
H32   H     H_    0.533255 0.891060 0.976265 0.257420
O17   O     O_3   0.566237 0.125511 0.617749 -0.534515
C43   C     C_3   0.507944 0.156415 0.687103 0.076702
H33   H     H_    0.414791 0.162935 0.675002 0.139721
H34   H     H_    0.547489 0.219161 0.712085 0.157284
C44   C     C_3   0.518641 0.094223 0.749089 -0.280507
H35   H     H_    0.478023 0.031503 0.725296 0.253403
H36   H     H_    0.610700 0.085950 0.761726 0.265471
C45   C     C_3   0.460569 0.125940 0.826307 -0.839491
H37   H     H_    0.500770 0.188157 0.851857 0.285073
H38   H     H_    0.469973 0.079425 0.869988 0.257054
H39   H     H_    0.367822 0.133059 0.815397 0.272240
O18   O     O_3   0.363092 0.872858 0.416214 -0.560173
C46   C     C_3   0.259786 0.891997 0.455746 0.138542
H40   H     H_    0.222882 0.945171 0.428240 0.197843
H41   H     H_    0.272595 0.914895 0.520149 0.116084
C47   C     C_3   0.173579 0.815325 0.445020 -0.403840
H42   H     H_    0.169193 0.788395 0.381509 0.242755
H43   H     H_    0.201965 0.765485 0.480931 0.215959
C48   C     C_3   0.054274 0.840423 0.471284 -0.875987
H44   H     H_    0.057389 0.871135 0.533551 0.251509
H45   H     H_    0.995412 0.782901 0.467477 0.264071
H46   H     H_    0.020156 0.885339 0.432167 0.267252
N9    N     N_R   0.625198 0.900499 0.644831 0.113691
O19   O     O_R   0.693605 0.965834 0.635893 -0.327495
O20   O     O_R   0.600646 0.882801 0.716027 -0.411309
N10   N     N_R   0.421570 0.100107 0.341951 0.144212
O21   O     O_R   0.373374 0.024032 0.337547 -0.343079
O22   O     O_R   0.443592 0.132863 0.276381 -0.318581
O23   O     O_3   0.650228 0.717984 0.614454 -0.574601
C49   C     C_3   0.762979 0.755486 0.624862 0.094120
H47   H     H_    0.770538 0.791144 0.685137 0.215341
H48   H     H_    0.786700 0.799380 0.579904 0.129148
C50   C     C_3   0.849546 0.686034 0.619201 -0.356921
H49   H     H_    0.816778 0.631530 0.649860 0.236918
H50   H     H_    0.861764 0.664085 0.555540 0.225265
C51   C     C_3   0.965438 0.718593 0.655953 -0.899306
H51   H     H_    0.997856 0.775510 0.629015 0.261445
H52   H     H_    0.028202 0.668392 0.645178 0.257020
H53   H     H_    0.957697 0.735250 0.721061 0.269063
O24   O     O_3   0.378890 0.273677 0.368834 -0.566361
C52   C     C_3   0.261738 0.277629 0.389252 0.053703
H54   H     H_    0.229812 0.335661 0.367097 0.168106
H55   H     H_    0.247078 0.283928 0.454627 0.136348
C53   C     C_3   0.190500 0.200101 0.349966 -0.364175
H56   H     H_    0.213452 0.186834 0.286565 0.264977
H57   H     H_    0.208488 0.143631 0.380409 0.230068
C54   C     C_3   0.062508 0.214325 0.355457 -0.895082
H58   H     H_    0.037330 0.225993 0.418628 0.262191
H59   H     H_    0.013182 0.157039 0.327041 0.271719
H60   H     H_    0.040778 0.269626 0.324354 0.261548

loop_
_geom_bond_atom_site_label_1
_geom_bond_atom_site_label_2
_geom_bond_distance
_ccdc_geom_bond_type
C15   N1    1.417858 S    
C35   H15   1.110607 S    
C32   H7    1.111417 S    
C34   H13   1.116526 S    
C16   N2    1.415911 S    
N10   O21   1.299976 A    
C17   C19   1.395387 A    
N7    O12   1.300758 A    
N7    O11   1.301191 A    
C54   H58   1.110982 S    
C13   N8    1.450175 S    
C42   H30   1.110843 S    
N9    O19   1.300995 A    
C23   C25   1.417571 A    
C22   H3    1.079534 S    
C10   C20   1.398322 A    
C47   H42   1.111657 S    
O5    C3    1.289418 A    
C44   H36   1.111801 S    
C28   N10   1.441876 S    
O17   C43   1.416341 S    
O1    C1    1.297926 A    
C9    C11   1.417902 A    
C14   C16   1.413885 A    
C46   H40   1.110740 S    
C17   O15   1.384416 S    
C52   H55   1.116851 S    
C43   H34   1.112614 S    
C39   H24   1.110079 S    
C14   N7    1.433406 S    
N9    O20   1.301089 A    
C35   C36   1.526483 S    
C33   H10   1.110305 S    
C19   H1    1.079181 S    
C45   H37   1.111222 S    
C43   C44   1.527732 S    
O4    Cu1   1.937007 S    
C36   H17   1.110531 S    
C24   O17   1.387522 S    
C3    C5    1.421202 S    
C4    C6    1.421910 S    
C28   C30   1.416393 A    
C50   C51   1.526312 S    
N10   O22   1.301590 A    
N4    C30   1.370907 A    
C31   C32   1.531571 S    
C46   C47   1.533764 S    
C33   H11   1.110808 S    
C24   C26   1.423618 A    
C35   H14   1.110689 S    
C34   C35   1.533754 S    
Cu1   Cu2   2.673319 S    
C25   C27   1.408996 A    
O2    C2    1.293266 A    
C26   C28   1.414087 A    
C53   C54   1.526300 S    
O18   C46   1.416799 S    
C42   H31   1.110529 S    
C31   H6    1.115274 S    
C48   H45   1.110699 S    
C11   C13   1.414073 A    
C44   C45   1.526556 S    
C20   H2    1.084077 S    
C43   H33   1.117720 S    
N5    N6    1.251198 D    
C54   H60   1.110871 S    
O24   C52   1.418945 S    
Cu1   N4    2.007825 S    
O4    C2    1.291791 A    
C52   C53   1.532927 S    
Cu2   N3    2.007825 S    
C39   H23   1.110891 S    
C53   H56   1.109632 S    
C41   C42   1.525864 S    
C33   H9    1.110265 S    
C39   H25   1.110804 S    
O9    C31   1.417902 S    
C51   H53   1.110733 S    
C36   H18   1.110901 S    
C49   H48   1.116766 S    
O7    Cu2   1.914070 S    
O10   C34   1.420035 S    
C40   H27   1.116809 S    
O7    C3    1.289518 A    
C38   H21   1.111632 S    
O6    C4    1.292124 A    
C7    C8    1.398895 S    
C25   N5    1.440171 S    
C41   H28   1.111644 S    
C26   N6    1.445080 S    
N8    O13   1.301748 A    
C41   H29   1.111010 S    
C27   C29   1.430057 A    
C11   O10   1.384809 S    
O3    Cu2   1.937007 S    
O8    C4    1.287029 A    
C47   H43   1.111023 S    
C53   H57   1.109981 S    
C23   O18   1.382334 S    
C38   H22   1.107552 S    
C10   C12   1.413897 A    
C32   H8    1.110305 S    
C50   H49   1.112147 S    
C12   C14   1.405411 A    
O15   C37   1.416941 S    
C49   C50   1.527345 S    
O1    Cu1   1.937566 S    
N3    C29   1.371181 A    
C27   N9    1.433931 S    
C40   H26   1.111235 S    
C42   H32   1.110877 S    
C31   H5    1.110598 S    
N3    C21   1.361752 A    
C51   H52   1.110098 S    
C30   O24   1.380597 S    
O23   C49   1.419993 S    
C48   H46   1.110791 S    
C5    C7    1.197399 T    
O6    Cu2   1.914856 S    
C54   H59   1.110343 S    
N1    N2    1.248874 D    
N8    O14   1.300304 A    
C37   H19   1.109727 S    
O3    C1    1.294426 A    
O8    Cu1   1.914072 S    
C48   H44   1.110340 S    
C47   C48   1.526340 S    
C1    C9    1.476898 S    
C15   C17   1.401459 A    
C2    C10   1.463642 S    
C44   H35   1.111598 S    
C16   C18   1.405193 A    
C45   H39   1.111113 S    
N4    C22   1.362844 A    
C49   H47   1.110422 S    
C21   C23   1.406797 A    
C52   H54   1.111343 S    
C40   C41   1.533269 S    
C22   C24   1.419250 A    
C21   H4    1.081384 S    
O16   C40   1.415529 S    
C29   O23   1.392190 S    
C18   C20   1.393373 A    
C37   C38   1.531135 S    
C37   H20   1.117928 S    
C45   H38   1.110450 S    
C13   C15   1.419632 A    
C36   H16   1.110955 S    
O2    Cu2   1.937564 S    
C34   H12   1.108878 S    
O5    Cu1   1.914856 S    
C38   C39   1.526241 S    
C6    C8    1.197881 T    
C32   C33   1.526435 S    
C50   H50   1.108395 S    
C51   H51   1.108939 S    
C18   O16   1.383191 S    
C12   O9    1.387326 S    
C46   H41   1.116476 S    
C9    C19   1.400567 A    
