data_mof_unit_68547.cif
_audit_creation_date              2012-10-26T19:19:40-0400
_audit_creation_method            fapswitch 2.2
_symmetry_space_group_name_H-M    P1
_symmetry_Int_Tables_number       1
_space_group_crystal_system       triclinic
_cell_length_a                    16.031561
_cell_length_b                    11.112894
_cell_length_c                    10.035865
_cell_angle_alpha                 90.953266
_cell_angle_beta                  90.811232
_cell_angle_gamma                 94.488959
_cell_volume                      1782.01421939

loop_
_atom_site_label
_atom_site_type_symbol
_atom_type_description
_atom_site_fract_x
_atom_site_fract_y
_atom_site_fract_z
_atom_type_partial_charge
C1    C     C_R   0.504800 0.267707 0.499202 0.549784
C2    C     C_2   0.486420 0.868054 0.501109 0.251348
C3    C     C_2   0.507996 0.068295 0.389216 0.259829
C4    C     C_R   0.340878 0.500004 0.499248 0.496736
C5    C     C_2   0.521633 0.139808 0.499732 0.254697
C6    C     C_2   0.470664 0.409665 0.922007 0.445061
C7    C     C_2   0.462942 0.414000 0.075207 0.451744
C8    C     C_R   0.495863 0.734164 0.500919 0.520835
C9    C     C_R   0.658448 0.491271 0.500588 0.491210
C10   C     C_3   0.048406 0.443065 0.644820 0.475851
C11   C     C_3   0.046081 0.377796 0.393165 0.489994
C12   C     C_3   0.948408 0.433382 0.640584 0.155927
C13   C     C_3   0.946267 0.375574 0.393480 0.151915
C14   C     C_1   0.746985 0.472603 0.501614 -0.051580
C15   C     C_3   0.081719 0.478472 0.499109 0.087329
C16   C     C_3   0.150823 0.548773 0.794323 0.064352
C17   C     C_3   0.140812 0.512048 0.937968 -0.256533
C18   C     C_3   0.220997 0.537907 0.018996 -0.496287
C19   C     C_3   0.915625 0.465296 0.865349 0.020386
C20   C     C_3   0.834091 0.386675 0.887457 -0.308523
C21   C     C_3   0.807720 0.391608 0.032437 -0.474265
C22   C     C_3   0.881180 0.740372 0.337979 0.007628
C23   C     C_3   0.915566 0.466592 0.499521 -0.027310
C24   C     C_3   0.790746 0.727399 0.384473 -0.287374
C25   C     C_3   0.746871 0.842640 0.369509 -0.500972
C26   C     C_3   0.450387 0.868873 0.192196 -0.131639
C27   C     C_3   0.437429 0.885272 0.723915 0.047041
C28   C     C_3   0.353044 0.816192 0.749586 -0.252151
C29   C     C_3   0.334705 0.807860 0.897298 -0.507337
C30   C     C_3   0.568902 0.138873 0.199230 -0.059298
C31   C     C_3   0.641347 0.096932 0.607463 -0.002669
C32   C     C_3   0.677156 0.055362 0.739378 -0.243473
C33   C     C_3   0.771084 0.043025 0.730879 -0.499755
C34   C     C_3   0.950598 0.597279 0.464936 0.169634
C35   C     C_3   0.362583 0.283417 0.836507 0.035442
C36   C     C_3   0.335205 0.149174 0.838357 -0.260222
C37   C     C_3   0.240614 0.126557 0.843179 -0.505767
C38   C     C_3   0.596554 0.662003 0.862544 0.101396
C39   C     C_3   0.675716 0.592949 0.877834 -0.250178
C40   C     C_3   0.749678 0.668211 0.817806 -0.493253
C41   C     C_3   0.347208 0.320865 0.177226 -0.081588
C42   C     C_3   0.044077 0.220997 0.691028 0.004191
C43   C     C_3   0.021358 0.176086 0.830394 -0.306284
C44   C     C_3   0.003025 0.039153 0.831258 -0.488880
C45   C     C_3   0.049720 0.607699 0.461475 0.500381
C46   C     C_3   0.596537 0.654501 0.160529 0.041322
C47   C     C_3   0.067588 0.318546 0.165798 -0.134959
C48   C     C_3   0.155240 0.239039 0.411828 -0.135584
C49   C     C_3   0.894931 0.183248 0.307910 0.026242
C50   C     C_3   0.802064 0.156706 0.276594 -0.278114
C51   C     C_3   0.791104 0.080332 0.148073 -0.503910
C52   C     C_3   0.058774 0.813050 0.548065 -0.133985
C53   C     C_3   0.152667 0.701508 0.311248 0.045708
C54   C     C_3   0.143666 0.799702 0.207509 -0.269230
C55   C     C_3   0.224679 0.878983 0.193176 -0.510104
C56   C     C_1   0.822062 0.463982 0.500275 0.030622
C57   C     C_1   0.174963 0.489827 0.497892 0.013658
C58   C     C_1   0.250810 0.496457 0.497595 -0.096750
C59   C     C_2   0.508403 0.933822 0.391955 0.274723
Cu1   Cu    Cu3+1 0.500020 0.500020 0.638630 0.961177
Cu2   Cu    Cu3+1 0.499980 0.499980 0.361370 0.979130
H1    H     H_    0.918616 0.342672 0.659548 0.127821
H2    H     H_    0.232279 0.635199 0.040751 0.142715
H3    H     H_    0.921034 0.542829 0.937057 0.168141
H4    H     H_    0.970715 0.414610 0.887290 0.149170
H5    H     H_    0.783943 0.416225 0.822206 0.189730
H6    H     H_    0.841401 0.291623 0.858519 0.125230
H7    H     H_    0.855287 0.351906 0.094620 0.140732
H8    H     H_    0.746182 0.339952 0.043992 0.156474
H9    H     H_    0.803117 0.485907 0.067707 0.165758
H10   H     H_    0.881933 0.772818 0.233859 0.153591
H11   H     H_    0.917079 0.810622 0.399049 0.100761
H12   H     H_    0.923922 0.406489 0.295159 0.163680
H13   H     H_    0.756099 0.654178 0.325226 0.183707
H14   H     H_    0.790352 0.705546 0.491601 0.146276
H15   H     H_    0.784922 0.918565 0.418813 0.142674
H16   H     H_    0.684981 0.832269 0.418049 0.152517
H17   H     H_    0.736610 0.860747 0.262610 0.155177
H18   H     H_    0.469069 0.881145 0.087068 0.124139
H19   H     H_    0.404890 0.936863 0.214730 0.158495
H20   H     H_    0.417487 0.777786 0.200924 0.135152
H21   H     H_    0.444142 0.966542 0.789517 0.168732
H22   H     H_    0.492475 0.838100 0.754265 0.143873
H23   H     H_    0.929106 0.656130 0.546174 0.148225
H24   H     H_    0.302661 0.864351 0.701366 0.167868
H25   H     H_    0.351007 0.724203 0.704477 0.195066
H26   H     H_    0.371099 0.738167 0.943781 0.173581
H27   H     H_    0.266944 0.784629 0.908823 0.138275
H28   H     H_    0.349128 0.896043 0.948886 0.129816
H29   H     H_    0.588271 0.052565 0.158214 0.134449
H30   H     H_    0.619403 0.185034 0.263172 0.087822
H31   H     H_    0.559872 0.197323 0.112735 0.187224
H32   H     H_    0.669642 0.189704 0.587347 0.129414
H33   H     H_    0.658402 0.034175 0.526441 0.104085
H34   H     H_    0.177936 0.643500 0.790414 0.156623
H35   H     H_    0.665342 0.121905 0.819577 0.172424
H36   H     H_    0.645393 0.966512 0.765605 0.150293
H37   H     H_    0.783540 0.969180 0.659781 0.145344
H38   H     H_    0.796069 0.020864 0.830481 0.138651
H39   H     H_    0.804124 0.128630 0.697571 0.156833
H40   H     H_    0.347824 0.316827 0.736380 0.168006
H41   H     H_    0.325464 0.331607 0.909592 0.090823
H42   H     H_    0.357049 0.106896 0.745658 0.192555
H43   H     H_    0.363438 0.107935 0.926629 0.192569
H44   H     H_    0.216958 0.161462 0.938554 0.137895
H45   H     H_    0.195777 0.491258 0.746875 0.155877
H46   H     H_    0.222598 0.028178 0.834932 0.143229
H47   H     H_    0.212328 0.172500 0.758840 0.165966
H48   H     H_    0.607178 0.750259 0.915797 0.071160
H49   H     H_    0.596101 0.690370 0.761019 0.180392
H50   H     H_    0.693745 0.574493 0.980247 0.177894
H51   H     H_    0.666301 0.502356 0.831842 0.196578
H52   H     H_    0.745431 0.664579 0.707622 0.161766
H53   H     H_    0.809305 0.635241 0.850523 0.194536
H54   H     H_    0.750915 0.763978 0.852038 0.123439
H55   H     H_    0.302359 0.260154 0.117898 0.087623
H56   H     H_    0.089859 0.559118 0.985265 0.193654
H57   H     H_    0.327648 0.413941 0.173350 0.092084
H58   H     H_    0.342799 0.289521 0.281375 0.164212
H59   H     H_    0.088768 0.159014 0.651053 0.168525
H60   H     H_    0.990616 0.206448 0.621345 0.188432
H61   H     H_    0.073495 0.201656 0.901453 0.160593
H62   H     H_    0.965194 0.216996 0.865495 0.131952
H63   H     H_    0.952935 0.010398 0.757308 0.147651
H64   H     H_    0.982031 0.010869 0.931794 0.142869
H65   H     H_    0.060254 0.993508 0.807110 0.147522
H66   H     H_    0.614778 0.665571 0.264848 0.187581
H67   H     H_    0.123601 0.414055 0.935683 0.173432
H68   H     H_    0.545962 0.709523 0.130642 0.185667
H69   H     H_    0.653822 0.696355 0.116112 0.038028
H70   H     H_    0.053501 0.225741 0.201501 0.139443
H71   H     H_    0.128537 0.312990 0.117038 0.096667
H72   H     H_    0.019665 0.339893 0.091198 0.095996
H73   H     H_    0.188959 0.248450 0.509087 0.132407
H74   H     H_    0.189094 0.297648 0.338843 0.132602
H75   H     H_    0.158662 0.144361 0.376829 0.104057
H76   H     H_    0.923443 0.097201 0.327803 0.153412
H77   H     H_    0.922838 0.220731 0.216753 0.107543
H78   H     H_    0.275622 0.506788 0.965939 0.123745
H79   H     H_    0.770913 0.109160 0.360630 0.153094
H80   H     H_    0.772289 0.242738 0.263854 0.164277
H81   H     H_    0.813037 0.133683 0.061075 0.147555
H82   H     H_    0.724747 0.049316 0.130824 0.133512
H83   H     H_    0.827868 0.999882 0.153753 0.136300
H84   H     H_    0.002180 0.823732 0.608030 0.115826
H85   H     H_    0.049310 0.840787 0.444435 0.121678
H86   H     H_    0.108978 0.876816 0.591521 0.117930
H87   H     H_    0.196196 0.636955 0.273640 0.145740
H88   H     H_    0.182743 0.742894 0.402863 0.160039
H89   H     H_    0.213552 0.492065 0.115264 0.170967
H90   H     H_    0.125209 0.757041 0.109568 0.171256
H91   H     H_    0.093495 0.858049 0.235822 0.154862
H92   H     H_    0.241686 0.927780 0.288428 0.148604
H93   H     H_    0.217046 0.946158 0.114080 0.148222
H94   H     H_    0.275411 0.821984 0.165199 0.133316
N1    N     N_2   0.499090 0.498660 0.846910 -0.053657
N2    N     N_2   0.499070 0.498630 0.153040 -0.060330
O1    O     O_R   0.500010 0.321960 0.617040 -0.446697
O2    O     O_3   0.916614 0.513654 0.735681 -0.575833
O3    O     O_3   0.916632 0.627259 0.338167 -0.563438
O4    O     O_3   0.524184 0.877381 0.272696 -0.629158
O5    O     O_3   0.437179 0.926158 0.591986 -0.604224
O6    O     O_3   0.492621 0.120164 0.267384 -0.543273
O7    O     O_3   0.553501 0.096005 0.616979 -0.562755
O8    O     O_3   0.449829 0.298758 0.860998 -0.545434
O9    O     O_3   0.519099 0.605836 0.909348 -0.525450
O10   O     O_3   0.429007 0.308876 0.132465 -0.531578
O11   O     O_3   0.086591 0.338790 0.696177 -0.606411
O12   O     O_R   0.499990 0.321920 0.382900 -0.450520
O13   O     O_3   0.578048 0.533273 0.116808 -0.499636
O14   O     O_3   0.076153 0.411760 0.264508 -0.557538
O15   O     O_3   0.069602 0.260223 0.427952 -0.572645
O16   O     O_3   0.907765 0.259009 0.422274 -0.600992
O17   O     O_3   0.084755 0.694817 0.558512 -0.572212
O18   O     O_3   0.072932 0.639168 0.328120 -0.501800
O19   O     O_R   0.379450 0.500030 0.617120 -0.527714
O20   O     O_R   0.379420 0.499980 0.382980 -0.525438
O21   O     O_R   0.500010 0.678080 0.617100 -0.543278
O22   O     O_R   0.499990 0.678040 0.382960 -0.509949
O23   O     O_R   0.620580 0.500020 0.617020 -0.530872
O24   O     O_R   0.620550 0.499970 0.382880 -0.499578
O25   O     O_3   0.070595 0.543430 0.732984 -0.499009

loop_
_geom_bond_atom_site_label_1
_geom_bond_atom_site_label_2
_ccdc_geom_bond_type
C55   H93   S    
C14   C56   T    
C11   O14   S    
C52   H84   S    
C49   H76   S    
C48   H74   S    
C19   C20   S    
C4    O20   A    
C30   H29   S    
C35   H41   S    
C24   H13   S    
C2    O5    S    
C46   H68   S    
C49   O16   S    
C23   C56   S    
C53   C54   S    
C55   H94   S    
C12   C23   S    
C44   H65   S    
C36   H42   S    
C1    C5    S    
C48   H73   S    
C1    O1    A    
Cu1   O1    S    
C37   H46   S    
C10   C15   S    
C45   O18   S    
C27   O5    S    
C38   C39   S    
C16   O25   S    
C18   H2    S    
C40   H54   S    
Cu1   O21   S    
C32   H36   S    
C13   C23   S    
C55   H92   S    
C33   H37   S    
C22   H11   S    
C29   H27   S    
C20   H6    S    
C48   O15   S    
C11   C15   S    
C40   H53   S    
C35   C36   S    
C16   C17   S    
C41   H57   S    
C38   H49   S    
C50   H80   S    
C16   H45   S    
C39   H50   S    
C6    O8    S    
C11   O15   S    
C49   H77   S    
C47   H72   S    
C53   H88   S    
C15   C57   S    
C34   H23   S    
C30   O6    S    
C29   H28   S    
C42   O11   S    
C47   H70   S    
C50   C51   S    
C44   H64   S    
C31   O7    S    
C52   O17   S    
C25   H17   S    
C5    O7    S    
C46   H66   S    
C24   C25   S    
C37   H47   S    
C30   H31   S    
C39   C40   S    
C2    C59   D    
C54   H91   S    
C3    C5    D    
C51   H83   S    
C44   H63   S    
C53   H87   S    
C26   H19   S    
C46   O13   S    
C21   H8    S    
Cu1   Cu2   S    
C33   H38   S    
C13   O16   S    
C9    C14   S    
Cu1   N1    S    
C37   H44   S    
C59   O4    S    
Cu2   N2    S    
N2    O13   S    
C12   H1    S    
C31   C32   S    
N1    O9    S    
C19   H3    S    
C23   C34   S    
C17   C18   S    
C24   H14   S    
C34   C45   S    
C41   H58   S    
C38   H48   S    
C43   H61   S    
C54   H90   S    
C9    O23   A    
C10   C12   S    
C10   O11   S    
C39   H51   S    
C32   H35   S    
C13   H12   S    
Cu2   O22   S    
C52   H86   S    
C40   H52   S    
C43   C44   S    
C28   H25   S    
Cu1   O19   S    
C25   H16   S    
Cu2   O12   S    
C42   C43   S    
C15   C45   S    
C41   H55   S    
C43   H62   S    
C22   H10   S    
C27   C28   S    
C51   H82   S    
C53   O18   S    
C51   H81   S    
C20   H5    S    
C38   O9    S    
C7    O10   S    
C54   C55   S    
C28   C29   S    
C16   H34   S    
C52   H85   S    
C48   H75   S    
C27   H21   S    
C2    C8    S    
Cu1   O23   S    
C30   H30   S    
C35   H40   S    
C46   H69   S    
C47   O14   S    
C17   H67   S    
C6    C7    S    
C7    N2    D    
C17   H56   S    
C26   H20   S    
C31   H33   S    
C21   H9    S    
C26   O4    S    
Cu2   O24   S    
C26   H18   S    
C47   H71   S    
C36   H43   S    
C33   H39   S    
C19   O2    S    
C3    O6    S    
C25   H15   S    
C27   H22   S    
C21   H7    S    
C31   H32   S    
C45   O17   S    
C32   C33   S    
Cu2   O20   S    
C11   C13   S    
C8    O22   A    
C42   H59   S    
C57   C58   T    
C22   O3    S    
C10   O25   S    
C41   O10   S    
C1    O12   A    
C35   O8    S    
C19   H4    S    
C22   C24   S    
C12   O2    S    
C18   H78   S    
C29   H26   S    
C9    O24   A    
C8    O21   A    
C20   C21   S    
C36   C37   S    
C49   C50   S    
C4    O19   A    
C4    C58   S    
C28   H24   S    
C50   H79   S    
C18   H89   S    
C6    N1    D    
C42   H60   S    
C3    C59   S    
C34   O3    S    
