data_mof_unit_17004.cif
_audit_creation_date              2012-10-26T18:58:58-0400
_audit_creation_method            fapswitch 2.2
_symmetry_space_group_name_H-M    P1
_symmetry_Int_Tables_number       1
_space_group_crystal_system       triclinic
_cell_length_a                    19.377285
_cell_length_b                    18.110782
_cell_length_c                    17.719093
_cell_angle_alpha                 89.930051
_cell_angle_beta                  89.899582
_cell_angle_gamma                 90.104898
_cell_volume                      6218.27460848

loop_
_atom_site_label
_atom_site_type_symbol
_atom_type_description
_atom_site_fract_x
_atom_site_fract_y
_atom_site_fract_z
_atom_type_partial_charge
C1    C     C_R   0.367554 0.499998 0.499236 0.549873
C2    C     C_R   0.963060 0.493782 0.433572 0.217325
C3    C     C_R   0.072723 0.508060 0.498386 -0.061764
C4    C     C_R   0.928471 0.508121 0.501873 -0.051451
C5    C     C_R   0.454943 0.720836 0.455327 0.036419
C6    C     C_R   0.542272 0.279064 0.547756 0.027690
C7    C     C_R   0.544458 0.720635 0.545704 0.020655
C8    C     C_R   0.457022 0.279423 0.452642 0.028298
C9    C     C_R   0.452206 0.798520 0.456324 0.193189
C10   C     C_R   0.541363 0.201053 0.551078 0.198009
C11   C     C_R   0.546952 0.798920 0.546097 0.200269
C12   C     C_R   0.632647 0.500176 0.500498 0.551751
C13   C     C_R   0.456539 0.201366 0.449961 0.196758
C14   C     C_R   0.499319 0.838432 0.501269 0.032951
C15   C     C_R   0.498675 0.161419 0.500653 0.039124
C16   C     C_R   0.488859 0.960964 0.568482 -0.088058
C17   C     C_R   0.508024 0.038503 0.433531 -0.084921
C18   C     C_R   0.507952 0.960935 0.433688 -0.087193
C19   C     C_R   0.488384 0.038543 0.568247 -0.085337
C20   C     C_R   0.498259 0.078441 0.500814 0.095323
C21   C     C_R   0.498702 0.921195 0.501207 0.081931
C22   C     C_R   0.499821 0.500011 0.355372 0.556480
C23   C     C_R   0.852884 0.505401 0.503972 0.107769
C24   C     C_R   0.500307 0.499942 0.644640 0.556294
C25   C     C_R   0.493807 0.566107 0.846476 0.234218
C26   C     C_R   0.487810 0.433263 0.153911 0.237347
C27   C     C_R   0.512300 0.565453 0.153470 0.234009
C28   C     C_R   0.510240 0.432577 0.846256 0.237208
C29   C     C_R   0.492107 0.565819 0.767588 -0.135225
C30   C     C_R   0.486388 0.434264 0.232972 -0.138763
C31   C     C_R   0.512935 0.565222 0.232368 -0.132556
C32   C     C_R   0.510993 0.433438 0.767170 -0.139540
C33   C     C_R   0.501049 0.499732 0.727540 -0.078885
C34   C     C_R   0.148152 0.504427 0.496548 0.092340
C35   C     C_R   0.499685 0.499879 0.272493 -0.078868
C36   C     C_R   0.502114 0.499239 0.885526 0.048039
C37   C     C_R   0.500321 0.499216 0.114513 0.046625
C38   C     C_1   0.501695 0.498989 0.966228 0.079666
C39   C     C_1   0.501119 0.498957 0.033812 0.078353
C40   C     C_R   0.746427 0.435472 0.498198 -0.137422
C41   C     C_R   0.254286 0.441668 0.528072 -0.150533
C42   C     C_R   0.257486 0.560506 0.464471 -0.142517
C43   C     C_R   0.743537 0.569163 0.506995 -0.142507
C44   C     C_R   0.818394 0.437577 0.498877 -0.064134
C45   C     C_R   0.708445 0.501370 0.501935 0.007910
C46   C     C_R   0.182414 0.444109 0.528624 -0.101949
C47   C     C_R   0.185734 0.561861 0.463152 -0.101763
C48   C     C_R   0.815255 0.571062 0.508124 -0.124261
C49   C     C_3   0.544956 0.671500 0.886818 -0.113333
C50   C     C_3   0.526191 0.318565 0.122576 -0.120249
C51   C     C_3   0.467675 0.672602 0.109340 -0.111664
C52   C     C_3   0.465664 0.320228 0.877814 -0.121198
C53   C     C_3   0.923914 0.607501 0.655544 0.031118
C54   C     C_3   0.937566 0.616481 0.740010 -0.242379
C55   C     C_3   0.935506 0.697443 0.763639 -0.501554
C56   C     C_R   0.292154 0.500474 0.497084 0.004853
C57   C     C_3   0.075181 0.392494 0.365124 0.027885
C58   C     C_3   0.127030 0.371079 0.303941 -0.256615
C59   C     C_3   0.136018 0.287498 0.299531 -0.492911
C60   C     C_3   0.105676 0.609391 0.631575 0.007401
C61   C     C_3   0.177125 0.604295 0.667727 -0.246663
C62   C     C_3   0.215056 0.678142 0.664405 -0.484412
C63   C     C_3   0.930780 0.530525 0.314171 0.029319
C64   C     C_3   0.875081 0.589391 0.325531 -0.279487
C65   C     C_3   0.872614 0.642999 0.259114 -0.487335
C66   C     C_3   0.336967 0.825232 0.442331 0.007508
C67   C     C_R   0.965651 0.525350 0.567783 0.232383
C68   C     C_3   0.291349 0.787642 0.383310 -0.258725
C69   C     C_3   0.218252 0.775392 0.413087 -0.494212
C70   C     C_3   0.580888 0.184678 0.673688 -0.004687
C71   C     C_3   0.649613 0.216953 0.700544 -0.265807
C72   C     C_3   0.645498 0.241479 0.782774 -0.473028
C73   C     C_3   0.659221 0.809548 0.593614 0.009259
C74   C     C_3   0.674838 0.775485 0.670909 -0.261965
C75   C     C_3   0.745595 0.738700 0.671889 -0.495920
C76   C     C_3   0.414070 0.186042 0.328191 -0.003345
C77   C     C_3   0.345078 0.219524 0.303895 -0.268755
C78   C     C_R   0.035510 0.490143 0.432991 0.205594
C79   C     C_3   0.347448 0.245142 0.221860 -0.476023
C80   C     C_R   0.038119 0.526847 0.565766 0.227487
Cu1   Cu    Cu3+1 0.500000 0.573360 0.500000 0.918460
Cu2   Cu    Cu3+1 0.500000 0.426640 0.500000 0.919551
H1    H     H_    0.483693 0.617377 0.737958 0.146415
H2    H     H_    0.153467 0.399325 0.554129 0.116023
H3    H     H_    0.159393 0.608353 0.437761 0.102603
H4    H     H_    0.841493 0.623847 0.510809 0.075385
H5    H     H_    0.420144 0.690029 0.419583 0.132780
H6    H     H_    0.576717 0.310179 0.583597 0.131885
H7    H     H_    0.578091 0.688797 0.581653 0.130830
H8    H     H_    0.422880 0.310920 0.416868 0.133223
H9    H     H_    0.480812 0.931876 0.621212 0.129723
H10   H     H_    0.516600 0.067398 0.380811 0.112438
H11   H     H_    0.516061 0.931813 0.381078 0.129905
H12   H     H_    0.474364 0.383895 0.263310 0.127479
H13   H     H_    0.479614 0.067468 0.620810 0.110452
H14   H     H_    0.560597 0.689059 0.829039 0.102713
H15   H     H_    0.587115 0.639420 0.914082 0.130558
H16   H     H_    0.536881 0.722166 0.920798 0.144729
H17   H     H_    0.529050 0.296872 0.181214 0.095226
H18   H     H_    0.576579 0.343138 0.105373 0.131426
H19   H     H_    0.516094 0.270969 0.084802 0.141679
H20   H     H_    0.449800 0.690724 0.166094 0.108501
H21   H     H_    0.425721 0.642432 0.079448 0.131927
H22   H     H_    0.479613 0.722912 0.075980 0.145896
H23   H     H_    0.524073 0.616173 0.261956 0.149777
H24   H     H_    0.462005 0.298312 0.819373 0.094702
H25   H     H_    0.416582 0.347810 0.894384 0.130243
H26   H     H_    0.472919 0.272392 0.916128 0.142132
H27   H     H_    0.869886 0.624445 0.644243 0.132905
H28   H     H_    0.958361 0.645685 0.623239 0.095931
H29   H     H_    0.897961 0.585209 0.772432 0.168564
H30   H     H_    0.989024 0.593340 0.754113 0.197866
H31   H     H_    0.976168 0.729306 0.733564 0.137063
H32   H     H_    0.944793 0.701765 0.825290 0.148690
H33   H     H_    0.884308 0.721705 0.750799 0.145658
H34   H     H_    0.519794 0.382379 0.736917 0.128176
H35   H     H_    0.023937 0.368328 0.351015 0.168114
H36   H     H_    0.093234 0.368945 0.419856 0.120299
H37   H     H_    0.108892 0.392014 0.248424 0.170427
H38   H     H_    0.177823 0.396912 0.316539 0.178751
H39   H     H_    0.156569 0.265807 0.353674 0.148085
H40   H     H_    0.173029 0.273798 0.253793 0.145589
H41   H     H_    0.085869 0.260376 0.287030 0.148251
H42   H     H_    0.073783 0.647523 0.665918 0.129529
H43   H     H_    0.110833 0.634548 0.574307 0.104140
H44   H     H_    0.171595 0.586891 0.727614 0.168526
H45   H     H_    0.720635 0.382519 0.494235 0.125543
H46   H     H_    0.208475 0.562162 0.637915 0.187714
H47   H     H_    0.223304 0.695148 0.604803 0.142262
H48   H     H_    0.266167 0.672711 0.692082 0.157246
H49   H     H_    0.184956 0.721377 0.694213 0.141920
H50   H     H_    0.922605 0.503705 0.258539 0.154517
H51   H     H_    0.982585 0.557238 0.311494 0.159931
H52   H     H_    0.823845 0.562342 0.331888 0.190880
H53   H     H_    0.886456 0.621131 0.377613 0.145475
H54   H     H_    0.923192 0.671215 0.252237 0.143330
H55   H     H_    0.832368 0.685353 0.269581 0.152553
H56   H     H_    0.280238 0.394924 0.553448 0.125958
H57   H     H_    0.859701 0.613123 0.206263 0.152483
H58   H     H_    0.315215 0.880584 0.455010 0.156803
H59   H     H_    0.334827 0.793062 0.496245 0.111056
H60   H     H_    0.289141 0.822562 0.331743 0.174809
H61   H     H_    0.313825 0.733421 0.367631 0.149487
H62   H     H_    0.219193 0.739592 0.464014 0.135932
H63   H     H_    0.186612 0.747860 0.369122 0.144393
H64   H     H_    0.193943 0.829039 0.427592 0.146255
H65   H     H_    0.569431 0.134536 0.707698 0.146540
H66   H     H_    0.538035 0.224266 0.685368 0.100401
H67   H     H_    0.285881 0.606054 0.439638 0.115051
H68   H     H_    0.690681 0.174556 0.694711 0.178933
H69   H     H_    0.664012 0.265146 0.665009 0.158475
H70   H     H_    0.606307 0.285627 0.789310 0.185498
H71   H     H_    0.696344 0.263542 0.800829 0.155879
H72   H     H_    0.631629 0.194083 0.819683 0.146639
H73   H     H_    0.695327 0.856460 0.584538 0.155834
H74   H     H_    0.670292 0.769697 0.547166 0.105261
H75   H     H_    0.673398 0.819452 0.714599 0.168845
H76   H     H_    0.635039 0.733744 0.685794 0.153547
H77   H     H_    0.747592 0.693288 0.629910 0.142872
H78   H     H_    0.715650 0.620864 0.509715 0.117369
H79   H     H_    0.755342 0.715099 0.728726 0.145456
H80   H     H_    0.786632 0.779686 0.658803 0.139269
H81   H     H_    0.423764 0.136100 0.293420 0.147182
H82   H     H_    0.457272 0.225030 0.315360 0.100859
H83   H     H_    0.303556 0.177564 0.310490 0.175925
H84   H     H_    0.332190 0.267375 0.340389 0.157890
H85   H     H_    0.387251 0.288710 0.214556 0.183815
H86   H     H_    0.296611 0.268346 0.205642 0.147587
H87   H     H_    0.359454 0.198039 0.183984 0.147787
H88   H     H_    0.847254 0.386533 0.495213 0.119837
N1    N     N_R   0.500000 0.683620 0.500000 -0.279706
N2    N     N_R   0.500000 0.316380 0.500000 -0.280065
O1    O     O_R   0.400190 0.561980 0.499990 -0.504713
O2    O     O_3   0.471744 0.369507 0.114588 -0.570509
O3    O     O_3   0.527964 0.629475 0.114419 -0.565314
O4    O     O_3   0.522766 0.367949 0.885721 -0.570630
O5    O     O_3   0.931373 0.532132 0.636081 -0.532914
O6    O     O_3   0.070456 0.470258 0.367969 -0.569115
O7    O     O_3   0.074514 0.538461 0.632027 -0.540636
O8    O     O_3   0.925345 0.474771 0.370025 -0.566563
O9    O     O_3   0.404302 0.835593 0.412597 -0.584275
O10   O     O_3   0.586827 0.162696 0.597155 -0.574179
O11   O     O_3   0.591228 0.838295 0.593090 -0.581756
O12   O     O_R   0.599810 0.438020 0.500010 -0.501596
O13   O     O_3   0.410067 0.163295 0.404700 -0.576619
O14   O     O_R   0.599810 0.561980 0.500010 -0.505386
O15   O     O_R   0.400190 0.438020 0.499990 -0.502027
O16   O     O_R   0.500000 0.561980 0.391260 -0.500761
O17   O     O_R   0.500000 0.438020 0.608740 -0.503076
O18   O     O_R   0.500000 0.561980 0.608740 -0.501280
O19   O     O_R   0.500000 0.438020 0.391260 -0.501678
O20   O     O_3   0.482743 0.631053 0.885586 -0.566439

loop_
_geom_bond_atom_site_label_1
_geom_bond_atom_site_label_2
_ccdc_geom_bond_type
C53   H28   S    
C59   H39   S    
C66   C68   S    
C16   C21   A    
C7    N1    A    
Cu2   O19   S    
C18   C21   A    
C69   H63   S    
C73   C74   S    
C62   H48   S    
C19   C20   A    
Cu1   Cu2   S    
C66   H58   S    
C66   H59   S    
C6    N2    A    
C53   C54   S    
C23   C48   A    
C51   H20   S    
C7    C11   A    
C22   C35   S    
C1    O1    A    
C50   H17   S    
C8    C13   A    
C30   C35   A    
C75   H80   S    
C47   H3    S    
C14   C21   S    
C60   H43   S    
C1    C56   S    
C29   H1    S    
C10   C15   A    
C13   O13   S    
C57   O6    S    
C73   O11   S    
C11   C14   A    
C71   H68   S    
C26   O2    S    
C51   H21   S    
C7    H7    S    
C29   C33   A    
C17   C20   A    
C6    H6    S    
C68   H61   S    
C60   H42   S    
C42   H67   S    
C42   C56   A    
C49   H16   S    
C70   O10   S    
C71   H69   S    
C52   H25   S    
C68   C69   S    
C72   H70   S    
C41   C46   A    
C68   H60   S    
C61   H44   S    
C34   C46   A    
C79   H86   S    
C43   C48   A    
C52   O4    S    
Cu1   O16   S    
C65   H55   S    
C59   H40   S    
C77   C79   S    
C64   H53   S    
C52   H24   S    
C75   H77   S    
C25   C29   A    
C69   H64   S    
C31   H23   S    
C62   H47   S    
C40   C45   A    
C17   H10   S    
C2    O8    S    
C3    C80   A    
C64   H52   S    
C1    O15   A    
C59   H41   S    
C15   C20   S    
Cu2   N2    S    
C72   H72   S    
C74   C75   S    
C74   H76   S    
C27   C31   A    
C80   O7    S    
C28   C32   A    
C11   O11   S    
C76   C77   S    
C43   H78   S    
C67   O5    S    
C27   O3    S    
C49   O20   S    
C4    C23   S    
C28   O4    S    
C55   H31   S    
C3    C34   S    
C77   H84   S    
C40   H45   S    
C63   O8    S    
C60   C61   S    
C60   O7    S    
Cu1   O1    S    
C2    C4    A    
C9    C14   A    
C41   C56   A    
C5    C9    A    
C2    C78   A    
Cu2   O12   S    
C12   O14   A    
C73   H73   S    
C58   H38   S    
C17   C18   A    
C5    N1    A    
C54   H30   S    
C63   H50   S    
C32   H34   S    
C51   O3    S    
C43   C45   A    
C52   H26   S    
C41   H56   S    
C24   O17   A    
C50   H19   S    
C46   H2    S    
C66   O9    S    
C26   C30   A    
C13   C15   A    
Cu2   O17   S    
C10   O10   S    
C31   C35   A    
C76   H82   S    
C44   H88   S    
C70   H66   S    
C63   H51   S    
Cu1   O14   S    
C70   C71   S    
C19   H13   S    
C57   H35   S    
C53   H27   S    
C54   C55   S    
C72   H71   S    
C74   H75   S    
C78   O6    S    
C62   H49   S    
C67   C80   A    
C12   C45   S    
C25   O20   S    
C53   O5    S    
C6    C10   A    
C4    C67   A    
C69   H62   S    
C26   C37   A    
C34   C47   A    
C55   H32   S    
C50   H18   S    
C24   C33   S    
C50   O2    S    
Cu2   O15   S    
C75   H79   S    
C64   C65   S    
C79   H87   S    
C36   C38   S    
C51   H22   S    
C71   C72   S    
C37   C39   S    
C32   C33   A    
C57   C58   S    
C12   O12   A    
C55   H33   S    
C27   C37   A    
C16   C19   A    
C38   C39   T    
C73   H74   S    
C58   H37   S    
C54   H29   S    
C61   H46   S    
C48   H4    S    
C42   C47   A    
Cu1   N1    S    
C49   H14   S    
C22   O16   A    
C61   C62   S    
C65   H57   S    
C58   C59   S    
Cu1   O18   S    
C65   H54   S    
C9    O9    S    
C23   C44   A    
C25   C36   A    
C49   H15   S    
C63   C64   S    
C5    H5    S    
C40   C44   A    
C8    H8    S    
C28   C36   A    
C16   H9    S    
C30   H12   S    
C18   H11   S    
C76   H81   S    
C24   O18   A    
C70   H65   S    
C79   H85   S    
C22   O19   A    
C3    C78   A    
C77   H83   S    
C76   O13   S    
C8    N2    A    
C57   H36   S    
