data_mof_unit_28299.cif
_audit_creation_date              2012-12-11T14:56:36-0500
_audit_creation_method            fapswitch 2.2
_symmetry_space_group_name_H-M    P1
_symmetry_Int_Tables_number       1
_space_group_crystal_system       triclinic
_cell_length_a                    10.505624
_cell_length_b                    10.629927
_cell_length_c                    17.047437
_cell_angle_alpha                 80.390946
_cell_angle_beta                  89.590468
_cell_angle_gamma                 118.958845
_cell_volume                      1633.79320912

loop_
_atom_site_label
_atom_site_type_symbol
_atom_type_description
_atom_site_fract_x
_atom_site_fract_y
_atom_site_fract_z
_atom_type_partial_charge
C1    C     C_R   0.279708 0.889343 0.132681 0.533948
C2    C     C_R   0.829627 0.451064 0.252282 -0.038816
C3    C     C_R   0.806664 0.418817 0.176777 -0.132627
C4    C     C_R   0.667915 0.368138 0.149238 -0.004967
C5    C     C_1   0.635061 0.871284 0.211291 -0.029788
C6    C     C_1   0.661845 0.855674 0.278996 -0.026270
C7    C     C_1   0.229342 0.855391 0.215547 -0.027031
C8    C     C_1   0.180666 0.835701 0.283276 -0.017904
C9    C     C_1   0.662114 0.358254 0.780534 -0.029205
C10   C     C_1   0.684798 0.402405 0.709945 -0.024769
C11   C     C_R   0.616996 0.707794 0.807918 -0.140821
C12   C     C_R   0.638167 0.283733 0.085312 0.524579
C13   C     C_R   0.590525 0.693449 0.730273 -0.035628
C14   C     C_R   0.667275 0.817791 0.667946 0.015815
C15   C     C_R   0.761832 0.955052 0.686200 -0.149965
C16   C     C_R   0.774460 0.970377 0.765218 -0.146547
C17   C     C_R   0.695817 0.847120 0.825977 0.005160
C18   C     C_R   0.086777 0.887382 0.789595 -0.129435
C19   C     C_R   0.072521 0.885274 0.709868 -0.119113
C20   C     C_R   0.116604 0.803149 0.671755 0.030035
C21   C     C_R   0.164010 0.713379 0.715590 -0.136843
C22   C     C_R   0.181148 0.717635 0.795782 -0.123936
C23   C     C_R   0.601320 0.881668 0.131086 0.539524
C24   C     C_R   0.149883 0.811281 0.831471 0.023824
C25   C     C_R   0.683384 0.813242 0.358587 0.546310
C26   C     C_R   0.729230 0.461881 0.383024 0.563038
C27   C     C_R   0.109181 0.812834 0.360107 0.551279
C28   C     C_R   0.677662 0.797888 0.586832 0.533568
C29   C     C_R   0.717336 0.446657 0.625968 0.560088
C30   C     C_R   0.091066 0.798994 0.589223 0.543566
C31   C     C_R   0.215887 0.857749 0.902588 0.558925
C32   C     C_R   0.640348 0.290962 0.861942 0.549559
C33   C     C_R   0.649336 0.865498 0.900776 0.558539
C34   C     C_R   0.558892 0.378664 0.191733 -0.031027
C35   C     C_R   0.584353 0.419152 0.266162 -0.137057
C36   C     C_R   0.714829 0.444300 0.299593 -0.013352
Cr1   Cr    Cr6+3 0.402240 0.783890 0.019450 1.042369
Cr2   Cr    Cr6+3 0.382360 0.097900 0.991800 1.052313
Cr3   Cr    Cr6+3 0.715380 0.118170 0.988700 1.033970
Cr4   Cr    Cr6+3 0.936650 0.882420 0.465510 1.038381
Cr5   Cr    Cr6+3 0.605770 0.565620 0.493360 1.054598
Cr6   Cr    Cr6+3 0.921340 0.550490 0.496380 1.043517
H1    H     H_    0.028119 0.949659 0.677892 0.151310
H2    H     H_    0.192235 0.644828 0.687396 0.140088
H3    H     H_    0.229007 0.656586 0.827817 0.146505
H4    H     H_    0.498280 0.422166 0.299876 0.157713
H5    H     H_    0.894831 0.419786 0.142622 0.157835
H6    H     H_    0.557951 0.612162 0.855401 0.137417
H7    H     H_    0.824013 0.050441 0.639303 0.144927
H8    H     H_    0.836664 0.079225 0.778443 0.149394
H9    H     H_    0.059208 0.957531 0.816668 0.141104
O1    O     O_R   0.521780 0.757110 0.108900 -0.496774
O2    O     O_R   0.513330 0.228330 0.898660 -0.487005
O3    O     O_R   0.739230 0.266130 0.888050 -0.510570
O4    O     O_R   0.712580 0.991850 0.918770 -0.495937
O5    O     O_3   0.499990 0.999980 0.999980 -0.292353
O6    O     O_R   0.083770 0.911170 0.376030 -0.493509
O7    O     O_R   0.808770 0.880340 0.383890 -0.485166
O8    O     O_R   0.584340 0.689460 0.394160 -0.515338
O9    O     O_R   0.614320 0.443940 0.423590 -0.493413
O10   O     O_R   0.805020 0.410040 0.421340 -0.488470
O11   O     O_R   0.049240 0.685450 0.403290 -0.498795
O12   O     O_R   0.275160 0.783810 0.101120 -0.497358
O13   O     O_R   0.077520 0.903010 0.551800 -0.513870
O14   O     O_R   0.802980 0.872780 0.546830 -0.509687
O15   O     O_R   0.578090 0.681300 0.569920 -0.507078
O16   O     O_R   0.608530 0.436370 0.586530 -0.464272
O17   O     O_R   0.798770 0.401880 0.597100 -0.502577
O18   O     O_R   0.043450 0.677890 0.566230 -0.518708
O19   O     O_3   0.821250 0.666180 0.485090 -0.311065
O20   O     O_R   0.237900 0.972600 0.090980 -0.483849
O21   O     O_R   0.511190 0.220540 0.061620 -0.507912
O22   O     O_R   0.736920 0.257720 0.063840 -0.526258
O23   O     O_R   0.710450 0.984050 0.081720 -0.482805
O24   O     O_R   0.524090 0.765520 0.933110 -0.514834
O25   O     O_R   0.277300 0.791600 0.938160 -0.501043
O26   O     O_R   0.240210 0.981010 0.915190 -0.505704
C37   C     C_1   0.418662 0.342897 0.162922 0.239979
N1    N     N_1   0.306228 0.314401 0.139977 -0.267642
C38   C     C_1   0.967956 0.476888 0.280809 0.235683
N2    N     N_1   0.078418 0.495434 0.303115 -0.268960
C39   C     C_1   0.477835 0.551110 0.718731 0.212581
N3    N     N_1   0.386812 0.437356 0.710075 -0.281388

loop_
_geom_bond_atom_site_label_1
_geom_bond_atom_site_label_2
_ccdc_geom_bond_type
C33   O4    A    
C30   O13   A    
C35   C36   A    
C31   O25   A    
C7    C8    T    
Cr5   O16   S    
C20   C30   S    
C1    O20   A    
Cr4   O19   S    
C18   C24   A    
C21   C22   A    
C26   O10   A    
C16   H8    S    
C18   C19   A    
C5    C6    T    
Cr3   O3    S    
C15   C16   A    
C21   H2    S    
Cr6   O19   S    
C34   C35   A    
Cr3   O23   S    
C9    C32   S    
C29   O16   A    
Cr1   O5    S    
C33   O24   A    
Cr3   O4    S    
C19   C20   A    
C16   C17   A    
C4    C12   S    
C9    C10   T    
Cr6   O11   S    
C15   H7    S    
Cr1   O24   S    
C13   C14   A    
Cr6   O17   S    
C11   H6    S    
C17   C33   S    
C1    O12   A    
C32   O3    A    
Cr1   O12   S    
C19   H1    S    
C18   H9    S    
C31   O26   A    
Cr2   O21   S    
C4    C34   A    
Cr4   O7    S    
Cr5   O8    S    
C27   O6    A    
Cr1   O1    S    
C37   N1    T    
C13   C39   S    
Cr6   O18   S    
C28   O15   A    
C27   O11   A    
C29   O17   A    
Cr3   O5    S    
C5    C23   S    
Cr6   O10   S    
C26   C36   S    
Cr1   O25   S    
Cr4   O14   S    
C22   C24   A    
C25   O7    A    
C23   O23   A    
C3    C4    A    
C32   O2    A    
C30   O18   A    
C2    C36   A    
Cr2   O20   S    
C11   C17   A    
Cr4   O6    S    
C1    C7    S    
Cr5   O9    S    
C38   N2    T    
Cr5   O15   S    
Cr2   O26   S    
Cr4   O13   S    
C2    C3    A    
C24   C31   S    
C34   C37   S    
C11   C13   A    
C10   C29   S    
C23   O1    A    
Cr2   O2    S    
C3    H5    S    
C28   O14   A    
Cr3   O22   S    
C12   O21   A    
C2    C38   S    
C6    C25   S    
C22   H3    S    
Cr2   O5    S    
C20   C21   A    
C39   N3    T    
C8    C27   S    
C14   C15   A    
C25   O8    A    
C14   C28   S    
C12   O22   A    
C35   H4    S    
C26   O9    A    
Cr5   O19   S    
