data_mof_unit_17716.cif
_audit_creation_date              2012-12-11T20:00:38-0500
_audit_creation_method            fapswitch 2.2
_symmetry_space_group_name_H-M    P1
_symmetry_Int_Tables_number       1
_space_group_crystal_system       triclinic
_cell_length_a                    8.28912
_cell_length_b                    16.16875
_cell_length_c                    26.935181
_cell_angle_alpha                 72.822847
_cell_angle_beta                  96.45637
_cell_angle_gamma                 96.371345
_cell_volume                      3415.56999415

loop_
_atom_site_label
_atom_site_type_symbol
_atom_type_description
_atom_site_fract_x
_atom_site_fract_y
_atom_site_fract_z
_atom_type_partial_charge
Ba1   Ba    Ba6+2 0.337820 0.939830 0.518500 1.704306
Ba2   Ba    Ba6+2 0.851970 0.060110 0.481480 1.696165
C1    C     C_3   0.140269 0.511912 0.648594 -0.000655
C2    C     C_R   0.475979 0.391378 0.192332 0.589774
C3    C     C_2   0.289561 0.274878 0.281021 -0.067070
C4    C     C_3   0.603225 0.617920 0.622265 0.356933
C5    C     C_3   0.281652 0.243270 0.339634 -0.106348
C6    C     C_1   0.489871 0.146425 0.341429 0.052295
C7    C     C_2   0.510768 0.181249 0.290877 -0.090001
C8    C     C_2   0.408073 0.252073 0.258094 0.217737
C9    C     C_R   0.515487 0.399012 0.102311 -0.110425
C10   C     C_R   0.481543 0.307889 0.115488 -0.035886
C11   C     C_R   0.481859 0.266043 0.076797 -0.049538
C12   C     C_3   0.094170 0.605397 0.629289 0.368881
C13   C     C_R   0.515630 0.441482 0.141398 -0.056890
C14   C     C_2   0.406517 0.181819 0.367402 -0.214813
C15   C     C_2   0.816570 0.828641 0.632933 -0.261901
C16   C     C_3   0.626240 0.526812 0.657860 -0.333927
C17   C     C_R   0.568906 0.453222 0.957934 -0.036897
C18   C     C_R   0.629023 0.586338 0.985426 0.044866
C19   C     C_R   0.615414 0.543714 0.945712 0.050939
C20   C     C_R   0.548726 0.414720 0.916633 -0.148987
C21   C     C_R   0.582198 0.461391 0.865618 0.447047
C22   C     C_R   0.630553 0.551315 0.853071 -0.090289
C23   C     C_3   0.073003 0.006777 0.645859 0.281550
C24   C     C_R   0.648182 0.592180 0.893284 -0.136053
C25   C     C_R   0.698543 0.681740 0.881111 -0.018070
C26   C     C_R   0.733565 0.729044 0.829548 0.597020
C27   C     C_R   0.662215 0.601400 0.801449 0.631063
C28   C     C_3   0.608762 0.886085 0.387700 0.389551
C29   C     C_2   0.876912 0.709107 0.716183 -0.102539
C30   C     C_3   0.899364 0.746438 0.658595 -0.084213
C31   C     C_1   0.709143 0.854397 0.656821 0.037498
C32   C     C_2   0.672481 0.813354 0.705467 -0.081776
C33   C     C_2   0.760984 0.736513 0.737876 0.214310
C34   C     C_3   0.059994 0.965834 0.704025 -0.334173
C35   C     C_R   0.542569 0.404222 0.010644 0.046546
C36   C     C_R   0.549447 0.447406 0.049926 0.053996
C37   C     C_R   0.590085 0.538424 0.037262 -0.013552
C38   C     C_R   0.511426 0.312730 0.025791 -0.097380
C39   C     C_R   0.555050 0.532642 0.127863 0.227996
C40   C     C_3   0.638380 0.823716 0.357558 0.311763
C41   C     C_R   0.682030 0.675966 0.971690 -0.094674
C42   C     C_R   0.715604 0.722181 0.920948 -0.050791
C43   C     C_R   0.590160 0.578788 0.077120 -0.108720
C44   C     C_2   0.410801 0.239591 0.521555 -0.277665
C45   C     C_3   0.535483 0.381067 0.383731 0.360995
C46   C     C_R   0.796699 0.761212 0.488646 -0.285363
C47   C     C_2   0.267181 0.304893 0.573859 -0.124028
C48   C     C_2   0.276137 0.239770 0.553064 0.047001
C49   C     C_2   0.521896 0.307145 0.509841 0.001091
C50   C     C_3   0.481243 0.391489 0.516962 -0.032131
C51   C     C_3   0.397641 0.378790 0.566868 0.008833
C52   C     C_3   0.602386 0.114434 0.615617 0.313927
C53   C     C_2   0.617269 0.460661 0.511532 -0.075157
C54   C     C_2   0.581009 0.542742 0.490984 -0.079563
C55   C     C_R   0.849276 0.612255 0.462688 0.005048
C56   C     C_3   0.476197 0.471395 0.360821 -0.318430
C57   C     C_R   0.705855 0.615620 0.484716 -0.035911
C58   C     C_R   0.962388 0.684285 0.451759 -0.143518
C59   C     C_R   0.932015 0.760285 0.462666 0.037366
C60   C     C_R   0.679517 0.690862 0.497633 -0.001893
C61   C     C_3   0.659684 0.186125 0.641145 -0.370133
C62   C     C_3   0.130247 0.877398 0.341473 0.464693
C63   C     C_3   0.021802 0.812316 0.318967 -0.410346
C64   C     C_3   0.524660 0.727544 0.313031 0.280508
C65   C     C_3   0.367827 0.693046 0.288439 -0.327955
C66   C     C_3   0.940608 0.524172 0.300764 0.277066
C67   C     C_3   0.919631 0.326451 0.331792 0.253263
C68   C     C_3   0.955431 0.537560 0.354817 -0.335303
C69   C     C_3   0.696657 0.372784 0.830372 0.300975
C70   C     C_3   0.674365 0.327163 0.787821 -0.262544
C71   C     C_3   0.845649 0.391931 0.283748 0.271991
C72   C     C_R   0.448367 0.259973 0.167092 0.607904
H1    H     H_    0.098777 0.629149 0.586219 0.008777
H2    H     H_    0.262198 0.507183 0.637281 0.117666
H3    H     H_    0.957099 0.762993 0.349522 0.051045
H4    H     H_    0.096991 0.778494 0.300943 0.115279
H5    H     H_    0.931678 0.846013 0.288119 0.137322
H6    H     H_    0.967520 0.603512 0.639054 -0.069763
H7    H     H_    0.051104 0.470537 0.630471 0.018086
H8    H     H_    0.950685 0.002684 0.625096 0.006563
H9    H     H_    0.155735 0.970225 0.632293 0.089669
H10   H     H_    0.971389 0.998783 0.718035 0.138687
H11   H     H_    0.018345 0.895963 0.712004 0.081074
H12   H     H_    0.714127 0.860689 0.325549 0.056692
H13   H     H_    0.180877 0.971859 0.725655 0.133987
H14   H     H_    0.737043 0.527876 0.684999 0.129195
H15   H     H_    0.553838 0.355083 0.351192 0.063802
H16   H     H_    0.436410 0.339432 0.406091 -0.086351
H17   H     H_    0.565128 0.514565 0.335026 0.172004
H18   H     H_    0.357848 0.467358 0.337468 0.074592
H19   H     H_    0.459131 0.499656 0.392557 0.082572
H20   H     H_    0.043730 0.354714 0.341624 -0.081274
H21   H     H_    0.845576 0.317073 0.365028 0.098137
H22   H     H_    0.927552 0.410023 0.251449 0.014034
H23   H     H_    0.705490 0.770276 0.384333 -0.116547
H24   H     H_    0.579145 0.660229 0.646006 0.083309
H25   H     H_    0.732531 0.359676 0.269639 0.091118
H26   H     H_    0.610420 0.163545 0.274189 0.116345
H27   H     H_    0.458642 0.196119 0.085805 0.131719
H28   H     H_    0.941550 0.653176 0.738417 0.112456
H29   H     H_    0.504010 0.347798 0.922162 0.091093
H30   H     H_    0.512259 0.274286 0.999320 0.071706
H31   H     H_    0.211307 0.324878 0.258621 0.087159
H32   H     H_    0.701992 0.712962 0.999414 0.078127
H33   H     H_    0.719000 0.642511 0.603784 -0.097668
H34   H     H_    0.468416 0.111352 0.608424 -0.011454
H35   H     H_    0.755837 0.790568 0.913064 0.124352
H36   H     H_    0.576116 0.834367 0.721925 0.111523
H37   H     H_    0.615279 0.647736 0.070073 0.105579
H38   H     H_    0.415981 0.163050 0.409642 0.076028
H39   H     H_    0.830033 0.858369 0.591708 0.076694
H40   H     H_    0.172780 0.301466 0.599418 0.077376
H41   H     H_    0.069215 0.681821 0.432761 0.092644
H42   H     H_    0.423873 0.181496 0.510490 0.055775
H43   H     H_    0.777095 0.819168 0.498660 0.060977
H44   H     H_    0.741017 0.444879 0.526213 0.089305
H45   H     H_    0.660911 0.129420 0.578488 0.053385
H46   H     H_    0.520098 0.501881 0.681240 0.174880
H47   H     H_    0.454554 0.556675 0.479817 0.097664
H48   H     H_    0.640756 0.482503 0.634329 0.092512
H49   H     H_    0.726093 0.901263 0.408474 -0.076613
H50   H     H_    0.517980 0.855242 0.416364 0.013794
H51   H     H_    0.579667 0.671688 0.342554 0.031152
H52   H     H_    0.608971 0.756408 0.281791 0.067610
H53   H     H_    0.312770 0.746412 0.257213 0.149560
H54   H     H_    0.393300 0.641889 0.271239 0.124406
H55   H     H_    0.281369 0.664315 0.318652 0.097169
H56   H     H_    0.599426 0.174436 0.677685 0.126586
H57   H     H_    0.920800 0.587515 0.271314 0.104428
H58   H     H_    0.058643 0.503919 0.294002 0.006989
H59   H     H_    0.978860 0.475533 0.385068 0.142786
H60   H     H_    0.057524 0.586435 0.358275 0.048541
H61   H     H_    0.841666 0.561159 0.361766 0.135799
H62   H     H_    0.712465 0.322499 0.868690 0.006492
H63   H     H_    0.809108 0.418044 0.824343 0.068117
H64   H     H_    0.661180 0.375502 0.748924 0.139053
H65   H     H_    0.782146 0.290848 0.789785 0.077903
H66   H     H_    0.563876 0.280866 0.793011 0.124342
H67   H     H_    0.629658 0.250159 0.614578 0.053909
H68   H     H_    0.793823 0.187614 0.650414 0.131947
H69   H     H_    0.239772 0.846946 0.363431 0.079674
I1    I     I_    0.214443 0.980268 0.276999 -0.327777
I2    I     I_    0.136701 0.462531 0.731523 -0.442823
I3    I     I_    0.573187 0.611790 0.179727 -0.441385
N1    N     N_R   0.444765 0.301677 0.204895 -0.437304
N2    N     N_R   0.717102 0.688579 0.790447 -0.431059
O1    O     O_2   0.431310 0.922990 0.623550 -0.458475
O2    O     O_2   0.858587 0.312170 0.498953 -0.478107
O3    O     O_3   0.686046 0.385972 0.413346 -0.600236
O4    O     O_3   0.663280 0.983100 0.563360 -0.502254
O5    O     O_3   0.016420 0.932050 0.462720 -0.442410
O6    O     O_2   0.959730 0.164640 0.549160 -0.456147
O7    O     O_3   0.134539 0.093554 0.637340 -0.642716
O8    O     O_2   0.058740 0.097498 0.357309 -0.413709
O9    O     O_3   0.919299 0.245906 0.321518 -0.626738
O10   O     O_2   0.420111 0.181140 0.178098 -0.555226
O11   O     O_2   0.639687 0.567579 0.766040 -0.562244
O12   O     O_3   0.042082 0.914715 0.370240 -0.596079
O13   O     O_2   0.469726 0.427418 0.225854 -0.560049
O14   O     O_2   0.780617 0.806072 0.819662 -0.593255
O15   O     O_3   0.126250 0.812630 0.574830 -0.480285
O16   O     O_2   0.227394 0.809808 0.672918 -0.483127
O17   O     O_3   0.645428 0.035641 0.650052 -0.631528
O18   O     O_3   0.201143 0.658862 0.653377 -0.547024
O19   O     O_2   0.229950 0.835370 0.450810 -0.483049
O20   O     O_3   0.517580 0.797570 0.545130 -0.479531
O21   O     O_2   0.340935 0.694620 0.493692 -0.488146
O22   O     O_3   0.490380 0.790167 0.336765 -0.644352
O23   O     O_3   0.469559 0.614799 0.585653 -0.596142
O24   O     O_3   0.803361 0.465396 0.296222 -0.620079
O25   O     O_3   0.558641 0.418519 0.827532 -0.582091
O26   O     O_2   0.758370 0.077020 0.376420 -0.429609
O27   O     O_3   0.526390 0.016840 0.436620 -0.501061
O28   O     O_3   0.063420 0.187310 0.425160 -0.470507
O29   O     O_3   0.552883 0.961455 0.352243 -0.611997
O30   O     O_3   0.173250 0.067890 0.537260 -0.485366
O31   O     O_3   0.672100 0.202370 0.454860 -0.495839
P1    P     P_3+3 0.610630 0.953360 0.619150 0.986367
P2    P     P_3+3 0.057260 0.861390 0.437850 1.017580
P3    P     P_3+3 0.499506 0.699893 0.529034 0.969671
P4    P     P_3+3 0.579040 0.046590 0.380840 1.043125
P5    P     P_3+3 0.687328 0.300375 0.471149 0.947877
P6    P     P_3+3 0.114521 0.757748 0.641073 0.983235
P7    P     P_3+3 0.138571 0.142078 0.570200 0.950642
P8    P     P_3+3 0.080599 0.192387 0.360335 1.022341

loop_
_geom_bond_atom_site_label_1
_geom_bond_atom_site_label_2
_ccdc_geom_bond_type
C53   C54   D    
C63   H5    S    
C10   C72   A    
C23   O7    S    
O18   P6    S    
O23   P3    S    
C19   C24   A    
C27   N2    Am   
C26   O14   D    
O3    P5    S    
C69   H63   S    
C3    H31   S    
O6    P7    D    
C24   C25   A    
C58   H41   S    
C30   P6    S    
C4    H24   S    
C5    P8    S    
C17   C19   A    
C56   H19   S    
C22   C24   A    
C32   C33   S    
C35   C38   A    
C36   C37   A    
Ba1   P1    S    
Ba2   P4    S    
C55   C57   A    
C60   P3    S    
C52   C61   S    
Ba1   O19   S    
Ba1   O4    S    
Ba1   Ba2   S    
C61   H56   S    
C66   H58   S    
C54   C57   S    
C22   C27   A    
C11   C38   A    
C17   C35   A    
Ba2   O28   S    
C9    C13   A    
C25   C42   A    
C61   H68   S    
C70   H65   S    
C39   I3    S    
C6    C7    D    
C1    H7    S    
C68   H59   S    
C67   O9    S    
C4    H33   S    
C67   C71   S    
C40   H12   S    
C12   H6    S    
C12   O18   S    
C40   O22   S    
C7    C8    S    
C50   C53   S    
C8    N1    S    
C37   C43   A    
C42   H35   S    
C70   H64   S    
C64   C65   S    
Ba2   O6    S    
C52   H45   S    
C31   P1    S    
C45   H15   S    
C65   H55   S    
C15   C31   D    
C4    O23   S    
C34   H13   S    
Ba2   O4    S    
C4    C16   S    
C26   N2    Am   
C63   H3    S    
C15   C30   S    
C72   O10   D    
C15   H39   S    
C49   C50   S    
C29   H28   S    
C72   N1    Am   
C17   C20   A    
C13   C39   A    
C27   O11   D    
O16   P6    D    
C40   H23   S    
C69   H62   S    
C3    C5    S    
C18   C37   A    
Ba1   P2    S    
C55   C58   A    
O2    P5    D    
C62   I1    S    
Ba1   O20   S    
O29   P4    S    
C2    N1    Am   
C44   C49   D    
O1    P1    D    
C16   H14   S    
C20   H29   S    
C69   O25   S    
C58   C59   A    
C41   H32   S    
O4    P1    S    
C66   H57   S    
C41   C42   A    
C35   C36   A    
C65   H53   S    
Ba2   O27   S    
C38   H30   S    
C67   H20   S    
Ba1   O30   S    
C46   C60   A    
C29   C30   S    
C21   C22   A    
C62   O12   S    
C31   C32   D    
C61   H67   S    
C18   C19   A    
C71   O24   S    
Ba1   O5    S    
C1    H2    S    
C1    C12   S    
C16   H48   S    
C6    P4    S    
C66   C68   S    
C5    C14   S    
O5    P2    S    
C49   P5    S    
C7    H26   S    
O20   P3    S    
C23   H8    S    
C32   H36   S    
C45   H16   S    
C29   C33   D    
Ba2   O31   S    
C52   O17   S    
C11   H27   S    
C48   P7    S    
C16   H46   S    
O12   P2    S    
C18   C41   A    
C50   C51   S    
C14   H38   S    
O28   P8    S    
O27   P4    S    
O31   P5    S    
C56   H17   S    
O8    P8    D    
C71   H25   S    
C28   H49   S    
Ba1   O27   S    
C57   C60   A    
C63   H4    S    
C2    O13   D    
C64   O22   S    
O9    P8    S    
C28   H50   S    
Ba1   O1    S    
C67   H21   S    
O7    P7    S    
O26   P4    D    
C9    C10   A    
C43   H37   S    
C1    I2    S    
C46   H43   S    
C21   O25   S    
C62   H69   S    
C52   H34   S    
C34   H11   S    
Ba2   O5    S    
C44   C48   S    
C59   P2    S    
C64   H51   S    
C44   H42   S    
O15   P6    S    
C54   H47   S    
C2    C13   A    
C3    C8    D    
C65   H54   S    
C62   C63   S    
C45   C56   S    
C23   H9    S    
C66   O24   S    
C46   C59   A    
O19   P2    D    
C34   H10   S    
C47   C51   S    
C28   O29   S    
C47   H40   S    
C33   N2    S    
O21   P3    D    
C45   O3    S    
C23   C34   S    
O30   P7    S    
C64   H52   S    
C70   H66   S    
C69   C70   S    
C10   C11   A    
Ba1   O15   S    
C6    C14   D    
C47   C48   D    
C68   H61   S    
C25   C26   A    
C68   H60   S    
O17   P1    S    
C39   C43   A    
C20   C21   A    
C28   C40   S    
C9    C36   A    
Ba2   O30   S    
C71   H22   S    
C56   H18   S    
Ba2   O26   S    
C12   H1    S    
C53   H44   S    
