data_mof_unit_20762.cif
_audit_creation_date              2012-12-10T16:48:40-0500
_audit_creation_method            fapswitch 2.2
_symmetry_space_group_name_H-M    P1
_symmetry_Int_Tables_number       1
_space_group_crystal_system       triclinic
_cell_length_a                    7.82084
_cell_length_b                    8.572141
_cell_length_c                    10.35615
_cell_angle_alpha                 89.279888
_cell_angle_beta                  96.898045
_cell_angle_gamma                 93.251635
_cell_volume                      688.143263333

loop_
_atom_site_label
_atom_site_type_symbol
_atom_type_description
_atom_site_fract_x
_atom_site_fract_y
_atom_site_fract_z
_atom_type_partial_charge
C1    C     C_R   0.544418 0.794659 0.496719 0.972873
C2    C     C_2   0.431869 0.042060 0.504490 -0.394157
C3    C     C_R   0.455445 0.205348 0.502798 0.932257
C4    C     C_R   0.567269 0.485890 0.738065 0.861850
C5    C     C_R   0.430002 0.498663 0.261916 0.863611
C6    C     C_2   0.591568 0.453991 0.877472 -0.126675
C7    C     C_2   0.395538 0.473324 0.122170 -0.127484
C8    C     C_2   0.478706 0.351978 0.929459 0.173504
C9    C     C_2   0.467712 0.352872 0.068805 0.174404
C10   C     C_2   0.567800 0.957987 0.494386 -0.388379
H1    H     H_    0.696369 0.008536 0.484450 0.175461
H2    H     H_    0.700823 0.661138 0.944215 0.181617
H3    H     H_    0.939158 0.385088 0.288550 0.171829
H4    H     H_    0.945799 0.244903 0.403476 0.164587
H5    H     H_    0.063844 0.616415 0.711275 0.173656
H6    H     H_    0.051876 0.755309 0.595387 0.170335
H7    H     H_    0.303276 0.991548 0.514373 0.178091
H8    H     H_    0.441131 0.180478 0.203278 0.170731
H9    H     H_    0.646852 0.257074 0.201868 0.200546
H10   H     H_    0.439032 0.182428 0.791314 0.170091
H11   H     H_    0.268991 0.297553 0.797082 0.213438
H12   H     H_    0.179884 0.589302 0.071473 0.190613
H13   H     H_    0.365941 0.695033 0.058754 0.185213
H14   H     H_    0.841484 0.522244 0.928855 0.189961
N1    N     N_2   0.940600 0.458860 0.467170 0.000721
N2    N     N_2   0.059400 0.541140 0.532830 -0.000996
N3    N     N_3   0.533037 0.222072 0.143889 -0.460285
N4    N     N_3   0.366975 0.240258 0.852708 -0.458974
N5    N     N_3   0.302516 0.585277 0.041522 -0.466293
N6    N     N_3   0.722148 0.542657 0.959425 -0.462088
N7    N     N_3   0.996704 0.355987 0.381343 -0.320380
N8    N     N_3   0.003494 0.643816 0.618906 -0.319657
O1    O     O_R   0.391630 0.738350 0.508060 -0.615025
O2    O     O_R   0.608370 0.261650 0.491940 -0.623638
O3    O     O_R   0.674540 0.711990 0.487010 -0.605226
O4    O     O_R   0.325460 0.288010 0.512990 -0.615884
O5    O     O_R   0.411370 0.508250 0.688780 -0.620695
O6    O     O_R   0.588630 0.491750 0.311220 -0.617526
O7    O     O_R   0.694270 0.481880 0.667740 -0.593635
O8    O     O_R   0.305730 0.518120 0.332260 -0.593301
Zn1   Zn    Zn3+2 0.311100 0.517600 0.514050 0.946699
Zn2   Zn    Zn3+2 0.688900 0.482400 0.485950 0.948210

loop_
_geom_bond_atom_site_label_1
_geom_bond_atom_site_label_2
_ccdc_geom_bond_type
N1    Zn2   S    
N1    N7    S    
N2    N8    S    
C7    N5    S    
H12   N5    S    
H6    N8    S    
H9    N3    S    
O2    Zn2   S    
C4    O7    A    
H4    N7    S    
O1    Zn1   S    
C2    C3    S    
C1    O1    A    
H5    N8    S    
C5    O6    A    
C2    H7    S    
C1    O3    A    
O4    Zn1   S    
C3    O4    A    
H13   N5    S    
O8    Zn1   S    
C6    N6    S    
H11   N4    S    
O6    Zn2   S    
O7    Zn2   S    
C5    C7    S    
O5    Zn1   S    
C8    N4    S    
H14   N6    S    
C10   H1    S    
C1    C10   S    
C2    C10   D    
C4    O5    A    
C9    N3    S    
C4    C6    S    
C5    O8    A    
C7    C9    D    
O3    Zn2   S    
C6    C8    D    
H10   N4    S    
C3    O2    A    
H2    N6    S    
N1    N2    D    
H3    N7    S    
H8    N3    S    
N2    Zn1   S    
C8    C9    S    
