data_mof_unit_54419.cif
_audit_creation_date              2012-12-11T15:49:35-0500
_audit_creation_method            fapswitch 2.2
_symmetry_space_group_name_H-M    P1
_symmetry_Int_Tables_number       1
_space_group_crystal_system       triclinic
_cell_length_a                    8.214365
_cell_length_b                    19.156359
_cell_length_c                    27.001364
_cell_angle_alpha                 95.664831
_cell_angle_beta                  92.547534
_cell_angle_gamma                 85.245565
_cell_volume                      4210.74532395

loop_
_atom_site_label
_atom_site_type_symbol
_atom_type_description
_atom_site_fract_x
_atom_site_fract_y
_atom_site_fract_z
_atom_type_partial_charge
Ba1   Ba    Ba6+2 0.854000 0.466860 0.523710 1.748725
Ba2   Ba    Ba6+2 0.335820 0.533080 0.476290 1.670973
C1    C     C_3   0.744877 0.322675 0.752499 -0.290351
C2    C     C_3   0.759435 0.304813 0.695933 0.704461
C3    C     C_3   0.506336 0.641482 0.627217 0.291143
C4    C     C_3   0.470112 0.669621 0.680875 0.338196
C5    C     C_3   0.992078 0.701654 0.343368 0.343286
C6    C     C_3   0.941810 0.743181 0.299249 -0.343530
C7    C     C_3   0.484002 0.714750 0.342179 0.356329
C8    C     C_3   0.423550 0.774532 0.311234 -0.339670
C9    C     C_R   0.034250 0.455799 0.179942 0.608218
C10   C     C_R   0.935367 0.576893 0.179307 0.589470
C11   C     C_2   0.773365 0.552760 0.272380 -0.092079
C12   C     C_3   0.258985 0.281205 0.648821 0.267665
C13   C     C_3   0.748783 0.573821 0.327173 -0.073870
C14   C     C_1   0.987396 0.492179 0.343718 0.034501
C15   C     C_2   0.031234 0.488962 0.296387 -0.091023
C16   C     C_2   0.917321 0.519295 0.257087 0.200216
C17   C     C_R   0.035603 0.512843 0.102546 -0.082996
C18   C     C_R   0.075282 0.453687 0.129156 -0.046047
C19   C     C_R   0.159177 0.394365 0.104627 -0.035111
C20   C     C_R   0.966242 0.574900 0.128046 -0.024770
C21   C     C_2   0.857061 0.530532 0.360878 -0.276171
C22   C     C_2   0.352500 0.483698 0.641369 -0.300503
C23   C     C_3   0.249089 0.284909 0.704858 -0.244328
C24   C     C_R   0.152896 0.442090 0.972109 -0.056182
C25   C     C_R   0.079900 0.570121 0.974225 0.036870
C26   C     C_R   0.137807 0.505389 0.947927 0.018225
C27   C     C_R   0.182083 0.377146 0.941499 0.351590
C28   C     C_R   0.233873 0.377786 0.892764 -0.070330
C29   C     C_R   0.234057 0.440394 0.870003 -0.081166
C30   C     C_R   0.178512 0.503927 0.896736 -0.083099
C31   C     C_R   0.163554 0.566012 0.872220 -0.032280
C32   C     C_R   0.203712 0.563577 0.821490 0.608139
C33   C     C_R   0.279334 0.439980 0.819885 0.599935
C34   C     C_3   0.191993 0.317423 0.415118 0.314485
C35   C     C_2   0.459649 0.486398 0.729550 -0.049036
C36   C     C_3   0.502526 0.489828 0.675521 -0.008239
C37   C     C_1   0.211567 0.513637 0.656863 0.041725
C38   C     C_2   0.172278 0.514029 0.704201 -0.097726
C39   C     C_2   0.302509 0.499333 0.743600 0.205226
C40   C     C_R   0.135214 0.446928 0.025033 0.032637
C41   C     C_R   0.067941 0.510328 0.050585 0.051715
C42   C     C_R   0.035792 0.571573 0.024991 0.025579
C43   C     C_R   0.193674 0.392350 0.054256 -0.009280
C44   C     C_R   0.929539 0.634249 0.101876 -0.052488
C45   C     C_3   0.234280 0.240356 0.397456 -0.315566
C46   C     C_R   0.068788 0.631535 0.948656 -0.088724
C47   C     C_R   0.108863 0.629347 0.898901 -0.032508
C48   C     C_R   0.962811 0.632681 0.051615 -0.097087
C49   C     C_R   0.397228 0.295100 0.518469 -0.317648
C50   C     C_R   0.536606 0.271774 0.491949 0.010046
C51   C     C_R   0.582689 0.197837 0.483987 0.359447
C52   C     C_R   0.486803 0.150468 0.505368 -0.057246
C53   C     C_R   0.341670 0.175917 0.529007 -0.158780
C54   C     C_R   0.295224 0.247901 0.534226 -0.027009
C55   C     C_R   0.675971 0.050717 0.531433 -0.042798
C56   C     C_3   0.024847 0.683241 0.580279 0.282520
C57   C     C_R   0.733693 0.979373 0.528181 -0.036654
C58   C     C_R   0.649893 0.929742 0.496138 0.046678
C59   C     C_R   0.506854 0.953212 0.470018 -0.085473
C60   C     C_R   0.450738 0.024548 0.473878 -0.023866
C61   C     C_R   0.537098 0.073958 0.503824 0.113676
C62   C     C_R   0.851066 0.828126 0.466656 -0.090372
C63   C     C_R   0.898037 0.755434 0.461846 -0.004425
C64   C     C_R   0.657803 0.733364 0.504308 0.045602
C65   C     C_R   0.608873 0.805333 0.509295 -0.080547
C66   C     C_R   0.704102 0.853393 0.490108 0.040359
C67   C     C_3   0.085865 0.756299 0.588434 -0.279319
C68   C     C_R   0.797509 0.708733 0.478946 -0.292513
C69   C     C_3   0.678925 0.384598 0.377330 0.306655
C70   C     C_3   0.685223 0.367817 0.321160 -0.338664
H1    H     H_    0.878861 0.318633 0.683953 0.021856
H2    H     H_    0.339049 0.235542 0.372386 0.123790
H3    H     H_    0.267228 0.209651 0.429529 0.061362
H4    H     H_    0.127951 0.217685 0.376909 0.170605
H5    H     H_    0.890772 0.688036 0.574586 0.015050
H6    H     H_    0.081619 0.656351 0.546330 0.053297
H7    H     H_    0.018749 0.787917 0.618871 0.189257
H8    H     H_    0.067572 0.782622 0.553683 0.109476
H9    H     H_    0.218430 0.752722 0.598733 0.106168
H10   H     H_    0.801399 0.396494 0.392404 0.004250
H11   H     H_    0.591086 0.430940 0.385574 0.079683
H12   H     H_    0.747307 0.380306 0.761592 -0.000588
H13   H     H_    0.777988 0.323349 0.312130 0.134988
H14   H     H_    0.718048 0.414187 0.303447 0.069063
H15   H     H_    0.563755 0.353243 0.305703 0.140244
H16   H     H_    0.390459 0.624597 0.609020 -0.076163
H17   H     H_    0.598265 0.595571 0.626634 0.046008
H18   H     H_    0.395938 0.720858 0.681254 0.059944
H19   H     H_    0.397866 0.632626 0.698032 -0.032308
H20   H     H_    0.625987 0.307447 0.764250 0.178623
H21   H     H_    0.371953 0.291510 0.722300 0.167585
H22   H     H_    0.047138 0.648775 0.329576 0.070848
H23   H     H_    0.879473 0.695611 0.363219 -0.081280
H24   H     H_    0.044537 0.741389 0.273692 0.141968
H25   H     H_    0.835931 0.720344 0.278622 0.132048
H26   H     H_    0.905034 0.798771 0.312459 0.112764
H27   H     H_    0.618716 0.709774 0.340279 -0.079369
H28   H     H_    0.450169 0.728804 0.381515 0.071807
H29   H     H_    0.482351 0.823028 0.325617 0.074056
H30   H     H_    0.289466 0.785366 0.313198 0.152347
H31   H     H_    0.297240 0.332706 0.639561 0.001402
H32   H     H_    0.455618 0.760637 0.271758 0.123256
H33   H     H_    0.152342 0.466668 0.286318 0.137298
H34   H     H_    0.201530 0.349545 0.124578 0.139626
H35   H     H_    0.556817 0.479011 0.757504 0.092464
H36   H     H_    0.263125 0.328028 0.871070 0.150703
H37   H     H_    0.270637 0.348090 0.038893 0.153009
H38   H     H_    0.684157 0.573609 0.245677 0.114023
H39   H     H_    0.873999 0.682680 0.120256 0.127264
H40   H     H_    0.032179 0.682945 0.966333 0.084089
H41   H     H_    0.352714 0.238446 0.636656 0.086530
H42   H     H_    0.097517 0.678114 0.881377 0.147763
H43   H     H_    0.046587 0.525353 0.714773 0.133065
H44   H     H_    0.927226 0.680345 0.034516 0.081880
H45   H     H_    0.842524 0.542507 0.400638 0.078557
H46   H     H_    0.361388 0.456891 0.604099 0.076118
H47   H     H_    0.500464 0.824122 0.529589 0.082706
H48   H     H_    0.739981 0.088786 0.555618 0.140767
H49   H     H_    0.439541 0.916109 0.445984 0.078615
H50   H     H_    0.165198 0.330801 0.717839 0.092823
H51   H     H_    0.342347 0.041501 0.452551 0.094622
H52   H     H_    0.928250 0.864500 0.452833 0.081564
H53   H     H_    0.265896 0.139795 0.543808 0.109545
H54   H     H_    0.834446 0.652961 0.475810 0.055734
H55   H     H_    0.361749 0.350906 0.524174 0.065922
H56   H     H_    0.204382 0.235830 0.715994 0.163518
H57   H     H_    0.305020 0.341250 0.429261 -0.016338
H58   H     H_    0.103329 0.320933 0.445248 0.063738
N1    N     N_R   0.962686 0.516947 0.204712 -0.421488
N2    N     N_R   0.261521 0.500945 0.795837 -0.426905
O1    O     O_2   0.913240 0.537010 0.617740 -0.435870
O2    O     O_3   0.629600 0.325940 0.397792 -0.608148
O3    O     O_3   0.105705 0.266617 0.626850 -0.561734
O4    O     O_2   0.276450 0.462960 0.382230 -0.453854
O5    O     O_3   0.044470 0.462980 0.442430 -0.506386
O6    O     O_3   0.519740 0.589470 0.411120 -0.476369
O7    O     O_3   0.123328 0.351117 0.374748 -0.623265
O8    O     O_3   0.632420 0.583650 0.524140 -0.482496
O9    O     O_3   0.111040 0.625070 0.435230 -0.482086
O10   O     O_2   0.241135 0.748429 0.462887 -0.490760
O11   O     O_3   0.107830 0.737302 0.373761 -0.594113
O12   O     O_3   0.145240 0.536960 0.557560 -0.505636
O13   O     O_3   0.557280 0.416300 0.475860 -0.507878
O14   O     O_2   0.376710 0.670070 0.522470 -0.468433
O15   O     O_3   0.566139 0.695022 0.603112 -0.619325
O16   O     O_2   0.446437 0.515583 0.324505 -0.490052
O17   O     O_3   0.414322 0.652443 0.323046 -0.573045
O18   O     O_2   0.060277 0.402790 0.201679 -0.584411
O19   O     O_2   0.333627 0.385081 0.797591 -0.622162
O20   O     O_2   0.885906 0.632728 0.201462 -0.623054
O21   O     O_2   0.188808 0.617423 0.800342 -0.555868
O22   O     O_3   0.669960 0.410470 0.588880 -0.454017
O23   O     O_2   0.839870 0.438376 0.673645 -0.519296
O24   O     O_3   0.063301 0.649268 0.623350 -0.597511
O25   O     O_3   0.625463 0.338738 0.670984 -0.641749
O26   O     O_2   0.812980 0.329910 0.477500 -0.420543
O27   O     O_3   0.078660 0.374870 0.564770 -0.491187
O28   O     O_2   0.950001 0.252556 0.540826 -0.378793
P1    P     P_3+3 0.082480 0.557670 0.610090 1.035011
P2    P     P_3+3 0.635220 0.340300 0.462910 1.065673
P3    P     P_3+3 0.106035 0.283629 0.564631 1.052524
P4    P     P_3+3 0.107220 0.442270 0.389900 0.993107
P5    P     P_3+3 0.091369 0.717289 0.434930 0.961770
P6    P     P_3+3 0.665778 0.421751 0.653821 0.984574
P7    P     P_3+3 0.561449 0.671678 0.538853 0.969049
P8    P     P_3+3 0.531814 0.581411 0.346074 0.959770
S1    S     S_3+6 0.753342 0.212254 0.678844 -0.046429
O29   O     O_2   0.724340 0.200333 0.623413 -0.309289
O30   O     O_2   0.913156 0.174141 0.693182 -0.273275
O31   O     O_3   0.601021 0.181101 0.707618 -0.516622
H59   H     H_    0.590471 0.133121 0.691050 0.370680
C71   C     C_2   0.881719 0.287684 0.782009 0.610982
H60   H     H_    0.003881 0.304998 0.781948 -0.035656
O32   O     O_2   0.855742 0.240276 0.806945 -0.446447
S2    S     S_3+6 0.653527 0.680897 0.717837 -0.025840
O33   O     O_2   0.760048 0.727292 0.694062 -0.230085
O34   O     O_2   0.609130 0.714517 0.768618 -0.244760
O35   O     O_3   0.755051 0.602020 0.723237 -0.559402
H61   H     H_    0.832447 0.609806 0.752062 0.364519
S3    S     S_3+6 0.116613 0.295207 0.955519 -0.037924
O36   O     O_2   0.259373 0.250087 0.974877 -0.277787
O37   O     O_2   0.985778 0.305673 0.993331 -0.236834
O38   O     O_3   0.038761 0.252793 0.903363 -0.436188
H62   H     H_    0.130768 0.221697 0.889051 0.365374
C72   C     C_2   0.878196 0.959968 0.560133 0.505559
H63   H     H_    0.957556 0.000075 0.575238 0.037719
O39   O     O_2   0.906794 0.900290 0.571852 -0.598552
S4    S     S_3+6 0.749166 0.160750 0.446189 -0.072550
O40   O     O_2   0.886677 0.133251 0.479250 -0.283424
O41   O     O_2   0.691458 0.099480 0.412730 -0.327082
O42   O     O_3   0.826245 0.215721 0.410273 -0.505324
H64   H     H_    0.795187 0.198998 0.375520 0.351131

loop_
_geom_bond_atom_site_label_1
_geom_bond_atom_site_label_2
_ccdc_geom_bond_type
C25   C46   A    
C53   C54   A    
C23   H21   S    
S4    O40   D    
C3    O15   S    
C10   N1    Am   
C63   P5    S    
O12   P1    S    
Ba2   O12   S    
S1    O29   D    
C10   O20   D    
Ba1   O13   S    
C17   C18   A    
C6    H24   S    
O14   P7    D    
C69   O2    S    
C5    O11   S    
C70   H13   S    
O38   H62   S    
C5    C6    S    
C64   C68   A    
C51   C52   A    
C14   P4    S    
Ba2   O13   S    
C54   P3    S    
C7    O17   S    
C60   C61   A    
C64   P7    S    
C62   C66   A    
C59   H49   S    
Ba1   O26   S    
C23   H56   S    
C45   H4    S    
Ba1   Ba2   S    
C34   H58   S    
O4    P4    D    
C28   C29   A    
C43   H37   S    
C55   C57   A    
C38   H43   S    
C12   O3    S    
O23   P6    D    
C31   C47   A    
C4    H19   S    
C10   C20   A    
C22   C37   D    
C34   C45   S    
O6    P8    S    
C49   C54   A    
C6    H26   S    
S3    O36   D    
O11   P5    S    
C51   S4    S    
C29   C33   A    
C9    O18   D    
S4    O42   S    
C71   H60   S    
C3    H16   S    
C25   C42   A    
C53   H53   S    
C14   C15   D    
S2    O34   D    
C22   C36   S    
C57   C72   S    
C37   P1    S    
C23   H50   S    
C69   H11   S    
C19   H34   S    
C56   H5    S    
C69   H10   S    
C28   H36   S    
C68   H54   S    
O8    P7    S    
C13   C21   S    
C47   H42   S    
C32   N2    Am   
C57   C58   A    
C7    H27   S    
C44   H39   S    
S1    O30   D    
C16   N1    S    
Ba1   O22   S    
O17   P8    S    
C33   O19   D    
Ba1   O1    S    
C60   H51   S    
C17   C41   A    
C55   C61   A    
C19   C43   A    
C9    C18   A    
O24   P1    S    
C27   S3    S    
C65   C66   A    
Ba2   O6    S    
O28   P3    D    
Ba1   O27   S    
C17   C20   A    
C67   H9    S    
C2    S1    S    
Ba2   P4    S    
C37   C38   D    
C56   H6    S    
C4    H18   S    
C2    O25   S    
Ba2   O4    S    
C49   C50   A    
O1    P1    D    
C58   C59   A    
S3    O38   S    
C35   C36   S    
C41   C42   A    
C27   C28   A    
C15   H33   S    
C39   N2    S    
C52   C61   S    
C1    C71   S    
C29   C30   A    
C26   C30   A    
S2    O35   S    
C15   C16   S    
C50   C51   A    
C11   H38   S    
C2    H1    S    
Ba1   O8    S    
O15   P7    S    
C55   H48   S    
C11   C16   D    
C38   C39   S    
C20   C44   A    
Ba1   P2    S    
O42   H64   S    
C7    H28   S    
C11   C13   S    
C4    S2    S    
O16   P8    D    
S1    O31   S    
O27   P3    S    
C13   P8    S    
C67   H7    S    
Ba2   O14   S    
C40   C41   A    
C1    C2    S    
C1    H12   S    
C70   H15   S    
Ba1   O5    S    
O31   H59   S    
C24   C40   A    
C7    C8    S    
C32   O21   D    
C42   C48   A    
C36   P6    S    
C5    H22   S    
C52   C53   A    
C46   C47   A    
S4    O41   D    
S3    O37   D    
C46   H40   S    
Ba2   O5    S    
O3    P3    S    
C8    H29   S    
C45   H2    S    
C9    N1    Am   
O25   P6    S    
C21   H45   S    
O5    P4    S    
C70   H14   S    
C56   C67   S    
C35   H35   S    
C14   C21   D    
C12   H41   S    
C5    H23   S    
C44   C48   A    
C24   C26   A    
C49   H55   S    
C62   C63   A    
C8    H32   S    
C45   H3    S    
C69   C70   S    
Ba1   O12   S    
C62   H52   S    
C34   H57   S    
C30   C31   A    
O10   P5    D    
C12   H31   S    
C3    C4    S    
C6    H25   S    
C8    H30   S    
C22   H46   S    
C31   C32   A    
C64   C65   A    
C48   H44   S    
C12   C23   S    
C35   C39   D    
C59   C60   A    
C34   O7    S    
C71   O32   D    
C72   O39   D    
O7    P4    S    
O26   P2    D    
Ba1   P1    S    
C56   O24   S    
O2    P2    S    
C72   H63   S    
C18   C19   A    
C58   C66   S    
C24   C27   A    
S2    O33   D    
O13   P2    S    
C25   C26   A    
Ba2   O9    S    
O22   P6    S    
C67   H8    S    
Ba2   O8    S    
C1    H20   S    
C65   H47   S    
C33   N2    Am   
C40   C43   A    
C3    H17   S    
O35   H61   S    
C63   C68   A    
C50   P2    S    
O9    P5    S    
