data_mof_unit_22442.cif
_audit_creation_date              2012-12-11T15:23:34-0500
_audit_creation_method            fapswitch 2.2
_symmetry_space_group_name_H-M    P1
_symmetry_Int_Tables_number       1
_space_group_crystal_system       triclinic
_cell_length_a                    6.940158
_cell_length_b                    17.502945
_cell_length_c                    19.345995
_cell_angle_alpha                 109.625004
_cell_angle_beta                  90.355869
_cell_angle_gamma                 90.5839
_cell_volume                      2213.27888553

loop_
_atom_site_label
_atom_site_type_symbol
_atom_type_description
_atom_site_fract_x
_atom_site_fract_y
_atom_site_fract_z
_atom_type_partial_charge
O1    O     O_R   0.505810 0.439670 0.562310 -0.543553
O2    O     O_R   0.169070 0.404920 0.411210 -0.536581
O3    O     O_R   0.005550 0.560330 0.437690 -0.523736
C1    C     C_R   0.338188 0.381684 0.382971 0.802962
O4    O     O_R   0.175650 0.430000 0.560110 -0.549348
O5    O     O_R   0.012170 0.585580 0.587650 -0.539346
C2    C     C_R   0.344219 0.417018 0.583522 0.681760
O6    O     O_R   0.499180 0.414420 0.412350 -0.542942
O7    O     O_3   0.341430 0.551020 0.508860 -0.340269
V1    V     V_3+5 0.063930 0.490540 0.498360 1.587607
O8    O     O_R   0.682850 0.595080 0.588790 -0.511550
C3    C     C_R   0.852845 0.617485 0.617317 0.810887
O9    O     O_R   0.676280 0.570000 0.439890 -0.507713
C4    C     C_R   0.844984 0.585009 0.418336 0.869266
V2    V     V_3+5 0.564760 0.509460 0.501640 1.660850
O10   O     O_3   0.837130 0.448980 0.491140 -0.398852
C5    C     C_R   0.781632 0.887114 0.189787 0.380602
C6    C     C_R   0.914330 0.866013 0.131358 -0.225871
C7    C     C_R   0.036570 0.799270 0.121267 0.346579
C8    C     C_R   0.032229 0.756342 0.171306 0.012646
C9    C     C_R   0.889392 0.773105 0.225974 -0.033705
C10   C     C_R   0.755509 0.836213 0.232920 -0.044094
C11   C     C_R   0.171334 0.697928 0.168602 -0.118228
C12   C     C_R   0.167637 0.653581 0.216334 0.429407
C13   C     C_R   0.014484 0.663275 0.266758 -0.046919
C14   C     C_R   0.880621 0.726395 0.273706 -0.033309
C15   C     C_R   0.737764 0.743170 0.328372 0.011082
C16   C     C_R   0.598436 0.801468 0.330973 -0.125733
C17   C     C_R   0.602126 0.845789 0.283224 0.421829
C18   C     C_R   0.988557 0.612492 0.310015 0.378237
C19   C     C_R   0.856094 0.633725 0.368526 -0.225929
C20   C     C_R   0.733601 0.700364 0.378504 0.353729
H1    H     H_    0.290693 0.688208 0.131050 0.214130
H2    H     H_    0.478942 0.811123 0.368460 0.213608
C21   C     C_3   0.760383 0.808384 0.748843 -0.267093
C22   C     C_3   0.925757 0.774219 0.694090 0.407158
H3    H     H_    0.658853 0.856423 0.747341 0.171764
C23   C     C_3   0.868214 0.687113 0.688189 -0.223858
C24   C     C_3   0.705059 0.720402 0.743020 0.349267
C25   C     C_3   0.844538 0.725715 0.805995 0.378012
C26   C     C_3   0.008434 0.691077 0.751893 -0.207326
C27   C     C_3   0.067156 0.779398 0.757769 -0.122375
C28   C     C_3   0.901829 0.812441 0.812415 -0.178506
H4    H     H_    0.099803 0.640640 0.754652 0.211005
H5    H     H_    0.214507 0.806159 0.763789 0.193876
C29   C     C_3   0.462269 0.232227 0.306475 -0.192706
C30   C     C_3   0.301048 0.183842 0.254082 0.429763
H6    H     H_    0.523272 0.216752 0.353214 0.179758
C31   C     C_3   0.414790 0.188994 0.187515 -0.239604
C32   C     C_3   0.576560 0.237628 0.239190 -0.239561
C33   C     C_3   0.470049 0.317004 0.245671 0.434841
C34   C     C_3   0.309510 0.268198 0.193982 0.356179
C35   C     C_3   0.193947 0.263074 0.260593 -0.240806
C36   C     C_3   0.356222 0.311514 0.312111 -0.226375
H7    H     H_    0.732496 0.226676 0.229493 0.185415
H8    H     H_    0.037957 0.274141 0.270000 0.175319
C37   C     C_R   0.563991 0.135709 0.821784 -0.155835
C38   C     C_R   0.417208 0.137536 0.871681 -0.056948
C39   C     C_R   0.260443 0.188831 0.876747 -0.144796
C40   C     C_R   0.249894 0.239998 0.833914 -0.038394
C41   C     C_R   0.394537 0.235536 0.781512 0.026508
C42   C     C_R   0.555578 0.184100 0.776241 0.072581
C43   C     C_R   0.094743 0.293938 0.841035 0.283603
C44   C     C_R   0.076941 0.338990 0.793392 0.428478
C45   C     C_R   0.218683 0.334125 0.739105 -0.084908
C46   C     C_R   0.377611 0.281776 0.733851 -0.043580
C47   C     C_R   0.520751 0.275286 0.680700 0.088126
C48   C     C_R   0.678383 0.224615 0.675895 -0.109595
C49   C     C_R   0.700561 0.180838 0.723787 0.363729
C50   C     C_R   0.210797 0.381435 0.691581 0.396705
C51   C     C_R   0.352956 0.371992 0.636700 -0.167607
C52   C     C_R   0.506802 0.319704 0.632787 -0.168517
H9    H     H_    0.679470 0.093364 0.817132 0.115245
H10   H     H_    0.146579 0.187773 0.914344 0.146125
H11   H     H_    0.616606 0.313161 0.591592 0.138316
H12   H     H_    0.789289 0.220472 0.635586 0.148511
O11   O     O_R   0.271890 0.085690 0.087580 -0.529042
O12   O     O_R   0.595690 0.070020 0.939870 -0.552443
O13   O     O_R   0.758900 0.914390 0.912370 -0.546008
C53   C     C_R   0.426797 0.085564 0.918594 0.680088
O14   O     O_R   0.602020 0.095100 0.088770 -0.530678
O15   O     O_R   0.765280 0.939660 0.062330 -0.523376
C54   C     C_R   0.432867 0.118534 0.116856 0.851210
O16   O     O_R   0.265520 0.060430 0.937620 -0.555373
O17   O     O_3   0.429560 0.949050 0.991100 -0.353795
V3    V     V_3+5 0.707160 0.009450 0.001650 1.584063
O18   O     O_R   0.094540 0.929890 0.060190 -0.504885
C55   C     C_R   0.925737 0.914891 0.081683 0.875603
O19   O     O_R   0.088200 0.904800 0.911290 -0.542782
C56   C     C_R   0.917987 0.882024 0.883087 0.764903
V4    V     V_3+5 0.206300 0.990390 0.998440 1.626797
O20   O     O_3   0.934030 0.050940 0.008900 -0.384874
Cl1   Cl    Cl    0.680468 0.985467 0.216337 -0.493040
Cl2   Cl    Cl    0.473552 0.674972 0.734657 -0.658009
O21   O     O_3   0.801004 0.701578 0.866132 -0.583858
H13   H     H_    0.778927 0.642150 0.845558 0.351949
Cl3   Cl    Cl    0.187576 0.094805 0.260609 -0.495842
Cl4   Cl    Cl    0.584261 0.406066 0.239380 -0.433258
Cl5   Cl    Cl    0.208805 0.292964 0.119346 -0.511630
Cl6   Cl    Cl    0.190319 0.767169 0.043975 -0.556108
O22   O     O_3   0.955327 0.303764 0.893856 -0.592715
H14   H     H_    0.019748 0.305339 0.940128 0.340257
Cl7   Cl    Cl    0.871442 0.401451 0.806461 -0.495940
O23   O     O_3   0.068107 0.438188 0.700770 -0.602069
H15   H     H_    0.123054 0.486324 0.691633 0.294634
O24   O     O_3   0.865023 0.135232 0.716347 -0.627011
H16   H     H_    0.905374 0.134632 0.765232 0.291147
Cl8   Cl    Cl    0.376681 0.596710 0.215873 -0.472448
Cl9   Cl    Cl    0.089602 0.514112 0.283555 -0.454708
Cl10  Cl    Cl    0.579620 0.732462 0.455733 -0.538437
Cl11  Cl    Cl    0.392827 0.902441 0.283458 -0.500424
Cl12  Cl    Cl    0.981185 0.806384 0.618324 -0.521293

loop_
_geom_bond_atom_site_label_1
_geom_bond_atom_site_label_2
_ccdc_geom_bond_type
C44   Cl7   S    
C9    C14   A    
O22   H14   S    
C10   C17   A    
O18   V4    S    
C26   C27   S    
C22   C27   S    
O21   H13   S    
C4    C19   S    
C1    O6    A    
O17   V4    S    
C37   C42   A    
C30   C31   S    
C35   C36   S    
C14   C15   A    
C20   Cl10  S    
C40   C43   A    
C16   C17   A    
C21   H3    S    
C47   C52   A    
C2    C51   S    
C23   C24   S    
C50   O23   S    
O24   H16   S    
O11   C54   A    
V2    O10   S    
C6    C7    A    
C37   H9    S    
O13   C56   A    
O8    V2    S    
C41   C46   A    
C25   C28   S    
C7    C8    A    
C48   C49   A    
C11   H1    S    
C22   Cl12  S    
C11   C12   A    
C50   C51   A    
C12   Cl8   S    
O16   V4    S    
O19   V4    S    
C21   C28   S    
O7    V1    S    
O14   V3    S    
C38   C53   S    
C30   C35   S    
O12   V3    S    
C33   Cl4   S    
C46   C47   A    
C16   H2    S    
C39   C40   A    
O9    C4    A    
C3    C23   S    
C52   H11   S    
O23   H15   S    
O14   C54   A    
C32   C33   S    
C29   H6    S    
C28   C56   S    
C18   Cl9   S    
C47   C48   A    
C12   C13   A    
C23   C26   S    
V4    O20   S    
O4    C2    A    
C38   C39   A    
O15   V3    S    
C6    C55   S    
C33   C34   S    
C42   C49   A    
C40   C41   A    
C21   C22   S    
O2    C1    A    
C24   Cl2   S    
C19   C20   A    
C8    C11   A    
C49   O24   S    
C31   C34   S    
C29   C36   S    
C5    C6    A    
C39   H10   S    
O17   V3    S    
O3    C4    A    
O1    V2    S    
C25   C26   S    
C31   C32   S    
O6    V2    S    
O9    V2    S    
C26   H4    S    
C5    Cl1   S    
C27   C28   S    
C25   O21   S    
O2    V1    S    
C24   C25   S    
C34   C35   S    
C35   H8    S    
C13   C18   A    
C29   C30   S    
O11   V4    S    
C1    C36   S    
C15   C20   A    
O1    C2    A    
C17   Cl11  S    
C32   H7    S    
O5    V1    S    
O8    C3    A    
C48   H12   S    
C29   C32   S    
C34   Cl5   S    
C5    C10   A    
C30   Cl3   S    
C33   C36   S    
C44   C45   A    
C31   C54   S    
C22   C23   S    
C13   C14   A    
C43   O22   S    
O3    V1    S    
V3    O20   S    
C53   O16   A    
O5    C3    A    
C37   C38   A    
C18   C19   A    
O15   C55   A    
C21   C24   S    
O12   C53   A    
O7    V2    S    
C41   C42   A    
C43   C44   A    
O4    V1    S    
C51   C52   A    
C8    C9    A    
O18   C55   A    
C45   C46   A    
C15   C16   A    
V1    O10   S    
O19   C56   A    
C9    C10   A    
C7    Cl6   S    
C27   H5    S    
O13   V3    S    
C45   C50   A    
