data_mof_unit_43360.cif
_audit_creation_date              2012-12-10T18:51:36-0500
_audit_creation_method            fapswitch 2.2
_symmetry_space_group_name_H-M    P1
_symmetry_Int_Tables_number       1
_space_group_crystal_system       triclinic
_cell_length_a                    10.722438
_cell_length_b                    10.038399
_cell_length_c                    10.631183
_cell_angle_alpha                 91.315741
_cell_angle_beta                  95.234595
_cell_angle_gamma                 89.929465
_cell_volume                      1139.22600701

loop_
_atom_site_label
_atom_site_type_symbol
_atom_type_description
_atom_site_fract_x
_atom_site_fract_y
_atom_site_fract_z
_atom_type_partial_charge
C1    C     C_R   0.872444 0.495880 0.504917 -0.093850
C2    C     C_3   0.489209 0.373893 0.036137 -0.088244
C3    C     C_3   0.394000 0.447857 0.944863 -0.127853
C4    C     C_3   0.607281 0.553046 0.055695 -0.113607
C5    C     C_3   0.503508 0.502137 0.876850 -0.210068
C6    C     C_3   0.497628 0.498488 0.123263 -0.190774
C7    C     C_R   0.585481 0.073288 0.577754 0.197444
C8    C     C_R   0.414604 0.926603 0.422246 0.194716
C9    C     C_R   0.414685 0.069451 0.422528 0.204680
C10   C     C_R   0.586100 0.930294 0.576718 0.240211
C11   C     C_R   0.053126 0.437644 0.396253 0.100002
C12   C     C_R   0.127278 0.503783 0.495241 -0.093901
C13   C     C_R   0.946496 0.560926 0.604486 0.117503
C14   C     C_R   0.924240 0.428843 0.403784 0.088098
C15   C     C_R   0.075370 0.570338 0.596734 0.091331
C16   C     C_3   0.679043 0.145727 0.668834 -0.765861
C17   C     C_3   0.320385 0.854098 0.331786 -0.773716
C18   C     C_3   0.315558 0.138789 0.339934 -0.801237
C19   C     C_3   0.688142 0.859939 0.655049 -0.805669
C20   C     C_2   0.272799 0.386458 0.888919 0.963932
C21   C     C_2   0.725305 0.614010 0.119925 0.953394
C22   C     C_2   0.291871 0.655342 0.063231 0.914595
C23   C     C_R   0.260530 0.500594 0.496232 0.919043
C24   C     C_2   0.710076 0.347808 0.934823 0.947977
C25   C     C_2   0.525482 0.769830 0.925768 0.983002
C26   C     C_2   0.477604 0.230842 0.073823 0.974894
C27   C     C_3   0.108148 0.383414 0.279201 -0.753918
C28   C     C_3   0.891207 0.612467 0.722508 -0.768134
C29   C     C_3   0.841064 0.345628 0.307364 -0.675248
C30   C     C_3   0.158227 0.653320 0.693568 -0.706811
C31   C     C_R   0.739354 0.499382 0.503653 0.888620
C32   C     C_R   0.497304 0.499017 0.257907 0.894296
C33   C     C_R   0.503114 0.501088 0.742126 0.915545
C34   C     C_3   0.402807 0.572930 0.032365 -0.103802
C35   C     C_3   0.598749 0.428184 0.967778 -0.111971
C36   C     C_3   0.512521 0.627027 0.964114 -0.100560
H1    H     H_    0.671983 0.253331 0.666250 0.294631
H2    H     H_    0.662143 0.757968 0.672094 0.281163
H3    H     H_    0.774904 0.861816 0.605670 0.228288
H4    H     H_    0.706997 0.904923 0.750721 0.226253
H5    H     H_    0.174851 0.300162 0.737866 0.349193
H6    H     H_    0.802687 0.747927 0.248103 0.342067
H7    H     H_    0.137476 0.670614 0.156832 0.358106
H8    H     H_    0.813656 0.181246 0.961145 0.351707
H9    H     H_    0.619289 0.943719 0.951879 0.356871
H10   H     H_    0.549584 0.079577 0.179032 0.352586
H11   H     H_    0.095561 0.274023 0.271390 0.230546
H12   H     H_    0.662529 0.119474 0.766532 0.228380
H13   H     H_    0.058867 0.428215 0.194111 0.310873
H14   H     H_    0.208224 0.407196 0.276231 0.245260
H15   H     H_    0.903434 0.721859 0.732450 0.229000
H16   H     H_    0.790954 0.588762 0.724652 0.237661
H17   H     H_    0.940165 0.565394 0.806656 0.299856
H18   H     H_    0.809670 0.254783 0.353064 0.253108
H19   H     H_    0.757742 0.403123 0.271577 0.224901
H20   H     H_    0.885812 0.311213 0.222928 0.252891
H21   H     H_    0.189538 0.744417 0.648225 0.259270
H22   H     H_    0.113020 0.687104 0.777946 0.246853
H23   H     H_    0.775964 0.118591 0.649383 0.221049
H24   H     H_    0.241650 0.596200 0.729564 0.232547
H25   H     H_    0.328176 0.746561 0.333884 0.292745
H26   H     H_    0.223705 0.880560 0.352577 0.218440
H27   H     H_    0.335175 0.880587 0.233729 0.249454
H28   H     H_    0.337579 0.243032 0.330459 0.282127
H29   H     H_    0.307581 0.098027 0.242011 0.250176
H30   H     H_    0.224671 0.128530 0.380920 0.227937
N1    N     N_R   0.500000 0.857200 0.500000 -0.104438
N2    N     N_R   0.500000 0.142800 0.500000 -0.104812
O1    O     O_R   0.316770 0.614620 0.499990 -0.635361
O2    O     O_R   0.260683 0.339383 0.763857 -0.777055
O3    O     O_2   0.827555 0.575229 0.092213 -0.624304
O4    O     O_R   0.717360 0.715822 0.210654 -0.740778
O5    O     O_2   0.273100 0.763931 0.015571 -0.593527
O6    O     O_R   0.208871 0.606762 0.144231 -0.826498
O7    O     O_2   0.781139 0.392672 0.863332 -0.649784
O8    O     O_R   0.734457 0.223830 0.988639 -0.791559
O9    O     O_2   0.447891 0.817794 0.848329 -0.561327
O10   O     O_R   0.624173 0.848213 0.980933 -0.788074
O11   O     O_2   0.392489 0.161360 0.024397 -0.601714
O12   O     O_R   0.683230 0.385380 0.500010 -0.632040
O13   O     O_R   0.566073 0.176924 0.163193 -0.746355
O14   O     O_R   0.683230 0.614620 0.500010 -0.611594
O15   O     O_R   0.316770 0.385380 0.499990 -0.594458
O16   O     O_R   0.499970 0.614650 0.313950 -0.590359
O17   O     O_R   0.500030 0.385350 0.686050 -0.584659
O18   O     O_R   0.500030 0.614650 0.686050 -0.626331
O19   O     O_R   0.499970 0.385350 0.313950 -0.621671
O20   O     O_2   0.186142 0.374335 0.954911 -0.581997
Zn1   Zn    Zn3+2 0.500000 0.653120 0.500000 0.973427
Zn2   Zn    Zn3+2 0.500000 0.346880 0.500000 0.977266

loop_
_geom_bond_atom_site_label_1
_geom_bond_atom_site_label_2
_ccdc_geom_bond_type
C2    C35   S    
C7    C10   A    
C6    C32   S    
C4    C36   S    
C23   O1    A    
N1    Zn1   S    
C5    C36   S    
C16   H12   S    
C31   O12   A    
C10   N1    A    
C18   H29   S    
C12   C23   S    
C31   O14   A    
C23   O15   A    
C21   O3    D    
C25   O9    D    
C28   H15   S    
C29   H18   S    
C30   H21   S    
C20   O20   D    
C1    C31   S    
H8    O8    S    
C33   O17   A    
C17   H25   S    
C7    N2    A    
C30   H22   S    
C8    C9    A    
C30   H24   S    
N2    Zn2   S    
C13   C28   S    
H9    O10   S    
C27   H14   S    
C16   H1    S    
H7    O6    S    
C4    C35   S    
C20   O2    S    
C2    C6    S    
O1    Zn1   S    
C22   C34   S    
O17   Zn2   S    
C24   C35   S    
C21   O4    S    
C25   O10   S    
C4    C6    S    
C24   O8    S    
C29   H19   S    
C3    C34   S    
C32   O19   A    
C6    C34   S    
C5    C33   S    
C16   H23   S    
C33   O18   A    
C19   H2    S    
C17   H26   S    
H10   O13   S    
C12   C15   A    
C11   C27   S    
C10   C19   S    
C28   H17   S    
H6    O4    S    
C3    C20   S    
C2    C26   S    
O14   Zn1   S    
C19   H3    S    
C7    C16   S    
C26   O13   S    
C13   C15   A    
C1    C13   A    
O16   Zn1   S    
C22   O6    S    
C14   C29   S    
C15   C30   S    
C27   H11   S    
O15   Zn2   S    
C8    C17   S    
C32   O16   A    
C3    C5    S    
O18   Zn1   S    
C11   C12   A    
C24   O7    D    
C29   H20   S    
C18   H30   S    
C26   O11   D    
C2    C3    S    
C9    N2    A    
C17   H27   S    
C4    C21   S    
C28   H16   S    
C18   H28   S    
C5    C35   S    
C11   C14   A    
C34   C36   S    
O12   Zn2   S    
C19   H4    S    
C25   C36   S    
C9    C18   S    
C8    N1    A    
O19   Zn2   S    
C1    C14   A    
C22   O5    D    
C27   H13   S    
H5    O2    S    
