data_mof_unit_19540.cif
_audit_creation_date              2013-03-05T16:10:27-0500
_audit_creation_method            fapswitch 2.2
_symmetry_space_group_name_H-M    P1
_symmetry_Int_Tables_number       1
_space_group_crystal_system       triclinic
_cell_length_a                    10.809212
_cell_length_b                    9.799414
_cell_length_c                    15.017846
_cell_angle_alpha                 90.32907
_cell_angle_beta                  88.393018
_cell_angle_gamma                 88.360217
_cell_volume                      1589.43855184

loop_
_atom_site_label
_atom_site_type_symbol
_atom_site_description
_atom_site_fract_x
_atom_site_fract_y
_atom_site_fract_z
_atom_type_partial_charge
O1    O     O_R   0.316770 0.614620 0.499990 -0.632295
O2    O     O_R   0.683230 0.385380 0.500010 -0.617789
O3    O     O_R   0.683230 0.614620 0.500010 -0.614200
O4    O     O_R   0.316770 0.385380 0.499990 -0.619865
C1    C     C_R   0.259960 0.503032 0.508011 0.903717
C2    C     C_R   0.740908 0.498405 0.501801 0.892130
O5    O     O_R   0.499980 0.614680 0.367850 -0.637206
O6    O     O_R   0.500020 0.385320 0.632150 -0.625605
O7    O     O_R   0.500020 0.614680 0.632150 -0.645829
O8    O     O_R   0.499980 0.385320 0.367850 -0.594632
C3    C     C_R   0.500868 0.499032 0.326629 0.947437
C4    C     C_R   0.496159 0.500841 0.672917 0.950694
Zn1   Zn    Zn3+2 0.500000 0.653120 0.500000 0.922593
Zn2   Zn    Zn3+2 0.500000 0.346880 0.500000 0.957105
C5    C     C_R   0.607527 0.504836 0.811271 0.093547
C6    C     C_R   0.385731 0.520836 0.188114 0.105394
C7    C     C_R   0.494700 0.503565 0.768189 -0.202395
C8    C     C_R   0.498121 0.495235 0.230699 -0.210802
C9    C     C_R   0.380637 0.505265 0.815060 0.447450
C10   C     C_R   0.606026 0.456090 0.181814 0.442916
C11   C     C_R   0.379180 0.498627 0.908475 -0.118922
C12   C     C_R   0.606740 0.466536 0.089276 -0.120311
C13   C     C_R   0.493395 0.484102 0.952148 -0.131255
C14   C     C_R   0.493560 0.480921 0.045658 -0.125759
C15   C     C_R   0.607823 0.476114 0.902771 0.058939
C16   C     C_R   0.380959 0.493402 0.095799 0.068142
C17   C     C_R   0.266713 0.500228 0.959237 0.554054
C18   C     C_R   0.718956 0.459643 0.039682 0.577752
C19   C     C_R   0.268665 0.479864 0.051515 0.028119
C20   C     C_R   0.718493 0.445371 0.947554 0.042515
C21   C     C_R   0.066576 0.398925 0.560793 0.150301
C22   C     C_R   0.936885 0.616577 0.477592 0.145368
C23   C     C_R   0.939585 0.387315 0.547230 0.146584
C24   C     C_R   0.060013 0.630113 0.498627 0.147930
C25   C     C_R   0.874958 0.497338 0.505394 -0.177341
C26   C     C_R   0.127406 0.512070 0.524784 -0.165841
C27   C     C_R   0.566435 0.070474 0.560697 -0.080109
C28   C     C_R   0.433539 0.929490 0.439319 -0.077204
C29   C     C_R   0.433423 0.073658 0.439376 -0.053094
C30   C     C_R   0.566558 0.926309 0.560638 -0.077474
H1    H     H_    0.619229 0.124011 0.609251 0.131403
H2    H     H_    0.380735 0.875896 0.390778 0.123189
H3    H     H_    0.380213 0.129798 0.391047 0.133852
H4    H     H_    0.619797 0.870140 0.608944 0.130311
N1    N     N_R   0.500000 0.857200 0.500000 -0.082714
N2    N     N_R   0.500000 0.142800 0.500000 -0.082670
C31   C     C_3   0.720571 0.558077 0.761326 -0.889473
H5    H     H_    0.789559 0.598885 0.806814 0.243691
H6    H     H_    0.763346 0.477653 0.717356 0.236003
H7    H     H_    0.694259 0.646869 0.719703 0.241930
C32   C     C_3   0.276683 0.585251 0.240590 -0.900718
H8    H     H_    0.206413 0.631491 0.196883 0.239061
H9    H     H_    0.233793 0.508775 0.285166 0.236555
H10   H     H_    0.307651 0.671659 0.281589 0.243464
O9    O     O_3   0.270956 0.505914 0.769253 -0.585442
C33   C     C_3   0.242765 0.638927 0.738133 -0.271103
H11   H     H_    0.283674 0.722308 0.777540 0.129318
H12   H     H_    0.140758 0.655133 0.740136 0.194201
H13   H     H_    0.273541 0.648382 0.667937 0.177316
O10   O     O_3   0.702338 0.384670 0.221334 -0.578844
C34   C     C_3   0.778203 0.473573 0.267526 -0.195120
H14   H     H_    0.756195 0.583967 0.257400 0.110663
H15   H     H_    0.876217 0.452999 0.246528 0.209380
H16   H     H_    0.770746 0.449061 0.338490 0.154295
O11   O     O_3   0.153915 0.517350 0.918899 -0.552567
C35   C     C_3   0.110434 0.652949 0.934959 -0.309456
H17   H     H_    0.179872 0.729068 0.914391 0.140843
H18   H     H_    0.085355 0.670252 0.006255 0.155753
H19   H     H_    0.026590 0.672438 0.895561 0.171853
O12   O     O_3   0.829778 0.483917 0.079610 -0.577537
C36   C     C_3   0.844042 0.627138 0.080892 -0.380049
H20   H     H_    0.762295 0.682712 0.111957 0.152853
H21   H     H_    0.860489 0.666411 0.012448 0.168837
H22   H     H_    0.924215 0.651876 0.121708 0.172691
C37   C     C_3   0.156472 0.418978 0.096889 -0.789015
H23   H     H_    0.115294 0.342667 0.052362 0.263620
H24   H     H_    0.181691 0.363610 0.158323 0.232861
H25   H     H_    0.085245 0.498526 0.113479 0.251202
C38   C     C_3   0.833947 0.383222 0.902488 -0.793018
H26   H     H_    0.871193 0.298375 0.943576 0.246642
H27   H     H_    0.814348 0.337033 0.837031 0.232727
H28   H     H_    0.906594 0.460162 0.895299 0.277575
C39   C     C_3   0.134532 0.297736 0.619857 -0.781981
H29   H     H_    0.224630 0.334793 0.641825 0.274531
H30   H     H_    0.080269 0.282626 0.682788 0.242035
H31   H     H_    0.150201 0.198712 0.584351 0.224588
C40   C     C_3   0.877124 0.728090 0.421172 -0.856071
H32   H     H_    0.802310 0.690805 0.380173 0.232466
H33   H     H_    0.839693 0.812586 0.464574 0.251658
H34   H     H_    0.945040 0.768872 0.371966 0.229730
C41   C     C_3   0.874751 0.257551 0.575401 -0.865686
H35   H     H_    0.836931 0.207223 0.516027 0.256896
H36   H     H_    0.935102 0.178113 0.605073 0.226315
H37   H     H_    0.799832 0.281932 0.625437 0.234541
C42   C     C_3   0.116489 0.770955 0.494661 -0.849240
H38   H     H_    0.173731 0.788280 0.553635 0.237796
H39   H     H_    0.171854 0.782095 0.431880 0.243493
H40   H     H_    0.046020 0.855352 0.498617 0.229802

loop_
_geom_bond_atom_site_label_1
_geom_bond_atom_site_label_2
_geom_bond_distance
_ccdc_geom_bond_type
C35   H18   1.107997 S    
O9    C33   1.415106 S    
C3    C8    1.442089 S    
C17   C19   1.401901 A    
C42   H38   1.109549 S    
C6    C32   1.519378 S    
C5    C31   1.522313 S    
C40   H32   1.099457 S    
O3    C2    1.283364 A    
C42   H40   1.108416 S    
Zn2   N2    1.999864 S    
C33   H11   1.114987 S    
O5    C3    1.287874 A    
O1    C1    1.274022 A    
C9    C11   1.404454 A    
C14   C16   1.415067 A    
C28   H2    1.081256 S    
C27   C30   1.412692 A    
C23   C41   1.525670 S    
C28   C29   1.412721 A    
C5    C15   1.404324 A    
C35   H19   1.108772 S    
C41   H36   1.105136 S    
C1    C26   1.447915 S    
C21   C39   1.521365 S    
C2    C25   1.451228 S    
C34   H15   1.109432 S    
O7    Zn1   2.022169 S    
C28   N1    1.365063 A    
C7    C9    1.402097 A    
C39   H29   1.107276 S    
C4    C7    1.430511 S    
C13   C14   1.404895 A    
C21   C23   1.401079 A    
O12   C36   1.416381 S    
C10   O10   1.386936 S    
C24   C26   1.412831 A    
O3    Zn1   2.005555 S    
C35   H17   1.112137 S    
C11   C17   1.416354 A    
C12   C18   1.405217 A    
C27   H1    1.081052 S    
O2    C2    1.286962 A    
O7    C4    1.276764 A    
C31   H7    1.109408 S    
C6    C16   1.413316 A    
C30   N1    1.364948 A    
C32   H8    1.106704 S    
C22   C25   1.422118 A    
C24   C42   1.525849 S    
C31   H6    1.107703 S    
O8    Zn2   2.022170 S    
C41   H35   1.110118 S    
C38   H27   1.108219 S    
C29   H3    1.081727 S    
C22   C40   1.526525 S    
O10   C34   1.406605 S    
C32   H9    1.110376 S    
C22   C24   1.386334 A    
C34   H16   1.095084 S    
C37   H23   1.111074 S    
C17   O11   1.382973 S    
C36   H22   1.107073 S    
C31   H5    1.106878 S    
C30   H4    1.081794 S    
O6    C4    1.282959 A    
C37   H24   1.109633 S    
C29   N2    1.365077 A    
C20   C38   1.513539 S    
C39   H30   1.111138 S    
C10   C12   1.393899 A    
C11   C13   1.418102 A    
C12   C14   1.407760 A    
O1    Zn1   2.026768 S    
C36   H21   1.111066 S    
C9    O9    1.387148 S    
C15   C20   1.414541 A    
C5    C7    1.396829 A    
O6    Zn2   2.017920 S    
C18   O12   1.380600 S    
O4    C1    1.294045 A    
C38   H28   1.107612 S    
C42   H39   1.110068 S    
C19   C37   1.513522 S    
C33   H13   1.101713 S    
C32   H10   1.109027 S    
C40   H33   1.110852 S    
C36   H20   1.114199 S    
C41   H37   1.109184 S    
Zn1   N1    1.999864 S    
C18   C20   1.389969 A    
C23   C25   1.426348 A    
C33   H12   1.109029 S    
C8    C10   1.403447 A    
C13   C15   1.424151 A    
O4    Zn2   2.005557 S    
C34   H14   1.113187 S    
O2    Zn2   2.026766 S    
C37   H25   1.102335 S    
O8    C3    1.277973 A    
C38   H26   1.111230 S    
O5    Zn1   2.017921 S    
C39   H31   1.110966 S    
C16   C19   1.409505 A    
C6    C8    1.405629 A    
O11   C35   1.413855 S    
C40   H34   1.111076 S    
C21   C26   1.408114 A    
C27   N2    1.365256 A    
