data_mof_unit_68478.cif
_audit_creation_date              2013-03-05T15:58:57-0500
_audit_creation_method            fapswitch 2.2
_symmetry_space_group_name_H-M    P1
_symmetry_Int_Tables_number       1
_space_group_crystal_system       triclinic
_cell_length_a                    8.193355
_cell_length_b                    12.706869
_cell_length_c                    14.907153
_cell_angle_alpha                 96.77927
_cell_angle_beta                  97.70275
_cell_angle_gamma                 98.650828
_cell_volume                      1505.30497938

loop_
_atom_site_label
_atom_site_type_symbol
_atom_site_description
_atom_site_fract_x
_atom_site_fract_y
_atom_site_fract_z
_atom_type_partial_charge
P1    P     P_3+3 0.998730 0.403530 0.291970 0.452742
O1    O     O_2   0.827880 0.435260 0.277750 -0.371349
O2    O     O_3   0.100280 0.438960 0.391170 -0.409728
O3    O     O_3   0.625580 0.634130 0.333250 -0.377352
O4    O     O_2   0.709652 0.559667 0.175353 -0.395070
O5    O     O_3   0.953296 0.263142 0.268979 -0.569091
O6    O     O_3   0.644867 0.754976 0.187893 -0.525894
H1    H     H_    0.681249 0.873610 0.298539 0.124482
C1    C     C_3   0.513808 0.909992 0.186194 -1.052075
H2    H     H_    0.464156 0.971117 0.229544 0.255582
H3    H     H_    0.615373 0.950741 0.153703 0.279063
P2    P     P_3+3 0.687380 0.751030 0.571310 0.466442
P3    P     P_3+3 0.101184 0.828787 0.378100 0.487283
O7    O     O_2   0.857130 0.766340 0.543890 -0.312711
O8    O     O_3   0.056550 0.691050 0.379010 -0.383797
O9    O     O_2   0.981601 0.880843 0.434423 -0.356990
O10   O     O_3   0.735946 0.785609 0.690213 -0.594582
O11   O     O_3   0.044410 0.856411 0.266819 -0.535485
C2    C     C_3   0.070212 0.770979 0.204239 0.483463
H4    H     H_    0.986029 0.695747 0.209639 0.153956
H5    H     H_    0.201626 0.757865 0.216075 0.004605
C3    C     C_3   0.031454 0.797212 0.107454 -0.968366
H6    H     H_    0.898085 0.805627 0.091927 0.289979
H7    H     H_    0.110676 0.873675 0.100037 0.255690
C4    C     C_3   0.385431 0.781167 0.727092 0.315527
H8    H     H_    0.468850 0.750717 0.779107 0.029059
H9    H     H_    0.417888 0.762801 0.658185 0.099621
C5    C     C_3   0.408287 0.901803 0.754153 -0.171475
H10   H     H_    0.544116 0.934011 0.772052 0.102508
H11   H     H_    0.346865 0.919777 0.814943 0.121609
Ba1   Ba    Ba6+2 0.843750 0.550210 0.455600 1.579000
C6    C     C_3   0.930025 0.220763 0.349502 0.396893
H12   H     H_    0.823020 0.249420 0.376136 0.087304
H13   H     H_    0.042731 0.244215 0.402052 0.138896
C7    C     C_3   0.895001 0.099011 0.327937 -0.941794
H14   H     H_    0.776576 0.073541 0.279784 0.258545
H15   H     H_    0.883652 0.062594 0.391106 0.233152
H16   H     H_    0.998586 0.070083 0.296587 0.287316
C8    C     C_3   0.781468 0.698341 0.730584 0.433349
H17   H     H_    0.882297 0.667766 0.698631 0.128548
H18   H     H_    0.672429 0.632931 0.723392 0.106677
C9    C     C_3   0.843808 0.736437 0.831946 -1.038817
H19   H     H_    0.963063 0.793907 0.840669 0.282124
H20   H     H_    0.864652 0.667595 0.868546 0.227539
H21   H     H_    0.750237 0.777047 0.863432 0.251845
P4    P     P_3+3 0.190990 0.596560 0.708040 0.480113
O12   O     O_2   0.361830 0.564780 0.722310 -0.403657
O13   O     O_3   0.089430 0.561130 0.608830 -0.361759
O14   O     O_3   0.564130 0.365960 0.666760 -0.336307
O15   O     O_3   0.218394 0.737163 0.725562 -0.559576
P5    P     P_3+3 0.088747 0.170085 0.620621 0.550757
O16   O     O_3   0.601940 0.368240 0.453770 -0.398402
O17   O     O_3   0.133170 0.309040 0.621000 -0.372995
O18   O     O_2   0.195732 0.119549 0.555461 -0.288335
O19   O     O_3   0.171828 0.143632 0.728296 -0.417742
Ba2   Ba    Ba6+2 0.346090 0.449880 0.544410 1.589993
P6    P     P_3+3 0.586105 0.625825 0.215051 0.442746
C10   C     C_3   0.579593 0.830107 0.244070 0.474282
H22   H     H_    0.476050 0.794199 0.277877 0.016856
H23   H     H_    0.412232 0.867116 0.131492 0.263237
O20   O     O_3   0.587780 0.631850 0.546230 -0.409751
C11   C     C_3   0.414005 0.284089 0.265086 0.447234
H24   H     H_    0.299148 0.303951 0.289953 0.093712
H25   H     H_    0.514112 0.355948 0.280579 0.122873
C12   C     C_3   0.376057 0.252735 0.161778 -1.007479
H26   H     H_    0.273589 0.182347 0.143801 0.273191
H27   H     H_    0.337025 0.320714 0.128814 0.222397
H28   H     H_    0.489244 0.231898 0.135225 0.263525
P7    P     P_3+3 0.506816 0.233148 0.423881 0.418031
O21   O     O_2   0.332590 0.233690 0.456160 -0.375000
O22   O     O_3   0.465395 0.197481 0.304953 -0.587933
H29   H     H_    0.056429 0.731703 0.057625 0.222056
C13   C     C_3   0.066120 0.172459 0.790119 0.446721
H30   H     H_    0.043121 0.256280 0.787113 0.048387
H31   H     H_    0.946556 0.114826 0.774840 0.004668
C14   C     C_3   0.147063 0.166439 0.886966 -0.912950
H32   H     H_    0.265079 0.225290 0.905454 0.286519
H33   H     H_    0.061200 0.185816 0.935856 0.210621
H34   H     H_    0.174314 0.084203 0.892416 0.250077
P8    P     P_3+3 0.602770 0.374810 0.785508 0.489856
C15   C     C_3   0.660431 0.188994 0.827867 0.451155
H35   H     H_    0.785892 0.238404 0.846988 -0.011557
O23   O     O_2   0.483045 0.445618 0.823051 -0.373075
O24   O     O_3   0.529652 0.248598 0.815140 -0.462546
H36   H     H_    0.660302 0.135248 0.763792 0.109979
H37   H     H_    0.660218 0.174936 0.971758 0.250442
C16   C     C_3   0.634268 0.122349 0.904805 -1.016289
H38   H     H_    0.720273 0.062632 0.906073 0.228299
H39   H     H_    0.503373 0.080101 0.895325 0.274199
C17   C     C_R   0.821455 0.438006 0.831083 0.117461
C18   C     C_R   0.890520 0.447459 0.924340 -0.011282
C19   C     C_R   0.036311 0.457231 0.110362 -0.031188
C20   C     C_R   0.873052 0.402975 0.077622 -0.076565
C21   C     C_R   0.799085 0.403267 0.988126 -0.201657
C22   C     C_R   0.108209 0.466185 0.203974 0.240831
H40   H     H_    0.798030 0.360774 0.120527 0.168601
H41   H     H_    0.669849 0.365707 0.969334 0.171807
C23   C     C_R   0.271638 0.520567 0.231798 -0.538016
C24   C     C_R   0.081630 0.533636 0.796238 0.255085
C25   C     C_R   0.151603 0.546193 0.890634 -0.020861
C26   C     C_R   0.057578 0.499281 0.953944 0.031068
C27   C     C_R   0.312909 0.603320 0.924016 -0.109348
C28   C     C_R   0.384807 0.607829 0.014698 -0.172842
C29   C     C_R   0.295954 0.559286 0.077523 -0.022404
C30   C     C_R   0.129753 0.505695 0.047481 0.007999
C31   C     C_R   0.367347 0.564194 0.169874 0.182727
C32   C     C_R   0.919956 0.476373 0.768226 -0.511898
H42   H     H_    0.511327 0.650304 0.034423 0.181797
H43   H     H_    0.388019 0.644068 0.880738 0.143742
H44   H     H_    0.327255 0.525981 0.302585 0.185537
H45   H     H_    0.866678 0.466504 0.696707 0.172720
C33   C     C_R   0.768544 0.181478 0.538155 -0.453120
C34   C     C_R   0.415912 0.810206 0.467832 -0.441252
C35   C     C_R   0.387773 0.986445 0.429789 -0.201008
C36   C     C_R   0.319837 0.879348 0.428335 0.251779
C37   C     C_R   0.578031 0.848266 0.514030 0.230321
C38   C     C_R   0.645424 0.959647 0.521581 -0.020847
C39   C     C_R   0.549100 0.028833 0.477318 -0.002436
C40   C     C_R   0.613593 0.139744 0.485614 0.289773
C41   C     C_R   0.867459 0.114311 0.577431 0.104130
C42   C     C_R   0.804817 0.004609 0.571873 -0.171161
H46   H     H_    0.309959 0.036058 0.396176 0.175869
H47   H     H_    0.882846 0.955902 0.605988 0.216476
H48   H     H_    0.818015 0.266212 0.542843 0.155167
H49   H     H_    0.361837 0.726596 0.465257 0.175478
N1    N     N_R   0.336028 0.952236 0.679387 0.279158
O25   O     O_R   0.424779 0.032690 0.652648 -0.378778
O26   O     O_R   0.180957 0.920735 0.641973 -0.337663

loop_
_geom_bond_atom_site_label_1
_geom_bond_atom_site_label_2
_geom_bond_distance
_ccdc_geom_bond_type
O5    C6    1.396518 S    
C16   H38   1.110587 S    
C20   C21   1.390063 A    
C23   H44   1.081861 S    
C13   H30   1.114156 S    
Ba1   O20   2.895361 S    
C2    H4    1.109413 S    
C14   H34   1.110748 S    
Ba1   O16   2.804482 S    
P8    O24   1.753630 S    
C29   C31   1.412157 A    
C35   C36   1.387147 A    
C22   C23   1.395583 A    
C8    H18   1.109218 S    
C4    C5    1.514928 S    
N1    O25   1.297339 A    
P3    O11   1.752495 S    
C5    H10   1.111227 S    
C7    H15   1.105868 S    
C14   H33   1.110811 S    
C17   C32   1.399726 A    
C33   H48   1.082510 S    
P2    C37   1.853499 S    
C34   H49   1.082002 S    
P1    Ba1   3.391933 S    
C37   C38   1.425224 A    
C1    C10   1.520523 S    
O10   C8    1.397411 S    
P7    O22   1.751125 S    
C38   C42   1.416327 A    
C4    O15   1.394500 S    
C19   C20   1.403894 A    
C11   H25   1.110840 S    
O16   P7    1.753999 S    
H1    C10   1.110335 S    
C39   C40   1.413521 A    
C7    H14   1.107002 S    
C12   H27   1.109553 S    
O3    P6    1.735939 S    
C28   H42   1.079283 S    
Ba1   Ba2   4.503985 S    
C1    H2    1.110596 S    
O7    Ba1   2.881669 S    
O6    C10   1.408413 S    
C34   C37   1.398370 A    
P6    C31   1.846362 S    
C13   H31   1.110338 S    
P7    O21   1.567048 D    
C9    H20   1.106655 S    
C18   C26   1.414291 A    
P8    O23   1.542346 D    
C3    H29   1.110212 S    
C29   C30   1.415698 A    
C5    N1    1.452327 S    
C15   H35   1.103249 S    
C8    C9    1.524620 S    
C26   C30   1.427669 A    
P4    O13   1.575619 S    
P1    O5    1.749287 S    
C6    C7    1.517722 S    
C2    C3    1.521883 S    
C14   H32   1.110204 S    
C8    H17   1.103926 S    
C33   C41   1.388130 A    
H37   C16   1.109410 S    
O11   C2    1.405793 S    
C21   H41   1.079065 S    
C4    H8    1.107431 S    
P7    C40   1.837216 S    
C19   C22   1.424550 A    
O1    Ba1   2.848799 S    
P1    O2    1.575465 S    
C9    H21   1.110242 S    
C6    H13   1.106072 S    
P2    O10   1.751464 S    
C11   H24   1.108868 S    
O2    Ba2   2.810983 S    
C24   C25   1.427412 A    
P1    C22   1.872523 S    
C12   H28   1.111011 S    
C7    H16   1.110609 S    
C25   C27   1.403958 A    
P5    C41   1.843068 S    
C15   C16   1.522875 S    
O2    Ba1   2.907411 S    
C1    H3    1.110320 S    
C35   C39   1.408539 A    
P2    O7    1.493013 D    
C20   H40   1.077815 S    
Ba2   O21   2.881985 S    
Ba1   O13   2.810238 S    
P3    O8    1.735375 S    
P2    Ba1   3.415430 S    
C13   C14   1.521407 S    
C3    H7    1.110164 S    
C4    H9    1.102558 S    
C9    H19   1.110766 S    
C15   O24   1.407595 S    
C41   C42   1.399843 A    
O17   Ba2   2.761681 S    
O13   Ba2   2.908251 S    
P4    O12   1.509351 D    
N1    O26   1.299984 A    
C11   C12   1.522043 S    
C2    H5    1.108253 S    
C3    H6    1.110078 S    
C32   H45   1.081741 S    
C33   C40   1.392605 A    
O8    Ba1   2.761103 S    
P3    C36   1.834000 S    
O14   Ba2   2.795356 S    
C24   C32   1.395907 A    
P4    O15   1.750453 S    
C23   C31   1.399463 A    
O14   P8    1.743135 S    
O4    P6    1.542960 D    
P5    O18   1.540969 D    
C6    H12   1.101865 S    
C1    H23   1.109598 S    
P4    C24   1.875972 S    
C5    H11   1.111128 S    
C10   H22   1.111016 S    
C38   C39   1.427303 A    
C18   C21   1.403992 A    
P2    O20   1.584904 S    
C17   C18   1.412993 A    
P1    O1    1.509123 D    
C35   H46   1.079284 S    
C25   C26   1.424464 A    
C11   O22   1.402982 S    
P5    O19   1.748173 S    
P8    C17   1.851723 S    
C27   C28   1.391326 A    
C42   H47   1.075444 S    
O3    Ba1   2.796003 S    
O19   C13   1.401200 S    
C19   C30   1.425105 A    
C12   H26   1.110782 S    
P3    O9    1.544945 D    
P4    Ba2   3.392477 S    
C28   C29   1.404162 A    
C16   H39   1.107528 S    
Ba2   O20   2.803939 S    
C27   H43   1.073531 S    
P5    O17   1.747544 S    
O6    P6    1.749380 S    
C15   H36   1.106474 S    
O16   Ba2   2.894612 S    
O12   Ba2   2.849360 S    
C34   C36   1.394334 A    
