data_mof_unit_15477.cif
_audit_creation_date              2013-03-05T15:43:15-0500
_audit_creation_method            fapswitch 2.2
_symmetry_space_group_name_H-M    P1
_symmetry_Int_Tables_number       1
_space_group_crystal_system       triclinic
_cell_length_a                    12.726341
_cell_length_b                    12.726359
_cell_length_c                    26.884548
_cell_angle_alpha                 89.999244
_cell_angle_beta                  90.000119
_cell_angle_gamma                 120.001226
_cell_volume                      3770.81938948

loop_
_atom_site_label
_atom_site_type_symbol
_atom_site_description
_atom_site_fract_x
_atom_site_fract_y
_atom_site_fract_z
_atom_type_partial_charge
O1    O     O_R   0.460870 0.120930 0.805240 -0.478128
O2    O     O_R   0.660060 0.539130 0.694760 -0.479700
O3    O     O_R   0.879070 0.339940 0.805240 -0.478124
O4    O     O_R   0.460870 0.120930 0.694760 -0.479712
O5    O     O_R   0.660060 0.539130 0.805240 -0.478110
O6    O     O_R   0.879070 0.339940 0.694760 -0.479705
O7    O     O_R   0.120930 0.460870 0.305240 -0.476739
O8    O     O_R   0.539130 0.660060 0.194760 -0.478409
O9    O     O_R   0.339940 0.879070 0.305240 -0.476724
O10   O     O_R   0.120930 0.460870 0.194760 -0.478394
O11   O     O_R   0.539130 0.660060 0.305240 -0.476659
O12   O     O_R   0.339940 0.879070 0.194760 -0.478380
O13   O     O_R   0.498910 0.350470 0.801870 -0.455147
O14   O     O_R   0.851560 0.501090 0.698130 -0.455630
O15   O     O_R   0.649530 0.148440 0.801870 -0.455143
O16   O     O_R   0.498910 0.350470 0.698130 -0.455639
O17   O     O_R   0.851560 0.501090 0.801870 -0.455158
O18   O     O_R   0.649530 0.148440 0.698130 -0.455646
O19   O     O_R   0.350470 0.498910 0.301870 -0.455063
O20   O     O_R   0.501090 0.851560 0.198130 -0.455453
O21   O     O_R   0.148440 0.649530 0.301870 -0.455056
O22   O     O_R   0.350470 0.498910 0.198130 -0.455425
O23   O     O_R   0.501090 0.851560 0.301870 -0.455275
O24   O     O_R   0.148440 0.649530 0.198130 -0.455425
C1    C     C_R   0.556413 0.457009 0.821616 0.545902
C2    C     C_R   0.900458 0.443431 0.678339 0.546178
C3    C     C_R   0.542989 0.099404 0.821617 0.545891
C4    C     C_R   0.556566 0.457028 0.678340 0.546164
C5    C     C_R   0.900595 0.443586 0.821617 0.545867
C6    C     C_R   0.542965 0.099532 0.678344 0.546161
C7    C     C_R   0.456975 0.556240 0.321568 0.544467
C8    C     C_R   0.443619 0.900623 0.178392 0.544682
C9    C     C_R   0.099259 0.543018 0.321566 0.544442
C10   C     C_R   0.457004 0.556383 0.178392 0.544693
C11   C     C_R   0.443753 0.900728 0.321569 0.544207
C12   C     C_R   0.099378 0.542996 0.178392 0.544677
C13   C     C_R   0.996437 0.505751 0.973796 -0.120046
C14   C     C_R   0.509583 0.004535 0.526016 -0.120081
C15   C     C_R   0.494242 0.490685 0.973793 -0.120049
C16   C     C_R   0.995322 0.504996 0.525990 -0.120075
C17   C     C_R   0.509324 0.003572 0.973797 -0.120048
C18   C     C_R   0.494970 0.490325 0.525997 -0.120083
C19   C     C_R   0.506533 0.997592 0.473565 -0.120252
C20   C     C_R   0.003340 0.509246 0.026250 -0.120059
C21   C     C_R   0.491075 0.493360 0.473545 -0.120242
C22   C     C_R   0.505920 0.996676 0.026251 -0.120063
C23   C     C_R   0.002246 0.508884 0.473538 -0.120256
C24   C     C_R   0.490750 0.494096 0.026248 -0.120063
C25   C     C_R   0.998453 0.697629 0.974005 0.449411
C26   C     C_R   0.696477 0.996814 0.526289 0.449891
C27   C     C_R   0.302359 0.300822 0.974008 0.449422
C28   C     C_R   0.003019 0.699597 0.526269 0.449899
C29   C     C_R   0.699182 0.001548 0.974007 0.449419
C30   C     C_R   0.300367 0.303415 0.526281 0.449914
C31   C     C_R   0.694928 0.992687 0.474368 0.449732
C32   C     C_R   0.002543 0.699727 0.025927 0.449388
C33   C     C_R   0.297807 0.304931 0.474359 0.449698
C34   C     C_R   0.697200 0.997479 0.025929 0.449392
C35   C     C_R   0.007078 0.702145 0.474348 0.449724
C36   C     C_R   0.300268 0.302814 0.025930 0.449400
C37   C     C_R   0.978211 0.589619 0.894502 0.194237
C38   C     C_R   0.610050 0.020357 0.605547 0.194469
C39   C     C_R   0.410372 0.388583 0.894502 0.194224
C40   C     C_R   0.979570 0.589666 0.605528 0.194454
C41   C     C_R   0.611412 0.021788 0.894502 0.194225
C42   C     C_R   0.410315 0.389901 0.605535 0.194471
C43   C     C_R   0.589428 0.976463 0.394571 0.194226
C44   C     C_R   0.022106 0.611703 0.105487 0.194322
C45   C     C_R   0.387004 0.410512 0.394555 0.194146
C46   C     C_R   0.589611 0.977906 0.105491 0.194325
C47   C     C_R   0.023461 0.612951 0.394546 0.194149
C48   C     C_R   0.388298 0.410401 0.105488 0.194322
C49   C     C_R   0.037411 0.521514 0.129678 -0.035400
C50   C     C_R   0.484926 0.963186 0.370160 -0.036215
C51   C     C_R   0.478485 0.515902 0.129676 -0.035396
C52   C     C_R   0.036734 0.521713 0.370142 -0.036032
C53   C     C_R   0.484113 0.962600 0.129680 -0.035367
C54   C     C_R   0.478256 0.515018 0.370148 -0.036032
C55   C     C_R   0.521255 0.038265 0.629466 -0.034522
C56   C     C_R   0.962438 0.483904 0.870361 -0.035133
C57   C     C_R   0.517012 0.478711 0.629455 -0.034521
C58   C     C_R   0.521465 0.037557 0.870361 -0.035111
C59   C     C_R   0.961684 0.482974 0.629451 -0.034505
C60   C     C_R   0.516087 0.478531 0.870359 -0.035111
C61   C     C_R   0.992275 0.599544 0.947059 -0.064897
C62   C     C_R   0.606006 0.006048 0.552995 -0.064543
C63   C     C_R   0.400447 0.392726 0.947059 -0.064909
C64   C     C_R   0.993829 0.599911 0.552973 -0.064592
C65   C     C_R   0.607276 0.007728 0.947059 -0.064911
C66   C     C_R   0.400060 0.393915 0.552981 -0.064559
C67   C     C_R   0.598906 0.990216 0.447129 -0.064908
C68   C     C_R   0.008081 0.607531 0.052930 -0.064935
C69   C     C_R   0.391313 0.400991 0.447112 -0.064988
C70   C     C_R   0.599465 0.991935 0.052933 -0.064956
C71   C     C_R   0.009634 0.608642 0.447103 -0.065017
C72   C     C_R   0.392467 0.400549 0.052931 -0.064943
Cr1   Cr    Cr6+3 0.487630 0.241180 0.750000 1.197210
Cr2   Cr    Cr6+3 0.753550 0.512370 0.750000 1.197215
Cr3   Cr    Cr6+3 0.758820 0.246450 0.750000 1.197207
Cr4   Cr    Cr6+3 0.241180 0.487630 0.250000 1.197786
Cr5   Cr    Cr6+3 0.512370 0.753550 0.250000 1.197638
Cr6   Cr    Cr6+3 0.246450 0.758820 0.250000 1.197755
O25   O     O_3   0.666667 0.333333 0.750000 -0.323727
O26   O     O_3   0.333333 0.666667 0.250000 -0.323149
C73   C     C_R   0.983451 0.401561 0.896733 -0.097226
C74   C     C_R   0.419075 0.019859 0.602824 -0.097794
C75   C     C_R   0.598425 0.581897 0.896729 -0.097208
C76   C     C_R   0.980050 0.399182 0.602803 -0.097806
C77   C     C_R   0.418107 0.016538 0.896734 -0.097212
C78   C     C_R   0.600796 0.580873 0.602806 -0.097807
C79   C     C_R   0.404306 0.987242 0.396204 -0.096500
C80   C     C_R   0.015823 0.417903 0.103367 -0.097268
C81   C     C_R   0.582965 0.595594 0.396183 -0.096504
C82   C     C_R   0.402095 0.984198 0.103368 -0.097250
C83   C     C_R   0.012591 0.417000 0.396177 -0.096386
C84   C     C_R   0.582095 0.597930 0.103364 -0.097251
C85   C     C_R   0.995120 0.408346 0.948109 -0.059170
C86   C     C_R   0.414593 0.008452 0.551455 -0.059468
C87   C     C_R   0.591643 0.586777 0.948104 -0.059171
C88   C     C_R   0.991418 0.406095 0.551429 -0.059440
C89   C     C_R   0.413232 0.004881 0.948110 -0.059167
C90   C     C_R   0.593873 0.585327 0.551434 -0.059471
C91   C     C_R   0.410984 0.999355 0.447578 -0.058459
C92   C     C_R   0.004094 0.412929 0.051993 -0.059053
C93   C     C_R   0.588394 0.588904 0.447555 -0.058498
C94   C     C_R   0.408851 0.995925 0.051993 -0.059049
C95   C     C_R   0.000468 0.411564 0.447549 -0.058442
C96   C     C_R   0.587068 0.591172 0.051988 -0.059048
C97   C     C_R   0.000227 0.315826 0.025860 0.440768
C98   C     C_R   0.318952 0.005933 0.473478 0.441520
C99   C     C_R   0.684172 0.684410 0.025853 0.440769
C100  C     C_R   0.993874 0.312945 0.473449 0.441551
C101  C     C_R   0.315612 0.999789 0.025860 0.440769
C102  C     C_R   0.687008 0.680934 0.473452 0.441548
C103  C     C_R   0.319363 0.007822 0.525044 0.440452
C104  C     C_R   0.998403 0.314860 0.974294 0.440665
C105  C     C_R   0.688479 0.680544 0.525015 0.440458
C106  C     C_R   0.316464 0.001600 0.974295 0.440661
C107  C     C_R   0.992018 0.311482 0.525014 0.440406
C108  C     C_R   0.685133 0.683551 0.974288 0.440676
H1    H     H_    0.018123 0.344443 0.122570 0.256148
H2    H     H_    0.329632 0.986687 0.376785 0.256073
H3    H     H_    0.655555 0.673697 0.122565 0.256160
H4    H     H_    0.013139 0.342870 0.376761 0.256176
H5    H     H_    0.326333 0.981898 0.122570 0.256164
H6    H     H_    0.657096 0.670282 0.376768 0.256104
H7    H     H_    0.346561 0.024471 0.621755 0.256178
H8    H     H_    0.980738 0.325552 0.877582 0.256232
H9    H     H_    0.677923 0.653397 0.621734 0.256185
H10   H     H_    0.344806 0.019243 0.877582 0.256242
H11   H     H_    0.975446 0.322056 0.621732 0.256179
H12   H     H_    0.674430 0.655201 0.877575 0.256241
N1    N     N_R   0.018974 0.704572 0.134524 0.152367
O27   O     O_R   0.110367 0.814752 0.133703 -0.200804
O28   O     O_R   0.935091 0.674623 0.168090 -0.253118
N2    N     N_R   0.684963 0.978027 0.365760 0.153948
O29   O     O_R   0.741861 0.063138 0.332919 -0.250437
O30   O     O_R   0.701107 0.884962 0.366210 -0.204112
N3    N     N_R   0.295433 0.314394 0.134526 0.152374
O31   O     O_R   0.185255 0.295609 0.133714 -0.200811
O32   O     O_R   0.325390 0.260466 0.168091 -0.253135
N4    N     N_R   0.022042 0.706991 0.365722 0.153867
O33   O     O_R   0.114889 0.816320 0.366446 -0.203683
O34   O     O_R   0.937944 0.678680 0.332399 -0.250921
N5    N     N_R   0.685608 0.981030 0.134531 0.152349
O35   O     O_R   0.739352 0.064747 0.168175 -0.253343
O36   O     O_R   0.704457 0.889680 0.133669 -0.200723
N6    N     N_R   0.292937 0.315066 0.365735 0.153863
O37   O     O_R   0.183621 0.298614 0.366469 -0.203692
O38   O     O_R   0.321211 0.259261 0.332406 -0.250875
N7    N     N_R   0.701401 0.015041 0.634852 0.150534
O39   O     O_R   0.812625 0.104487 0.633897 -0.197130
O40   O     O_R   0.669403 0.931514 0.668727 -0.253889
N8    N     N_R   0.981744 0.685748 0.865419 0.152020
O41   O     O_R   0.065678 0.739375 0.831848 -0.251836
O42   O     O_R   0.890650 0.705001 0.866225 -0.200347
N9    N     N_R   0.313639 0.298563 0.634839 0.150543
O43   O     O_R   0.291881 0.187347 0.633908 -0.197175
O44   O     O_R   0.262102 0.330579 0.668704 -0.253889
N10   N     N_R   0.704003 0.018252 0.865415 0.152000
O45   O     O_R   0.814374 0.109303 0.866249 -0.200252
O46   O     O_R   0.673666 0.934425 0.831795 -0.251907
N11   N     N_R   0.984918 0.686346 0.634831 0.150540
O47   O     O_R   0.068410 0.737807 0.668724 -0.253958
O48   O     O_R   0.895481 0.708136 0.633883 -0.197116
N12   N     N_R   0.314247 0.295982 0.865417 0.151998
O49   O     O_R   0.294934 0.185615 0.866256 -0.200254
O50   O     O_R   0.260753 0.326306 0.831792 -0.251895
F1    F     F_    0.001109 0.793535 0.049096 -0.389008
F2    F     F_    0.788696 0.990644 0.451450 -0.388182
F3    F     F_    0.206458 0.207569 0.049101 -0.388991
F4    F     F_    0.008936 0.797875 0.451442 -0.388158
F5    F     F_    0.792458 0.998942 0.049096 -0.389007
F6    F     F_    0.202067 0.211062 0.451455 -0.388232
F7    F     F_    0.787806 0.991321 0.549778 -0.391210
F8    F     F_    0.000585 0.793151 0.950775 -0.389286
F9    F     F_    0.203543 0.212081 0.549769 -0.391200
F10   F     F_    0.792555 0.999387 0.950779 -0.389290
F11   F     F_    0.008524 0.796429 0.549754 -0.391158
F12   F     F_    0.206825 0.207442 0.950782 -0.389290
F13   F     F_    0.000608 0.222691 0.050273 -0.430643
F14   F     F_    0.226949 0.008029 0.448835 -0.431598
F15   F     F_    0.777313 0.777927 0.050264 -0.430635
F16   F     F_    0.991744 0.218828 0.448807 -0.431590
F17   F     F_    0.222100 0.999414 0.050273 -0.430647
F18   F     F_    0.781111 0.772928 0.448805 -0.431571
F19   F     F_    0.227476 0.011249 0.549171 -0.430646
F20   F     F_    0.997486 0.221021 0.949934 -0.430527
F21   F     F_    0.783781 0.772446 0.549142 -0.430621
F22   F     F_    0.223537 0.002505 0.949934 -0.430533
F23   F     F_    0.988614 0.216178 0.549142 -0.430702
F24   F     F_    0.778972 0.776475 0.949925 -0.430516

loop_
_geom_bond_atom_site_label_1
_geom_bond_atom_site_label_2
_geom_bond_distance
_ccdc_geom_bond_type
C93   C102  1.400570 A    
O16   C4    1.290487 A    
C16   C23   1.412241 A    
C17   C65   1.416859 A    
N7    O39   1.299490 A    
C11   C50   1.482030 S    
N5    O35   1.300877 A    
C47   N4    1.433439 S    
O17   C5    1.289771 A    
C76   C88   1.386906 A    
Cr3   O25   1.973521 S    
C98   C103  1.386486 A    
C41   N10   1.433555 S    
C15   C63   1.416860 A    
C78   H9    1.080879 S    
C21   C69   1.416431 A    
C57   C78   1.397933 A    
C52   C83   1.396676 A    
C102  C105  1.386433 A    
C35   F4    1.354703 S    
O4    C6    1.282587 A    
C42   C66   1.422164 A    
O23   Cr5   1.923573 S    
C100  C107  1.386464 A    
C41   C65   1.421916 A    
C38   N7    1.433691 S    
C38   C62   1.422172 A    
C108  F24   1.356956 S    
C2    C59   1.481794 S    
C48   N3    1.433517 S    
C28   F11   1.354933 S    
C14   C62   1.417250 A    
C29   F10   1.354798 S    
C13   C61   1.416857 A    
N2    O29   1.301028 A    
C46   C70   1.421894 A    
C80   C92   1.387268 A    
C45   C69   1.421559 A    
N11   O48   1.299500 A    
C47   C52   1.415392 A    
C82   C94   1.387294 A    
C47   C71   1.421547 A    
O9    C11   1.284519 A    
O16   Cr1   1.923546 S    
C102  F18   1.357116 S    
O21   C9    1.288831 A    
C37   C56   1.414747 A    
C101  F17   1.356976 S    
Cr2   O25   1.973486 S    
C76   H11   1.080892 S    
Cr4   O26   1.973486 S    
C60   C75   1.397351 A    
C83   C95   1.387578 A    
C59   C76   1.397958 A    
C17   C89   1.411750 A    
O3    C5    1.283512 A    
C95   C100  1.400608 A    
C31   C67   1.411438 A    
C99   C108  1.386461 A    
C79   H2    1.081202 S    
C8    C53   1.481962 S    
N8    O41   1.300893 A    
C40   N11   1.433671 S    
C94   C101  1.400825 A    
C21   C93   1.412300 A    
O9    Cr6   2.035256 S    
N9    O44   1.300896 A    
C1    C60   1.481964 S    
C17   C22   1.412251 A    
N3    O32   1.300882 A    
O18   C6    1.290522 A    
N1    O28   1.300885 A    
C99   F15   1.356981 S    
O17   Cr2   1.923557 S    
C98   F14   1.357129 S    
C10   C51   1.481990 S    
C97   F13   1.356974 S    
C80   H1    1.081078 S    
N6    O38   1.300875 A    
O19   C7    1.288789 A    
C101  C106  1.386467 A    
N5    O36   1.299428 A    
C33   C69   1.411495 A    
O4    Cr1   2.035272 S    
O12   C8    1.283716 A    
C46   C53   1.414890 A    
O7    C9    1.284533 A    
C73   C85   1.387232 A    
C45   C54   1.415427 A    
C35   C71   1.411491 A    
C48   C51   1.414870 A    
O8    Cr5   2.035278 S    
C75   C87   1.387228 A    
N10   O46   1.300862 A    
O14   Cr2   1.923565 S    
N4    O34   1.300869 A    
O22   C10   1.289586 A    
C42   N9    1.433650 S    
C32   F1    1.354762 S    
C100  F16   1.357140 S    
O22   Cr4   1.923558 S    
O7    Cr4   2.035254 S    
C37   N8    1.433518 S    
C79   C91   1.387614 A    
C58   C77   1.397352 A    
C25   C61   1.411042 A    
C38   C55   1.414206 A    
C28   C64   1.410728 A    
C90   C105  1.401205 A    
C44   N1    1.433513 S    
C12   C49   1.481979 S    
C46   N5    1.433556 S    
O1    Cr1   2.035242 S    
C50   C79   1.396704 A    
C104  F20   1.356948 S    
O20   Cr5   1.923551 S    
C107  F23   1.356893 S    
C44   C49   1.414867 A    
C73   H8    1.081019 S    
C56   C73   1.397365 A    
C106  F22   1.356943 S    
C19   C67   1.416438 A    
C74   H7    1.080866 S    
C55   C74   1.397937 A    
C105  F21   1.356866 S    
C43   N2    1.433312 S    
C18   C66   1.417240 A    
C18   C21   1.412227 A    
C48   C72   1.421856 A    
C89   C106  1.400893 A    
Cr6   O26   1.973520 S    
N11   O47   1.300893 A    
C31   F2    1.354754 S    
C40   C59   1.414212 A    
O12   Cr6   2.035232 S    
C28   C35   1.396607 A    
C24   C96   1.411848 A    
C97   C104  1.386475 A    
N7    O40   1.300875 A    
C26   F7    1.354915 S    
C9    C52   1.482027 S    
O15   C3    1.289766 A    
N3    O31   1.299417 A    
C22   C70   1.416790 A    
C29   C34   1.396622 A    
C39   N12   1.433541 S    
C43   C67   1.421471 A    
C43   C50   1.415360 A    
C84   H3    1.081082 S    
O11   Cr5   2.035252 S    
C88   C107  1.401222 A    
O8    C10   1.283688 A    
O14   C2    1.290525 A    
O10   Cr4   2.035258 S    
C30   F9    1.354937 S    
Cr1   O25   1.973483 S    
C37   C61   1.421909 A    
O5    C1    1.283500 A    
C6    C55   1.481761 S    
C36   C72   1.411131 A    
N6    O37   1.299362 A    
C16   C88   1.411335 A    
Cr5   O26   1.973483 S    
O23   C11   1.288834 A    
C91   C98   1.400618 A    
C29   C65   1.411047 A    
C54   C81   1.396652 A    
C75   H12   1.081047 S    
O18   Cr3   1.923554 S    
O21   Cr6   1.923531 S    
C27   C63   1.411052 A    
C53   C82   1.397247 A    
C96   C99   1.400852 A    
C19   C91   1.412280 A    
N10   O45   1.299427 A    
C18   C90   1.411333 A    
C7    C54   1.482036 S    
C103  F19   1.356873 S    
N4    O33   1.299360 A    
O20   C8    1.289608 A    
C49   C80   1.397224 A    
C83   H4    1.081261 S    
C24   C72   1.416777 A    
C39   C63   1.421919 A    
C4    C57   1.481799 S    
C22   C94   1.411844 A    
C3    C58   1.481964 S    
C87   C108  1.400912 A    
C82   H5    1.081092 S    
O15   Cr3   1.923533 S    
O13   C1    1.289751 A    
C20   C68   1.416772 A    
O2    C4    1.282625 A    
O19   Cr4   1.923555 S    
C30   C66   1.410739 A    
C27   C36   1.396638 A    
C25   F8    1.354827 S    
C25   C32   1.396628 A    
C39   C60   1.414753 A    
C34   F5    1.354745 S    
C26   C31   1.396632 A    
O24   C12   1.289599 A    
C33   F6    1.354705 S    
O6    Cr3   2.035236 S    
C16   C64   1.417262 A    
C13   C20   1.412245 A    
N2    O30   1.299413 A    
C77   H10   1.081020 S    
C34   C70   1.411141 A    
C45   N6    1.433434 S    
C14   C19   1.412210 A    
C78   C90   1.386894 A    
C42   C57   1.414216 A    
C77   C89   1.387231 A    
C41   C58   1.414760 A    
O6    C2    1.282629 A    
C5    C56   1.481948 S    
C23   C95   1.412313 A    
C36   F3    1.354770 S    
C15   C87   1.411752 A    
C81   C93   1.387559 A    
C44   C68   1.421866 A    
C20   C92   1.411842 A    
C92   C97   1.400842 A    
O24   Cr6   1.923556 S    
O13   Cr1   1.923571 S    
N8    O42   1.299436 A    
C81   H6    1.081284 S    
C27   F12   1.354789 S    
C26   C62   1.410766 A    
O11   C7    1.284549 A    
C14   C86   1.411337 A    
O3    Cr3   2.035252 S    
C32   C68   1.411140 A    
C13   C85   1.411755 A    
O5    Cr2   2.035268 S    
O2    Cr2   2.035260 S    
N9    O43   1.299490 A    
C84   C96   1.387302 A    
O1    C3    1.283512 A    
C23   C71   1.416432 A    
O10   C12   1.283704 A    
C51   C84   1.397234 A    
N12   O49   1.299429 A    
C85   C104  1.400900 A    
N12   O50   1.300887 A    
C40   C64   1.422181 A    
C74   C86   1.386826 A    
C86   C103  1.401186 A    
C15   C24   1.412253 A    
N1    O27   1.299416 A    
C30   C33   1.396624 A    
