data_mof_unit_66253.cif
_audit_creation_date              2012-12-10T17:52:49-0500
_audit_creation_method            fapswitch 2.2
_symmetry_space_group_name_H-M    P1
_symmetry_Int_Tables_number       1
_space_group_crystal_system       triclinic
_cell_length_a                    18.670332
_cell_length_b                    18.895247
_cell_length_c                    18.730062
_cell_angle_alpha                 109.939465
_cell_angle_beta                  109.212759
_cell_angle_gamma                 109.78009
_cell_volume                      5053.5456466

loop_
_atom_site_label
_atom_site_type_symbol
_atom_type_description
_atom_site_fract_x
_atom_site_fract_y
_atom_site_fract_z
_atom_type_partial_charge
C1    C     C_R   0.117729 0.120090 0.497485 0.917739
C2    C     C_R   0.269287 0.015143 0.682854 0.045948
C3    C     C_R   0.192616 0.006795 0.687497 -0.098731
C4    C     C_R   0.177044 0.990921 0.750470 0.078341
C5    C     C_R   0.238942 0.985224 0.810092 -0.220582
C6    C     C_R   0.311543 0.987475 0.802871 -0.128401
C7    C     C_R   0.175138 0.175758 0.415032 0.001745
C8    C     C_R   0.240944 0.240447 0.416478 0.621739
C9    C     C_R   0.312038 0.312783 0.497260 -0.153853
C10   C     C_R   0.318155 0.322568 0.576561 -0.269697
C11   C     C_R   0.252470 0.259906 0.575676 -0.215453
C12   C     C_R   0.122815 0.002955 0.620522 0.907312
C13   C     C_R   0.182285 0.186217 0.495606 -0.100962
C14   C     C_R   0.736434 0.921386 0.247335 0.597257
C15   C     C_R   0.672341 0.921765 0.184185 -0.233285
C16   C     C_R   0.687710 0.000151 0.185662 -0.206309
C17   C     C_R   0.766787 0.078337 0.250208 -0.236409
C18   C     C_R   0.830132 0.078512 0.314752 0.569385
C19   C     C_R   0.814721 0.999946 0.312913 -0.309034
C20   C     C_R   0.814250 0.735876 0.484068 -0.224295
C21   C     C_R   0.751544 0.671056 0.484387 0.115625
C22   C     C_R   0.687323 0.684728 0.500017 -0.131233
C23   C     C_R   0.879412 0.879774 0.499855 0.936455
C24   C     C_R   0.685906 0.761695 0.515009 -0.249577
C25   C     C_R   0.749497 0.826692 0.515959 0.670466
C26   C     C_R   0.813518 0.813491 0.500293 -0.213084
C27   C     C_R   0.501602 0.879970 0.881294 0.936208
C28   C     C_R   0.379376 0.995545 0.875844 0.865621
C29   C     C_R   0.499712 0.120223 0.120197 0.940887
C30   C     C_R   0.620728 0.000231 0.120183 0.951799
C31   C     C_R   0.500647 0.620591 0.620529 0.940793
C32   C     C_R   0.379421 0.379430 0.499131 0.938804
C33   C     C_R   0.499692 0.379958 0.379727 0.999372
C34   C     C_R   0.880100 0.999978 0.379555 1.004606
C35   C     C_R   0.620446 0.619231 0.499600 0.903328
C36   C     C_R   0.582399 0.824255 0.822224 0.561861
C37   C     C_R   0.582174 0.759898 0.758339 0.557392
C38   C     C_R   0.501695 0.687087 0.687282 -0.247192
C39   C     C_R   0.421721 0.677622 0.680006 -0.246996
C40   C     C_R   0.421998 0.740747 0.744955 -0.245141
C41   C     C_R   0.502191 0.814077 0.815426 -0.250644
C42   C     C_R   0.512656 0.263292 0.185083 -0.240144
C43   C     C_R   0.511476 0.326830 0.248257 0.563560
C44   C     C_R   0.498803 0.313581 0.313182 -0.304818
C45   C     C_R   0.295751 0.045963 0.631089 0.105548
C46   C     C_R   0.485901 0.236881 0.314694 0.603170
C47   C     C_R   0.484986 0.172557 0.250208 -0.252316
C48   C     C_R   0.499063 0.186267 0.186073 -0.215094
C49   C     C_R   0.364317 0.040622 0.619485 -0.208648
C50   C     C_R   0.404997 0.002745 0.655643 -0.127464
C51   C     C_R   0.383897 0.976853 0.710733 0.115117
C52   C     C_R   0.322415 0.992628 0.732983 0.027021
H1    H     H_    0.257435 0.267726 0.637506 0.178780
H2    H     H_    0.611268 0.861062 0.133832 0.196222
H3    H     H_    0.778593 0.139100 0.251460 0.194041
H4    H     H_    0.863987 0.725994 0.471956 0.190105
H5    H     H_    0.635892 0.771462 0.526590 0.183020
H6    H     H_    0.359559 0.620951 0.624970 0.189010
H7    H     H_    0.359971 0.733274 0.739625 0.188108
H8    H     H_    0.523077 0.273587 0.135004 0.196365
H9    H     H_    0.474754 0.112925 0.251036 0.195545
H10   H     H_    0.384182 0.063588 0.579730 0.166376
H11   H     H_    0.453037 0.992677 0.640166 0.168998
H12   H     H_    0.230762 0.979505 0.862948 0.167442
H13   H     H_    0.373023 0.379207 0.638809 0.181963
O1    O     O_R   0.091590 0.143330 0.551700 -0.613835
O2    O     O_R   0.551760 0.960180 0.908450 -0.592119
O3    O     O_R   0.356660 0.948290 0.908410 -0.625630
O4    O     O_R   0.460090 0.051750 0.908420 -0.623503
O5    O     O_R   0.448250 0.039900 0.091630 -0.618230
O6    O     O_R   0.551680 0.143360 0.091630 -0.622018
O7    O     O_R   0.539910 0.948330 0.091670 -0.625068
O8    O     O_R   0.643340 0.051790 0.091670 -0.602164
O9    O     O_R   0.448280 0.591700 0.540000 -0.637450
O10   O     O_R   0.551730 0.591680 0.643420 -0.579585
O11   O     O_R   0.356670 0.408480 0.448390 -0.586627
O12   O     O_R   0.091620 0.039900 0.448280 -0.618975
O13   O     O_R   0.460120 0.408460 0.551810 -0.620896
O14   O     O_R   0.448270 0.408490 0.356760 -0.569946
O15   O     O_R   0.551720 0.408480 0.460170 -0.607292
O16   O     O_R   0.539880 0.591710 0.448370 -0.605049
O17   O     O_R   0.643330 0.591700 0.551790 -0.625853
O18   O     O_R   0.091610 0.051730 0.643330 -0.605332
O19   O     O_R   0.091640 0.948310 0.539920 -0.628021
O20   O     O_R   0.908380 0.960100 0.551720 -0.568503
O21   O     O_R   0.908410 0.856670 0.448300 -0.620408
O22   O     O_R   0.908360 0.051690 0.460080 -0.578017
O23   O     O_R   0.908390 0.948270 0.356670 -0.593027
O24   O     O_R   0.448330 0.856720 0.908450 -0.630804
Zn1   Zn    Zn3+2 0.999980 0.069060 0.569050 1.078736
Zn2   Zn    Zn3+2 0.000020 0.930940 0.430950 1.030140
Zn3   Zn    Zn3+2 0.430940 0.930960 0.000040 0.990164
Zn4   Zn    Zn3+2 0.569060 0.069120 0.000040 1.021864
Zn5   Zn    Zn3+2 0.430920 0.500100 0.431040 1.067024
Zn6   Zn    Zn3+2 0.569080 0.500080 0.569140 1.048403
N1    N     N_3   0.098492 0.981316 0.753753 -0.410967
H14   H     H_    0.045377 0.922155 0.698137 0.173347
H15   H     H_    0.100507 0.976198 0.808158 0.199961
F1    F     F_    0.721409 0.845297 0.246034 -0.630371
F2    F     F_    0.906746 0.154514 0.377888 -0.650150
N2    N     N_3   0.752727 0.591459 0.466095 -0.433424
H16   H     H_    0.763897 0.584715 0.521209 0.208994
H17   H     H_    0.691148 0.539050 0.413312 0.218578
F3    F     F_    0.747101 0.901035 0.529751 -0.631662
F4    F     F_    0.660302 0.895160 0.891360 -0.606690
N3    N     N_3   0.258861 0.089397 0.595925 -0.463195
H18   H     H_    0.308965 0.154166 0.627023 0.184331
H19   H     H_    0.240469 0.060444 0.529501 0.213130
F5    F     F_    0.659768 0.769290 0.764497 -0.610914
F6    F     F_    0.524733 0.401772 0.247519 -0.648522
F7    F     F_    0.472653 0.223927 0.377368 -0.635028
N4    N     N_3   0.417400 0.924837 0.732329 -0.452589
H20   H     H_    0.483083 0.967051 0.781730 0.227943
H21   H     H_    0.380803 0.887919 0.751351 0.165997
N5    N     N_3   0.100598 0.100697 0.333311 -0.409556
H22   H     H_    0.107263 0.099889 0.279851 0.257138
H23   H     H_    0.045166 0.106221 0.326515 0.204928
F8    F     F_    0.236995 0.232748 0.340204 -0.652966

loop_
_geom_bond_atom_site_label_1
_geom_bond_atom_site_label_2
_ccdc_geom_bond_type
C8    C9    A    
N2    H16   S    
C1    O12   A    
O9    Zn5   S    
C28   O4    A    
O8    Zn4   S    
C20   H4    S    
N4    H21   S    
C35   O16   A    
C8    F8    S    
C7    C8    A    
O1    Zn1   S    
C22   C35   S    
C51   N4    S    
N3    H19   S    
C36   C37   A    
C28   O3    A    
O4    Zn4   S    
O21   Zn2   S    
C5    C6    A    
O7    Zn3   S    
N3    H18   S    
C16   C30   S    
N5    H22   S    
C12   O19   A    
C18   C19   A    
C23   C26   S    
C7    N5    S    
C3    C12   S    
C9    C32   S    
O11   Zn5   S    
C4    N1    S    
C6    C28   S    
C16   C17   A    
N5    H23   S    
C23   O21   A    
N1    H15   S    
O17   Zn6   S    
C43   F6    S    
C9    C10   A    
C17   H3    S    
C37   F5    S    
C11   H1    S    
C21   N2    S    
N2    H17   S    
C40   H7    S    
C21   C22   A    
C50   H11   S    
C36   C41   A    
C18   F2    S    
N4    H20   S    
C35   O17   A    
C44   C46   A    
C50   C51   A    
C2    C45   A    
C29   C48   S    
O10   Zn6   S    
C51   C52   A    
C15   H2    S    
C14   F1    S    
C24   C25   A    
O14   Zn5   S    
C42   H8    S    
C39   C40   A    
C30   O8    A    
C33   O14   A    
C31   O9    A    
C42   C48   A    
C25   C26   A    
C39   H6    S    
C5    H12   S    
O15   Zn6   S    
C1    O1    A    
C43   C44   A    
C47   H9    S    
C37   C38   A    
C27   C41   S    
C31   O10   A    
C47   C48   A    
O23   Zn2   S    
C45   C49   A    
O13   Zn6   S    
N1    H14   S    
C17   C18   A    
C25   F3    S    
C34   O23   A    
O24   Zn3   S    
C2    C52   A    
C40   C41   A    
O19   Zn2   S    
C22   C24   A    
C1    C13   S    
C42   C43   A    
C3    C4    A    
C45   N3    S    
C29   O5    A    
C24   H5    S    
C10   H13   S    
O18   Zn1   S    
C46   C47   A    
O12   Zn2   S    
C49   H10   S    
C36   F4    S    
C33   C44   S    
C14   C19   A    
O5    Zn3   S    
C4    C5    A    
C19   C34   S    
C32   O11   A    
C30   O7    A    
O20   Zn1   S    
C33   O15   A    
O6    Zn4   S    
C31   C38   S    
C2    C3    A    
O16   Zn5   S    
C11   C13   A    
C38   C39   A    
C20   C26   A    
O3    Zn3   S    
C27   O24   A    
C34   O22   A    
C27   O2    A    
C10   C11   A    
C32   O13   A    
C7    C13   A    
C20   C21   A    
C12   O18   A    
C49   C50   A    
C23   O20   A    
O22   Zn1   S    
O2    Zn4   S    
C14   C15   A    
C6    C52   A    
C46   F7    S    
C15   C16   A    
C29   O6    A    
