data_mof_unit_58646.cif
_audit_creation_date              2013-03-05T15:51:07-0500
_audit_creation_method            fapswitch 2.2
_symmetry_space_group_name_H-M    P1
_symmetry_Int_Tables_number       1
_space_group_crystal_system       triclinic
_cell_length_a                    10.457304
_cell_length_b                    12.202813
_cell_length_c                    12.738833
_cell_angle_alpha                 95.086504
_cell_angle_beta                  92.594615
_cell_angle_gamma                 87.632212
_cell_volume                      1616.38527835

loop_
_atom_site_label
_atom_site_type_symbol
_atom_site_description
_atom_site_fract_x
_atom_site_fract_y
_atom_site_fract_z
_atom_type_partial_charge
O1    O     O_R   0.506270 0.421700 0.658830 -0.645865
O2    O     O_R   0.493730 0.578300 0.341170 -0.645884
O3    O     O_R   0.491200 0.609310 0.646410 -0.541820
O4    O     O_R   0.508800 0.390690 0.353590 -0.541768
C1    C     C_R   0.498016 0.522972 0.699977 0.859336
C2    C     C_R   0.501979 0.477027 0.300023 0.859436
O5    O     O_R   0.693580 0.406210 0.506230 -0.623592
O6    O     O_R   0.306420 0.593790 0.493770 -0.623579
O7    O     O_R   0.678510 0.593830 0.493810 -0.562380
O8    O     O_R   0.321490 0.406170 0.506190 -0.562344
C3    C     C_R   0.741956 0.501108 0.500028 0.863325
C4    C     C_R   0.258044 0.498892 0.499973 0.863429
Zn1   Zn    Zn3+2 0.510060 0.374730 0.508290 1.021915
Zn2   Zn    Zn3+2 0.489940 0.625270 0.491710 1.021931
C5    C     C_3   0.963554 0.463066 0.589921 -0.188188
C6    C     C_3   0.036446 0.536934 0.410080 -0.188175
C7    C     C_3   0.044736 0.564785 0.583268 -0.173325
C8    C     C_3   0.955264 0.435215 0.416733 -0.173325
H1    H     H_    0.086220 0.617048 0.651119 0.155118
H2    H     H_    0.913780 0.382952 0.348882 0.155094
H3    H     H_    0.928783 0.433510 0.663121 0.151039
H4    H     H_    0.071218 0.566490 0.336880 0.151046
C9    C     C_3   0.122781 0.497362 0.500127 0.007793
C10   C     C_3   0.877219 0.502638 0.499874 0.007812
C11   C     C_3   0.044335 0.395576 0.506783 -0.084105
C12   C     C_3   0.955665 0.604424 0.493218 -0.084093
H5    H     H_    0.084679 0.310570 0.512245 0.185686
H6    H     H_    0.915322 0.689430 0.487755 0.185722
C13   C     C_R   0.508180 0.462156 0.188221 -0.040590
C14   C     C_R   0.491800 0.537836 0.811778 -0.040569
C15   C     C_R   0.380364 0.609756 0.965174 -0.156041
C16   C     C_R   0.619597 0.390221 0.034821 -0.155961
C17   C     C_R   0.399371 0.610096 0.858372 -0.113599
C18   C     C_R   0.600592 0.389882 0.141624 -0.113658
C19   C     C_R   0.567141 0.466744 0.870379 -0.256519
C20   C     C_R   0.432836 0.533247 0.129621 -0.256582
C21   C     C_R   0.547288 0.464096 0.976179 0.168933
C22   C     C_R   0.452680 0.535887 0.023819 0.168877
H7    H     H_    0.361916 0.589091 0.167502 0.151601
H8    H     H_    0.638067 0.410905 0.832501 0.151584
H9    H     H_    0.661484 0.337314 0.188534 0.179799
H10   H     H_    0.338471 0.662657 0.811460 0.179838
H11   H     H_    0.307695 0.664860 0.001207 0.167989
H12   H     H_    0.692260 0.335112 0.998788 0.167945
N1    N     N_R   0.523490 0.207800 0.519350 -0.172117
N2    N     N_R   0.476510 0.792200 0.480650 -0.172092
C23   C     C_R   0.496845 0.933289 0.362992 0.298640
C24   C     C_R   0.503009 0.066718 0.636995 0.298649
C25   C     C_R   0.469569 0.825332 0.381447 -0.151591
C26   C     C_R   0.530357 0.174668 0.618554 -0.151532
C27   C     C_R   0.509876 0.868243 0.564872 0.529486
C28   C     C_R   0.490099 0.131768 0.435122 0.529157
C29   C     C_R   0.501360 0.983444 0.551451 -0.222845
C30   C     C_R   0.498595 0.016564 0.448535 -0.222847
H13   H     H_    0.540111 0.234927 0.685166 0.199665
H14   H     H_    0.459783 0.765080 0.314829 0.199514
S1    S     S_3+6 0.400019 0.171450 0.319978 0.086647
O9    O     O_2   0.490586 0.196314 0.237860 -0.253641
O10   O     O_2   0.317743 0.079144 0.274718 -0.269533
O11   O     O_3   0.298733 0.279515 0.344107 -0.547772
H15   H     H_    0.263556 0.297524 0.273895 0.366213
S2    S     S_3+6 0.599942 0.828581 0.680029 0.086666
O12   O     O_2   0.682063 0.920951 0.725388 -0.269657
O13   O     O_2   0.509390 0.803551 0.762094 -0.253644
O14   O     O_3   0.701360 0.720619 0.655837 -0.547896
H16   H     H_    0.736415 0.702468 0.726013 0.366255
N3    N     N_R   0.540027 0.952744 0.260970 0.261941
O15   O     O_R   0.642939 0.007793 0.254433 -0.330885
O16   O     O_R   0.492668 0.898674 0.176335 -0.320385
N4    N     N_R   0.459568 0.047276 0.738948 0.262049
O17   O     O_R   0.357027 0.991717 0.745310 -0.330792
O18   O     O_R   0.506112 0.101859 0.823590 -0.320937

loop_
_geom_bond_atom_site_label_1
_geom_bond_atom_site_label_2
_geom_bond_distance
_ccdc_geom_bond_type
Zn2   N2    2.052917 S    
C29   C30   1.404481 A    
O5    C3    1.292839 A    
C8    C11   1.543340 S    
C13   C20   1.391299 A    
C7    C9    1.527426 S    
C15   H11   1.083952 S    
C14   C19   1.391301 A    
C27   S2    1.799014 S    
C17   H10   1.083443 S    
C19   C21   1.376305 A    
C21   C22   1.415288 A    
C10   C12   1.527106 S    
S1    O10   1.503816 D    
C3    C10   1.415470 S    
O4    Zn1   1.996808 S    
S2    O13   1.500993 D    
C6    H4    1.110405 S    
C15   C17   1.384241 A    
N4    O17   1.301432 A    
S2    O14   1.672590 S    
C24   C26   1.401543 A    
O2    C2    1.299948 A    
C18   H9    1.083442 S    
C23   N3    1.437376 S    
C28   C30   1.429786 A    
C6    C12   1.543493 S    
C24   C29   1.422613 A    
N3    O15   1.301583 A    
O4    C2    1.302905 A    
S1    O11   1.672573 S    
N1    C28   1.396535 A    
C13   C18   1.397414 A    
O11   H15   0.990955 S    
N3    O16   1.302124 A    
C16   C18   1.384240 A    
O7    Zn2   1.992728 S    
S2    O12   1.503810 D    
C4    C9    1.415469 S    
C5    H3    1.110404 S    
O6    C4    1.292837 A    
C16   H12   1.083952 S    
C16   C21   1.398023 A    
O7    C3    1.294525 A    
O3    Zn2   1.996810 S    
O8    C4    1.294526 A    
C23   C30   1.422621 A    
C5    C10   1.527266 S    
C23   C25   1.401479 A    
C6    C9    1.527264 S    
C8    C10   1.527428 S    
O1    Zn1   1.953916 S    
C7    C12   1.543340 S    
O1    C1    1.299940 A    
C1    C14   1.423775 S    
C5    C7    1.543001 S    
O6    Zn2   1.974478 S    
C14   C17   1.397415 A    
C20   H7    1.086087 S    
N2    C25   1.358535 A    
C24   N4    1.437494 S    
O3    C1    1.302913 A    
O8    Zn1   1.992728 S    
C11   H5    1.110322 S    
C25   H14   1.076544 S    
C12   H6    1.110322 S    
C26   H13   1.076519 S    
C15   C22   1.398022 A    
C20   C22   1.376305 A    
C19   H8    1.086087 S    
Zn1   N1    2.052917 S    
S1    O9    1.501014 D    
N1    C26   1.358544 A    
N2    C27   1.396511 A    
C7    H1    1.110480 S    
C8    H2    1.110481 S    
C9    C11   1.527106 S    
O2    Zn2   1.953913 S    
C5    C11   1.543493 S    
C28   S1    1.799033 S    
O5    Zn1   1.974476 S    
C2    C13   1.423767 S    
C6    C8    1.543001 S    
O14   H16   0.990615 S    
N4    O18   1.301941 A    
C27   C29   1.429769 A    
