data_mof_unit_45544.cif
_audit_creation_date              2012-10-26T18:52:39-0400
_audit_creation_method            fapswitch 2.2
_symmetry_space_group_name_H-M    P1
_symmetry_Int_Tables_number       1
_space_group_crystal_system       triclinic
_cell_length_a                    10.764346
_cell_length_b                    14.713779
_cell_length_c                    14.677763
_cell_angle_alpha                 64.874837
_cell_angle_beta                  103.910105
_cell_angle_gamma                 103.316173
_cell_volume                      2021.16953856

loop_
_atom_site_label
_atom_site_type_symbol
_atom_type_description
_atom_site_fract_x
_atom_site_fract_y
_atom_site_fract_z
_atom_type_partial_charge
C1    C     C_R   0.477932 0.119759 0.311913 0.539797
C2    C     C_R   0.455461 0.359578 0.074311 0.012242
C3    C     C_R   0.437696 0.322134 0.996081 0.010125
C4    C     C_R   0.260093 0.000415 0.499065 0.548211
C5    C     C_R   0.469788 0.465852 0.049522 0.010872
C6    C     C_R   0.454419 0.533512 0.945747 0.005651
C7    C     C_R   0.402310 0.492331 0.870179 -0.043082
C8    C     C_R   0.403966 0.389349 0.893307 -0.033565
C9    C     C_R   0.503251 0.506819 0.125597 -0.131687
C10   C     C_R   0.517846 0.610674 0.101107 -0.012560
C11   C     C_R   0.511491 0.678588 0.998803 0.038530
C12   C     C_3   0.878065 0.001341 0.497086 -0.005659
C13   C     C_R   0.488603 0.639949 0.921634 0.027021
C14   C     C_R   0.532972 0.784562 0.971707 -0.111562
C15   C     C_R   0.536511 0.851135 0.870631 -0.103671
C16   C     C_R   0.521953 0.880321 0.688030 0.574108
C17   C     C_R   0.510073 0.708642 0.823456 -0.091295
C18   C     C_R   0.715556 0.287589 0.668218 -0.134297
C19   C     C_R   0.682760 0.205038 0.639925 0.146421
C20   C     C_R   0.517497 0.284824 0.508709 0.035986
C21   C     C_R   0.545908 0.371130 0.535096 0.012449
C22   C     C_R   0.647821 0.370228 0.616737 0.038193
C23   C     C_3   0.955198 0.977185 0.608054 -0.132912
C24   C     C_R   0.477475 0.457284 0.484853 0.043224
C25   C     C_R   0.514563 0.540846 0.516975 0.040755
C26   C     C_R   0.616298 0.534543 0.599483 -0.125341
C27   C     C_R   0.681232 0.451063 0.647965 -0.107626
C28   C     C_R   0.739500 0.001788 0.496854 0.549453
C29   C     C_R   0.373012 0.462647 0.404277 -0.118402
C30   C     C_R   0.307051 0.546122 0.356716 -0.099387
C31   C     C_R   0.343387 0.628362 0.386170 0.058300
C32   C     C_R   0.448078 0.627723 0.465966 0.026374
C33   C     C_R   0.276214 0.712028 0.335594 -0.136770
C34   C     C_3   0.940101 0.107211 0.423676 -0.128869
C35   C     C_R   0.313349 0.794972 0.363520 0.055777
C36   C     C_R   0.481791 0.715278 0.490076 0.063774
C37   C     C_3   0.034815 0.914544 0.466983 -0.234152
C38   C     C_3   0.891170 0.917927 0.460822 -0.124971
C39   C     C_3   0.101896 0.981424 0.608305 -0.127849
C40   C     C_3   0.081844 0.102843 0.422077 -0.255040
C41   C     C_3   0.122345 0.999170 0.499881 -0.003429
C42   C     C_1   0.935763 0.192295 0.450941 0.199584
C43   C     C_1   0.360439 0.354053 0.810574 0.217134
C44   C     C_1   0.550178 0.645589 0.183659 0.182187
C45   C     C_R   0.464481 0.187395 0.203404 -0.017820
C46   C     C_1   0.453818 0.174415 0.954931 0.207955
C47   C     C_1   0.330099 0.550899 0.772687 0.195299
C48   C     C_1   0.751239 0.119652 0.698729 0.264731
C49   C     C_1   0.821058 0.933986 0.356315 0.201397
C50   C     C_1   0.158666 0.891885 0.688709 0.211750
C51   C     C_1   0.896039 0.880755 0.682171 0.212933
C52   C     C_R   0.525934 0.813166 0.796048 0.025398
C53   C     C_R   0.447901 0.217638 0.025505 -0.015301
C54   C     C_R   0.461411 0.152238 0.128409 -0.133240
C55   C     C_R   0.459394 0.289387 0.175932 -0.128871
Cu1   Cu    Cu3+1 0.465900 0.918260 0.475680 0.972195
Cu2   Cu    Cu3+1 0.534100 0.081740 0.524320 0.978030
H1    H     H_    0.156031 0.047908 0.625761 0.130272
H2    H     H_    0.441037 0.279036 0.448041 0.112599
H3    H     H_    0.339207 0.403013 0.376202 0.087463
H4    H     H_    0.195702 0.713463 0.274493 0.105298
H5    H     H_    0.848214 0.842119 0.511898 0.132388
H6    H     H_    0.149426 0.165859 0.438619 0.136661
H7    H     H_    0.091145 0.113645 0.344039 0.112904
H8    H     H_    0.884893 0.124993 0.345117 0.121880
H9    H     H_    0.058798 0.838671 0.522949 0.152146
H10   H     H_    0.454992 0.311522 0.235959 0.116457
H11   H     H_    0.521905 0.460376 0.205802 0.109993
H12   H     H_    0.948354 0.037123 0.632900 0.151803
H13   H     H_    0.261672 0.859618 0.324365 0.123449
H14   H     H_    0.227209 0.546684 0.295320 0.117993
H15   H     H_    0.792941 0.286693 0.731472 0.107388
H16   H     H_    0.647908 0.592713 0.629595 0.100563
H17   H     H_    0.517719 0.681623 0.767465 0.133772
H18   H     H_    0.548962 0.932046 0.851207 0.154445
H19   H     H_    0.469982 0.073368 0.150185 0.147638
H20   H     H_    0.055085 0.923258 0.392424 0.135964
H21   H     H_    0.546694 0.816640 0.028148 0.142915
H22   H     H_    0.758690 0.449713 0.711162 0.123729
H23   H     H_    0.561566 0.722503 0.548033 0.116840
N1    N     N_R   0.585360 0.204570 0.560800 -0.244185
N2    N     N_1   0.202874 0.822064 0.751304 -0.268617
N3    N     N_1   0.849555 0.805744 0.739755 -0.290365
N4    N     N_R   0.414550 0.795430 0.439160 -0.229906
N5    N     N_1   0.932503 0.258880 0.472224 -0.277495
N6    N     N_1   0.325488 0.327145 0.743857 -0.259843
N7    N     N_1   0.576611 0.673675 0.249526 -0.285291
N8    N     N_1   0.459199 0.139006 0.899263 -0.280408
N9    N     N_1   0.272422 0.597156 0.695176 -0.269606
N10   N     N_1   0.806596 0.051288 0.747528 -0.310473
N11   N     N_1   0.766108 0.946497 0.274753 -0.280666
O1    O     O_R   0.455060 0.022100 0.338110 -0.504579
O2    O     O_R   0.512640 0.160150 0.379180 -0.513356
O3    O     O_R   0.288900 0.930980 0.479450 -0.506285
O4    O     O_R   0.346480 0.069030 0.520520 -0.515274
O5    O     O_R   0.487360 0.839850 0.620820 -0.498777
O6    O     O_R   0.544940 0.977900 0.661890 -0.495438
O7    O     O_R   0.653520 0.930970 0.479480 -0.505210
O8    O     O_R   0.711100 0.069020 0.520550 -0.487284

loop_
_geom_bond_atom_site_label_1
_geom_bond_atom_site_label_2
_ccdc_geom_bond_type
C15   H18   S    
C11   C13   A    
C23   H12   S    
C34   C42   S    
C8    C43   S    
Cu1   O7    S    
C30   H14   S    
C7    C8    A    
C39   C41   S    
C38   C49   S    
C53   C54   A    
Cu1   O3    S    
C12   C23   S    
C26   C27   A    
C29   C30   A    
C40   H6    S    
C12   C28   S    
C34   C40   S    
C32   C36   A    
C27   H22   S    
C2    C55   A    
C30   C31   A    
C11   C14   A    
C16   O6    A    
C4    C41   S    
Cu2   O8    S    
C26   H16   S    
Cu1   Cu2   S    
C17   C52   A    
C18   C19   A    
C24   C29   A    
C35   H13   S    
C31   C33   A    
C44   N7    T    
C9    C10   A    
C25   C32   A    
Cu2   O2    S    
C21   C22   A    
C37   C41   S    
C47   N9    T    
C49   N11   T    
C34   H8    S    
Cu1   N4    S    
C46   N8    T    
C18   H15   S    
C16   O5    A    
C10   C44   S    
C24   C25   A    
C3    C8    A    
C36   H23   S    
C19   C48   S    
C25   C26   A    
C39   H1    S    
C37   H20   S    
C7    C47   S    
C5    C9    A    
C37   C38   S    
C4    O4    A    
C23   C51   S    
C31   C32   A    
C29   H3    S    
Cu2   O6    S    
C37   H9    S    
C42   N5    T    
C15   C52   A    
C20   H2    S    
C54   H19   S    
C28   O8    A    
C1    O2    A    
C40   C41   S    
C45   C54   A    
C1    O1    A    
C22   C27   A    
C17   H17   S    
C4    O3    A    
C2    C5    A    
C12   C34   S    
C51   N3    T    
C50   N2    T    
C28   O7    A    
Cu1   O5    S    
C18   C22   A    
C43   N6    T    
C16   C52   S    
C55   H10   S    
C35   N4    A    
C6    C7    A    
C40   H7    S    
C13   C17   A    
C2    C3    A    
C9    H11   S    
C19   N1    A    
C6    C13   A    
C3    C53   A    
C1    C45   S    
C5    C6    A    
C36   N4    A    
C23   C39   S    
C46   C53   S    
C33   C35   A    
Cu2   N1    S    
C14   H21   S    
C12   C38   S    
C10   C11   A    
Cu1   O1    S    
C39   C50   S    
C20   C21   A    
C45   C55   A    
C33   H4    S    
Cu2   O4    S    
C21   C24   A    
C14   C15   A    
C48   N10   T    
C20   N1    A    
C38   H5    S    
