data_mof_unit_34581.cif
_audit_creation_date              2012-12-11T18:04:47-0500
_audit_creation_method            fapswitch 2.2
_symmetry_space_group_name_H-M    P1
_symmetry_Int_Tables_number       1
_space_group_crystal_system       triclinic
_cell_length_a                    8.256169
_cell_length_b                    12.70659
_cell_length_c                    22.817945
_cell_angle_alpha                 96.626339
_cell_angle_beta                  89.501909
_cell_angle_gamma                 98.222455
_cell_volume                      2353.27118582

loop_
_atom_site_label
_atom_site_type_symbol
_atom_type_description
_atom_site_fract_x
_atom_site_fract_y
_atom_site_fract_z
_atom_type_partial_charge
Ba1   Ba    Ba6+2 0.856210 0.551220 0.472190 1.695298
Ba2   Ba    Ba6+2 0.333620 0.448870 0.527810 1.741660
C1    C     C_3   0.596234 0.916930 0.300216 -0.316867
C2    C     C_R   0.111562 0.597826 0.940544 -0.031887
C3    C     C_R   0.063800 0.596670 0.880860 0.595418
C4    C     C_3   0.103132 0.790869 0.310230 0.262871
C5    C     C_R   0.930373 0.415677 0.879338 0.590607
C6    C     C_R   0.976836 0.414222 0.938935 -0.026803
C7    C     C_R   0.067688 0.505979 0.969670 -0.046883
C8    C     C_R   0.201773 0.689039 0.971945 -0.070370
C9    C     C_R   0.247245 0.689129 0.030892 -0.031237
C10   C     C_R   0.204667 0.597878 0.060550 -0.023488
C11   C     C_R   0.114739 0.505960 0.029794 -0.051725
C12   C     C_3   0.620023 0.822697 0.332995 0.304007
C13   C     C_R   0.934934 0.322871 0.968547 -0.072540
C14   C     C_R   0.982066 0.322670 0.027369 -0.061164
C15   C     C_R   0.072062 0.414004 0.058863 -0.023917
C16   C     C_3   0.050691 0.827872 0.252630 0.635365
C17   C     C_R   0.120765 0.415082 0.118540 0.600580
C18   C     C_R   0.249115 0.597292 0.120350 0.676064
C19   C     C_2   0.766213 0.486145 0.771763 -0.121105
C20   C     C_3   0.718600 0.492431 0.707817 -0.134745
C21   C     C_1   0.007417 0.527165 0.686326 -0.002373
C22   C     C_2   0.052760 0.530864 0.742520 -0.176490
C23   C     C_3   0.473624 0.293492 0.348384 0.272818
C24   C     C_2   0.926256 0.506516 0.788968 0.211180
C25   C     C_R   0.413438 0.551572 0.231300 -0.093085
C26   C     C_R   0.455698 0.560910 0.291250 -0.021034
C27   C     C_R   0.186537 0.475732 0.314378 0.025953
C28   C     C_3   0.222274 0.775247 0.593829 0.241330
C29   C     C_R   0.140333 0.468544 0.254217 -0.055157
C30   C     C_R   0.253028 0.508497 0.211659 0.220928
C31   C     C_2   0.862565 0.479066 0.667886 0.341806
C32   C     C_R   0.765899 0.177817 0.516656 -0.208034
C33   C     C_R   0.436338 0.809187 0.472862 -0.301533
C34   C     C_3   0.447332 0.261816 0.282444 -0.322629
C35   C     C_R   0.410509 0.987671 0.451962 -0.098967
C36   C     C_R   0.347858 0.879828 0.449511 -0.001712
C37   C     C_R   0.581496 0.846487 0.504109 0.065670
C38   C     C_R   0.646312 0.957447 0.508568 -0.023574
C39   C     C_R   0.559561 0.028244 0.481204 -0.034921
C40   C     C_3   0.239426 0.895721 0.607070 -0.311321
C41   C     C_R   0.620815 0.138712 0.486267 0.073241
C42   C     C_R   0.856435 0.109363 0.540380 -0.010799
C43   C     C_R   0.793933 0.000671 0.539268 -0.017864
C44   C     C_3   0.969310 0.219264 0.401130 0.275194
C45   C     C_3   0.955243 0.198608 0.681534 0.264869
C46   C     C_3   0.979365 0.100534 0.387702 -0.315173
C47   C     C_3   0.731165 0.710457 0.650068 0.308031
C48   C     C_3   0.785892 0.761771 0.711664 -0.370955
C49   C     C_3   0.907003 0.146718 0.737072 -0.351004
C50   C     C_3   0.433948 0.193249 0.690695 0.688373
C51   C     C_3   0.385603 0.122559 0.739337 -0.336474
C52   C     C_R   0.341606 0.525694 0.332282 -0.311581
Cl1   Cl    Cl    0.982742 0.716900 0.199441 -0.631689
Cl2   Cl    Cl    0.509390 0.116007 0.629530 -0.768315
Cl3   Cl    Cl    0.212853 0.912971 0.222728 -0.634370
F1    F     F_    0.848021 0.408003 0.618234 -0.718712
H1    H     H_    0.693254 0.852612 0.373718 0.042893
H2    H     H_    0.837250 0.680596 0.627178 0.006050
H3    H     H_    0.630600 0.643570 0.653206 0.014104
H4    H     H_    0.526418 0.972336 0.327855 0.099480
H5    H     H_    0.879750 0.832804 0.708464 0.140605
H6    H     H_    0.840240 0.704727 0.735992 0.066118
H7    H     H_    0.679648 0.787370 0.736779 0.127411
H8    H     H_    0.496389 0.784870 0.345310 -0.052031
H9    H     H_    0.527959 0.887293 0.258578 0.207891
H10   H     H_    0.359316 0.318226 0.367569 0.020076
H11   H     H_    0.574951 0.361443 0.355213 0.048865
H12   H     H_    0.324583 0.921564 0.644947 0.164016
H13   H     H_    0.344048 0.195352 0.274602 0.173086
H14   H     H_    0.418436 0.330744 0.260909 0.053802
H15   H     H_    0.559920 0.235393 0.262328 0.138884
H16   H     H_    0.715878 0.961011 0.289061 0.110653
H17   H     H_    0.022075 0.280329 0.694194 0.059482
H18   H     H_    0.840477 0.204896 0.657874 0.111213
H19   H     H_    0.016680 0.147575 0.765024 0.118322
H20   H     H_    0.817946 0.191116 0.762396 0.171039
H21   H     H_    0.848723 0.062670 0.725134 0.133293
H22   H     H_    0.322941 0.223885 0.677068 0.071964
H23   H     H_    0.288390 0.934002 0.568246 0.130946
H24   H     H_    0.491485 0.084969 0.752187 0.136927
H25   H     H_    0.283372 0.058921 0.724127 0.107082
H26   H     H_    0.019138 0.718368 0.318970 0.088969
H27   H     H_    0.344354 0.171565 0.778616 0.090221
H28   H     H_    0.947080 0.250493 0.048211 0.134992
H29   H     H_    0.865466 0.250827 0.946244 0.125390
H30   H     H_    0.316198 0.761334 0.053233 0.150506
H31   H     H_    0.505332 0.578857 0.200206 0.134729
H32   H     H_    0.237455 0.761064 0.951031 0.128736
H33   H     H_    0.180579 0.552044 0.755181 0.141323
H34   H     H_    0.118468 0.920746 0.618448 0.129472
H35   H     H_    0.670850 0.472024 0.804165 0.113292
H36   H     H_    0.017733 0.432177 0.240878 0.136591
H37   H     H_    0.376849 0.532502 0.378290 0.075581
H38   H     H_    0.229652 0.770756 0.306100 -0.003828
H39   H     H_    0.338328 0.039123 0.432557 0.098602
H40   H     H_    0.862605 0.951991 0.562284 0.100532
H41   H     H_    0.812741 0.262288 0.519715 0.104668
H42   H     H_    0.385068 0.725522 0.470615 0.065490
H43   H     H_    0.947525 0.874403 0.261028 0.077197
H44   H     H_    0.342827 0.751632 0.581825 0.011802
H45   H     H_    0.840406 0.230899 0.407426 -0.015324
H46   H     H_    0.134838 0.750147 0.556513 0.078007
H47   H     H_    0.042194 0.250067 0.441768 0.050210
H48   H     H_    0.915744 0.068673 0.345489 0.130341
H49   H     H_    0.921612 0.055849 0.423084 0.060337
H50   H     H_    0.109493 0.088220 0.383700 0.146120
N1    N     N_R   0.974083 0.506198 0.850687 -0.418870
N2    N     N_R   0.206289 0.506772 0.149423 -0.422563
O1    O     O_2   0.890290 0.440320 0.360790 -0.466859
O2    O     O_2   0.197411 0.115674 0.544873 -0.454287
O3    O     O_3   0.057266 0.136203 0.647522 -0.624383
O4    O     O_3   0.130840 0.441440 0.431840 -0.495011
O5    O     O_3   0.574800 0.630800 0.528960 -0.486867
O6    O     O_2   0.344900 0.234690 0.472540 -0.468693
O7    O     O_3   0.513086 0.205049 0.373604 -0.652976
O8    O     O_2   0.375308 0.424013 0.706809 -0.535069
O9    O     O_3   0.558702 0.275077 0.712023 -0.617182
O10   O     O_2   0.100487 0.676874 0.856028 -0.590813
O11   O     O_2   0.851975 0.335842 0.852855 -0.606599
O12   O     O_3   0.672516 0.787717 0.620757 -0.626892
O13   O     O_2   0.089051 0.333566 0.142543 -0.582288
O14   O     O_2   0.323754 0.678658 0.146804 -0.527586
O15   O     O_3   0.672400 0.637930 0.395560 -0.491160
O16   O     O_2   0.795276 0.562484 0.292400 -0.463966
O17   O     O_3   0.028631 0.269227 0.352473 -0.622250
O18   O     O_3   0.704184 0.751986 0.296484 -0.576703
O19   O     O_2   0.844800 0.765340 0.527490 -0.481305
O20   O     O_3   0.090520 0.693800 0.424220 -0.495495
O21   O     O_2   0.022031 0.885096 0.466879 -0.491739
O22   O     O_3   0.093263 0.873537 0.355886 -0.636862
O23   O     O_2   0.299410 0.559720 0.639240 -0.474452
O24   O     O_3   0.058870 0.558650 0.568170 -0.449724
O25   O     O_3   0.517310 0.362160 0.604450 -0.377651
O26   O     O_3   0.167150 0.731057 0.644856 -0.638616
O27   O     O_3   0.614910 0.369290 0.471050 -0.464327
O28   O     O_3   0.099190 0.306290 0.575790 -0.424231
P1    P     P_3+3 0.057140 0.408270 0.369700 0.997030
P2    P     P_3+3 0.667360 0.749400 0.544670 0.985920
P3    P     P_3+3 0.138851 0.832057 0.423588 0.928587
P4    P     P_3+3 0.132580 0.591820 0.630310 1.032206
P5    P     P_3+3 0.054286 0.166773 0.574922 1.001081
P6    P     P_3+3 0.657937 0.624139 0.318591 0.994856
P7    P     P_3+3 0.525557 0.236007 0.450256 0.955193
P8    P     P_3+3 0.539044 0.393044 0.681578 1.053653

loop_
_geom_bond_atom_site_label_1
_geom_bond_atom_site_label_2
_ccdc_geom_bond_type
C19   C24   D    
C31   F1    S    
C48   H6    S    
C35   H39   S    
O1    P1    D    
C5    C6    A    
C42   C43   A    
O9    P8    S    
C12   H1    S    
C40   H23   S    
C17   O13   D    
O23   P4    D    
Ba2   O24   S    
C47   H2    S    
C30   N2    S    
O2    P5    D    
O27   P7    S    
Ba1   O15   S    
C45   H18   S    
Ba1   O19   S    
O28   P5    S    
O6    P7    D    
C1    H4    S    
C46   H49   S    
C27   C52   A    
O15   P6    S    
C34   H14   S    
C13   C14   A    
C44   H47   S    
C40   H12   S    
C12   O18   S    
O7    P7    S    
Ba1   Ba2   S    
C1    H16   S    
O20   P3    S    
C7    C11   A    
O26   P4    S    
C4    H26   S    
Ba2   O6    S    
C46   H48   S    
C20   P8    S    
C6    C7    A    
C21   C31   D    
C21   C22   D    
C21   P4    S    
C26   P6    S    
O21   P3    D    
C34   H13   S    
C19   C20   S    
C14   H28   S    
C48   H5    S    
C39   C41   A    
C10   C18   A    
C23   H10   S    
O17   P1    S    
C5    O11   D    
C4    C16   S    
C38   C43   A    
C27   P1    S    
C44   C46   S    
Ba2   O23   S    
C47   H3    S    
C3    O10   D    
Ba2   O28   S    
C44   O17   S    
O8    P8    D    
C33   C36   A    
C32   C42   A    
C4    O22   S    
Ba1   O20   S    
C8    C9    A    
C37   C38   A    
C26   C52   A    
C14   C15   A    
C45   C49   S    
O3    P5    S    
C23   O7    S    
C51   H24   S    
C16   H43   S    
C33   C37   A    
C49   H19   S    
C35   C36   A    
C41   P7    S    
O24   P4    S    
Ba2   O5    S    
C16   Cl3   S    
C29   C30   A    
C9    H30   S    
O25   P8    S    
C28   H44   S    
C32   H41   S    
C12   H8    S    
O4    P1    S    
O5    P2    S    
O18   P6    S    
C24   N1    S    
C52   H37   S    
Ba1   P2    S    
C16   Cl1   S    
C18   N2    Am   
C38   C39   A    
C5    N1    Am   
C6    C13   A    
C4    H38   S    
Ba2   P4    S    
C36   P3    S    
C19   H35   S    
C23   H11   S    
Ba1   O4    S    
C2    C8    A    
C33   H42   S    
C22   H33   S    
Ba1   O27   S    
C50   C51   S    
C13   H29   S    
C17   N2    Am   
O22   P3    S    
C45   O3    S    
C20   C31   S    
C37   P2    S    
C25   C30   A    
Ba2   O27   S    
C1    H9    S    
C32   C41   A    
C22   C24   S    
C2    C3    A    
Ba1   P1    S    
C9    C10   A    
C1    C12   S    
C29   H36   S    
C44   H45   S    
C28   O26   S    
Ba2   O25   S    
C11   C15   A    
C51   H25   S    
C43   H40   S    
C49   H20   S    
O12   P2    S    
C27   C29   A    
Ba1   O1    S    
Ba2   O4    S    
C46   H50   S    
O19   P2    D    
C3    N1    Am   
C42   P5    S    
C47   O12   S    
O16   P6    D    
C15   C17   A    
C25   H31   S    
C40   H34   S    
C35   C39   A    
C48   H7    S    
C49   H21   S    
C18   O14   D    
C34   H15   S    
C23   C34   S    
C45   H17   S    
C50   O9    S    
C50   Cl2   S    
C10   C11   A    
C8    H32   S    
C47   C48   S    
C28   H46   S    
C25   C26   A    
C28   C40   S    
C51   H27   S    
Ba1   O5    S    
C2    C7    A    
C50   H22   S    
Ba1   O24   S    
