data_mof_unit_26026.cif
_audit_creation_date              2013-03-05T15:40:19-0500
_audit_creation_method            fapswitch 2.2
_symmetry_space_group_name_H-M    P1
_symmetry_Int_Tables_number       1
_space_group_crystal_system       triclinic
_cell_length_a                    7.829264
_cell_length_b                    8.643167
_cell_length_c                    12.801524
_cell_angle_alpha                 91.118243
_cell_angle_beta                  85.828886
_cell_angle_gamma                 92.67819
_cell_volume                      862.923310509

loop_
_atom_site_label
_atom_site_type_symbol
_atom_site_description
_atom_site_fract_x
_atom_site_fract_y
_atom_site_fract_z
_atom_type_partial_charge
O1    O     O_R   0.609680 0.261530 0.506880 -0.605879
O2    O     O_R   0.390320 0.738470 0.493120 -0.605874
O3    O     O_R   0.323330 0.288220 0.488910 -0.592341
O4    O     O_R   0.676670 0.711780 0.511090 -0.592347
C1    C     C_R   0.456368 0.206437 0.497909 0.870135
C2    C     C_R   0.543631 0.793563 0.502092 0.870045
O5    O     O_R   0.619510 0.488830 0.661140 -0.604300
O6    O     O_R   0.380490 0.511170 0.338860 -0.604309
O7    O     O_R   0.333160 0.515520 0.643180 -0.559781
O8    O     O_R   0.666840 0.484480 0.356820 -0.559814
C3    C     C_R   0.462508 0.504981 0.699676 0.864408
C4    C     C_R   0.537492 0.495036 0.300325 0.864454
Zn1   Zn    Zn3+2 0.691200 0.482180 0.511990 1.133228
Zn2   Zn    Zn3+2 0.308800 0.517820 0.488010 1.133231
N1    N     N_2   0.054030 0.541640 0.471970 0.051943
N2    N     N_2   0.945970 0.458360 0.528030 0.051944
C5    C     C_R   0.567541 0.490415 0.187930 -0.175624
C6    C     C_R   0.432452 0.509606 0.812072 -0.175578
C7    C     C_R   0.368142 0.663175 0.967636 -0.199705
C8    C     C_R   0.631853 0.336838 0.032368 -0.199694
C9    C     C_R   0.350701 0.635639 0.862042 0.300192
C10   C     C_R   0.649253 0.364367 0.137965 0.300383
C11   C     C_R   0.514216 0.402213 0.869599 -0.079136
C12   C     C_R   0.485803 0.597816 0.130401 -0.079210
C13   C     C_R   0.535738 0.433401 0.975472 0.057929
C14   C     C_R   0.464287 0.566628 0.024526 0.057946
H1    H     H_    0.305995 0.761605 0.004487 0.196153
H2    H     H_    0.693975 0.238387 0.995529 0.196113
C15   C     C_2   0.434346 0.046068 0.514180 -0.271038
C16   C     C_2   0.565654 0.953932 0.485823 -0.271076
C17   C     C_1   0.423950 0.738912 0.181267 0.266492
N3    N     N_1   0.375035 0.850926 0.221861 -0.118265
C18   C     C_1   0.576050 0.261109 0.818737 0.266446
N4    N     N_1   0.624942 0.149085 0.778147 -0.118393
N5    N     N_R   0.744980 0.259508 0.193298 0.194194
O9    O     O_R   0.728222 0.111649 0.172924 -0.403041
O10   O     O_R   0.879506 0.312215 0.238933 -0.325677
N6    N     N_R   0.254835 0.740450 0.806734 0.194194
O11   O     O_R   0.120433 0.687619 0.761006 -0.325623
O12   O     O_R   0.271267 0.888311 0.827237 -0.402881
N7    N     N_R   0.991348 0.664524 0.421436 0.301897
O13   O     O_R   0.023205 0.803297 0.457638 -0.383382
O14   O     O_R   0.963891 0.648310 0.322811 -0.344587
N8    N     N_R   0.008653 0.335469 0.578558 0.301894
O15   O     O_R   0.976775 0.196693 0.542352 -0.383394
O16   O     O_R   0.036140 0.351682 0.677184 -0.344528
C19   C     C_1   0.282627 0.998078 0.579729 0.413009
N9    N     N_1   0.161005 0.961753 0.631754 0.013003
C20   C     C_1   0.717374 0.001918 0.420274 0.413203
N10   N     N_1   0.838997 0.038234 0.368248 0.013039

loop_
_geom_bond_atom_site_label_1
_geom_bond_atom_site_label_2
_geom_bond_distance
_ccdc_geom_bond_type
C4    C5    1.441023 S    
N6    O12   1.301977 A    
O7    Zn2   2.009878 S    
C3    C6    1.441042 S    
C15   C16   1.354165 D    
C6    C9    1.408509 A    
N7    O14   1.299858 A    
N7    O13   1.297236 A    
N2    N8    1.381722 S    
C5    C10   1.408444 A    
O6    C4    1.303408 A    
C18   N4    1.157619 T    
C12   C17   1.457412 S    
O5    C3    1.303433 A    
C10   N5    1.431998 S    
O7    C3    1.294093 A    
O2    C2    1.282652 A    
O3    Zn2   1.993335 S    
O8    C4    1.294104 A    
C15   C19   1.452487 S    
O1    C1    1.282653 A    
N1    N2    1.274299 D    
N5    O10   1.300931 A    
C16   C20   1.452480 S    
C12   C14   1.397410 A    
C1    C15   1.406441 S    
C11   C13   1.397400 A    
N6    O11   1.301047 A    
O2    Zn2   1.983979 S    
C5    C12   1.401561 A    
O1    Zn1   1.983980 S    
C8    C13   1.398388 A    
C8    C10   1.383390 A    
C6    C11   1.401602 A    
C19   N9    1.156201 T    
O3    C1    1.298957 A    
O5    Zn1   1.951097 S    
C7    H1    1.082910 S    
N8    O15   1.297296 A    
N1    N7    1.381711 S    
O4    C2    1.298956 A    
C20   N10   1.156198 T    
Zn1   N2    2.040303 S    
O4    Zn1   1.993333 S    
C7    C14   1.398398 A    
Zn2   N1    2.040301 S    
O6    Zn2   1.951097 S    
N5    O9    1.301824 A    
C8    H2    1.082904 S    
C7    C9    1.383411 A    
C13   C14   1.419195 A    
C2    C16   1.406438 S    
C9    N6    1.432198 S    
C17   N3    1.157628 T    
N8    O16   1.299928 A    
C11   C18   1.457406 S    
O8    Zn1   2.009877 S    
