data_mof_unit_48975.cif
_audit_creation_date              2012-12-11T14:01:07-0500
_audit_creation_method            fapswitch 2.2
_symmetry_space_group_name_H-M    P1
_symmetry_Int_Tables_number       1
_space_group_crystal_system       triclinic
_cell_length_a                    18.924595
_cell_length_b                    10.97997
_cell_length_c                    18.760536
_cell_angle_alpha                 90.237966
_cell_angle_beta                  90.696659
_cell_angle_gamma                 90.344162
_cell_volume                      3897.886342

loop_
_atom_site_label
_atom_site_type_symbol
_atom_type_description
_atom_site_fract_x
_atom_site_fract_y
_atom_site_fract_z
_atom_type_partial_charge
C1    C     C_R   0.290236 0.998742 0.861126 0.550500
C2    C     C_R   0.727553 0.042439 0.146602 0.549169
C3    C     C_R   0.790235 0.498745 0.861127 0.550465
C4    C     C_R   0.227550 0.542433 0.146597 0.549194
C5    C     C_R   0.470985 0.048029 0.071620 0.082711
C6    C     C_R   0.520628 0.057618 0.930305 0.022616
C7    C     C_R   0.971124 0.548258 0.071666 0.082715
C8    C     C_R   0.020789 0.557426 0.930353 0.022527
C9    C     C_R   0.980614 0.659818 0.037190 -0.125455
C10   C     C_R   0.007875 0.664480 0.968828 -0.174676
C11   C     C_R   0.480295 0.159679 0.037181 -0.125513
C12   C     C_R   0.507545 0.164566 0.968817 -0.174602
C13   C     C_2   0.249946 0.581897 0.921145 -0.092785
C14   C     C_2   0.734947 0.643250 0.067229 -0.089698
C15   C     C_2   0.749942 0.081892 0.921143 -0.093033
C16   C     C_2   0.234961 0.143231 0.067233 -0.089782
C17   C     C_2   0.250274 0.587953 0.077751 -0.093256
C18   C     C_2   0.776630 0.527349 0.935246 -0.109279
C19   C     C_2   0.750278 0.087956 0.077756 -0.093274
C20   C     C_2   0.276631 0.027333 0.935245 -0.109142
C21   C     C_2   0.296201 0.524453 0.038412 -0.139982
C22   C     C_2   0.713724 0.507093 0.965542 -0.128639
C23   C     C_2   0.796191 0.024441 0.038408 -0.139535
C24   C     C_2   0.213719 0.007119 0.965531 -0.128933
C25   C     C_2   0.305126 0.549714 0.962467 -0.163843
C26   C     C_2   0.698924 0.549645 0.038052 -0.107682
C27   C     C_2   0.805120 0.049711 0.962465 -0.163738
C28   C     C_2   0.198912 0.049677 0.038040 -0.108273
C29   C     C_2   0.486205 0.829128 0.571763 -0.087211
C30   C     C_2   0.488210 0.839000 0.415432 -0.107279
C31   C     C_2   0.986206 0.329127 0.571764 -0.087217
C32   C     C_2   0.988210 0.339000 0.415432 -0.107261
C33   C     C_2   0.469244 0.740946 0.452140 -0.095202
C34   C     C_2   0.454472 0.747973 0.527600 -0.117767
C35   C     C_2   0.969244 0.240946 0.452140 -0.095199
C36   C     C_2   0.954472 0.247974 0.527600 -0.117779
C37   C     C_2   0.253441 0.611146 0.569743 -0.071727
C38   C     C_2   0.746895 0.610013 0.429814 -0.058827
C39   C     C_2   0.753440 0.111146 0.569743 -0.071732
C40   C     C_2   0.246895 0.110012 0.429814 -0.058835
C41   C     C_2   0.258929 0.606481 0.413196 0.351867
C42   C     C_2   0.741720 0.605321 0.586629 0.360226
C43   C     C_2   0.758929 0.106481 0.413196 0.351874
C44   C     C_2   0.241720 0.105321 0.586629 0.360218
C45   C     C_R   0.472835 0.822455 0.852734 0.590018
C46   C     C_R   0.528571 0.821049 0.146135 0.588682
C47   C     C_R   0.972798 0.322432 0.852772 0.590005
C48   C     C_R   0.028503 0.321070 0.146184 0.588524
C49   C     C_2   0.218934 0.681447 0.451033 -0.128896
C50   C     C_2   0.782588 0.679406 0.548882 -0.133199
C51   C     C_2   0.718934 0.181447 0.451033 -0.128895
C52   C     C_2   0.282588 0.179405 0.548882 -0.133196
C53   C     C_2   0.232555 0.701555 0.526114 -0.118358
C54   C     C_2   0.769141 0.699804 0.473938 -0.112624
C55   C     C_2   0.732555 0.201555 0.526114 -0.118355
C56   C     C_2   0.269141 0.199804 0.473938 -0.112616
C57   C     C_R   0.261209 0.636762 0.851672 0.572619
C58   C     C_R   0.726190 0.682071 0.140469 0.555847
C59   C     C_R   0.761208 0.136760 0.851672 0.572598
C60   C     C_R   0.226195 0.182054 0.140469 0.555813
C61   C     C_R   0.270585 0.048418 0.649691 0.574657
C62   C     C_R   0.729484 0.048608 0.350270 0.572129
C63   C     C_R   0.770585 0.548418 0.649691 0.574665
C64   C     C_R   0.229484 0.548608 0.350270 0.572125
C65   C     C_R   0.467852 0.823308 0.646225 0.570518
C66   C     C_R   0.527806 0.824487 0.350584 0.564041
C67   C     C_R   0.967853 0.323308 0.646225 0.570533
C68   C     C_R   0.027806 0.324487 0.350584 0.564040
C69   C     C_R   0.261038 0.640925 0.644246 0.540837
C70   C     C_R   0.739028 0.640470 0.355563 0.546023
C71   C     C_R   0.761038 0.140925 0.644246 0.540802
C72   C     C_R   0.239028 0.140470 0.355563 0.545978
C73   C     C_R   0.499945 0.825812 0.072790 -0.028118
C74   C     C_R   0.506505 0.831086 0.923738 -0.023034
C75   C     C_R   0.999660 0.325908 0.072923 -0.027875
C76   C     C_R   0.006308 0.330948 0.923867 -0.023288
C77   C     C_R   0.491806 0.938701 0.036658 -0.089493
C78   C     C_R   0.506748 0.942669 0.962575 -0.088519
C79   C     C_R   0.991764 0.438794 0.036742 -0.089467
C80   C     C_R   0.006729 0.442586 0.962658 -0.088497
C81   C     C_R   0.512864 0.720844 0.960449 0.375258
C82   C     C_R   0.505843 0.717423 0.032909 0.367846
C83   C     C_R   0.012295 0.220679 0.960656 0.374880
C84   C     C_R   0.005167 0.217412 0.033106 0.368134
Cr1   Cr    Cr6+3 0.230530 0.836340 0.748870 1.112782
Cr2   Cr    Cr6+3 0.769470 0.836340 0.251130 1.070328
Cr3   Cr    Cr6+3 0.730530 0.336340 0.748870 1.113030
Cr4   Cr    Cr6+3 0.269470 0.336340 0.251130 1.070224
Cr5   Cr    Cr6+3 0.387420 0.989430 0.750820 1.057964
Cr6   Cr    Cr6+3 0.612580 0.989430 0.249180 1.062212
Cr7   Cr    Cr6+3 0.887420 0.489430 0.750820 1.057934
Cr8   Cr    Cr6+3 0.112580 0.489430 0.249180 1.062232
Cr9   Cr    Cr6+3 0.385640 0.677860 0.749230 1.079816
Cr10  Cr    Cr6+3 0.614360 0.677860 0.250770 1.093180
Cr11  Cr    Cr6+3 0.885640 0.177860 0.749230 1.079878
Cr12  Cr    Cr6+3 0.114360 0.177860 0.250770 1.093134
H1    H     H_    0.170394 0.719223 0.429173 0.121615
H2    H     H_    0.831513 0.716875 0.570841 0.120527
H3    H     H_    0.670394 0.219223 0.429172 0.121611
H4    H     H_    0.331513 0.216875 0.570841 0.120532
H5    H     H_    0.218474 0.790595 0.547016 0.174192
H6    H     H_    0.784288 0.788697 0.453571 0.175199
H7    H     H_    0.718475 0.290596 0.547016 0.174190
H8    H     H_    0.284288 0.288697 0.453571 0.175206
H9    H     H_    0.267133 0.520907 0.550714 0.151005
H10   H     H_    0.732127 0.519951 0.448350 0.148343
H11   H     H_    0.767133 0.020907 0.550714 0.151005
H12   H     H_    0.232127 0.019950 0.448350 0.148345
H13   H     H_    0.966942 0.744464 0.063358 0.178304
H14   H     H_    0.018930 0.752919 0.946070 0.149716
H15   H     H_    0.466494 0.244233 0.063383 0.178020
H16   H     H_    0.518463 0.253100 0.946098 0.149690
H17   H     H_    0.326509 0.450206 0.061294 0.173774
H18   H     H_    0.671782 0.458953 0.936930 0.192079
H19   H     H_    0.826469 0.950167 0.061275 0.174080
H20   H     H_    0.171769 0.959021 0.936907 0.191728
H21   H     H_    0.358107 0.544053 0.941087 0.200006
H22   H     H_    0.657270 0.503829 0.067102 0.196347
H23   H     H_    0.858103 0.044062 0.941088 0.200647
H24   H     H_    0.157226 0.003914 0.067074 0.195839
H25   H     H_    0.221859 0.664549 0.054988 0.114003
H26   H     H_    0.820393 0.567719 0.965049 0.110146
H27   H     H_    0.721878 0.164567 0.055000 0.113961
H28   H     H_    0.320401 0.067665 0.965056 0.110143
H29   H     H_    0.196972 0.584404 0.942766 0.131544
H30   H     H_    0.773709 0.694126 0.037146 0.097992
H31   H     H_    0.696965 0.084389 0.942763 0.131608
H32   H     H_    0.273749 0.194072 0.037163 0.098048
H33   H     H_    0.469978 0.650608 0.428284 0.207471
H34   H     H_    0.420094 0.676954 0.548154 0.194433
H35   H     H_    0.969979 0.150608 0.428284 0.207479
H36   H     H_    0.920092 0.176957 0.548154 0.194431
H37   H     H_    0.483531 0.929883 0.437991 0.105135
H38   H     H_    0.520482 0.901491 0.552978 0.104015
H39   H     H_    0.983531 0.429883 0.437991 0.105140
H40   H     H_    0.020484 0.401489 0.552978 0.104018
O1    O     O_R   0.215090 0.709860 0.828130 -0.476801
O2    O     O_R   0.784910 0.709860 0.171870 -0.486640
O3    O     O_R   0.715090 0.209860 0.828130 -0.476674
O4    O     O_R   0.284910 0.209860 0.171870 -0.486675
O5    O     O_R   0.445660 0.919250 0.676780 -0.481184
O6    O     O_R   0.554340 0.919250 0.323220 -0.491652
O7    O     O_R   0.945660 0.419250 0.676780 -0.481142
O8    O     O_R   0.054340 0.419250 0.323220 -0.491663
O9    O     O_R   0.456260 0.718170 0.670000 -0.494911
O10   O     O_R   0.543740 0.718170 0.330000 -0.501447
O11   O     O_R   0.956260 0.218170 0.670000 -0.494961
O12   O     O_R   0.043740 0.218170 0.330000 -0.501405
O13   O     O_R   0.320940 0.626760 0.674370 -0.500513
O14   O     O_R   0.679060 0.626760 0.325630 -0.480865
O15   O     O_R   0.820940 0.126760 0.674370 -0.500528
O16   O     O_R   0.179060 0.126760 0.325630 -0.480840
O17   O     O_3   0.334530 0.834540 0.749640 -0.307947
O18   O     O_3   0.665470 0.834540 0.250360 -0.298302
O19   O     O_3   0.834530 0.334540 0.749640 -0.308009
O20   O     O_3   0.165470 0.334540 0.250360 -0.298236
O21   O     O_R   0.236990 0.958390 0.823710 -0.482272
O22   O     O_R   0.763010 0.958390 0.176290 -0.511076
O23   O     O_R   0.736990 0.458390 0.823710 -0.482103
O24   O     O_R   0.263010 0.458390 0.176290 -0.511140
O25   O     O_R   0.332380 0.074750 0.830850 -0.504506
O26   O     O_R   0.667620 0.074750 0.169150 -0.500120
O27   O     O_R   0.832380 0.574750 0.830850 -0.504482
O28   O     O_R   0.167620 0.574750 0.169150 -0.500077
O29   O     O_R   0.445800 0.917770 0.825070 -0.517719
O30   O     O_R   0.554200 0.917770 0.174930 -0.500696
O31   O     O_R   0.945800 0.417770 0.825070 -0.517665
O32   O     O_R   0.054200 0.417770 0.174930 -0.500751
O33   O     O_R   0.456410 0.716580 0.829970 -0.438005
O34   O     O_R   0.543590 0.716580 0.170030 -0.440419
O35   O     O_R   0.956410 0.216580 0.829970 -0.437808
O36   O     O_R   0.043590 0.216580 0.170030 -0.440555
O37   O     O_R   0.321080 0.625290 0.822650 -0.503034
O38   O     O_R   0.678920 0.625290 0.177350 -0.482628
O39   O     O_R   0.821080 0.125290 0.822650 -0.502954
O40   O     O_R   0.178920 0.125290 0.177350 -0.482819
O41   O     O_R   0.214930 0.711450 0.668160 -0.483541
O42   O     O_R   0.785070 0.711450 0.331840 -0.513158
O43   O     O_R   0.714930 0.211450 0.668160 -0.483535
O44   O     O_R   0.285070 0.211450 0.331840 -0.513164
O45   O     O_R   0.236850 0.959870 0.675420 -0.456761
O46   O     O_R   0.763150 0.959870 0.324580 -0.460023
O47   O     O_R   0.736850 0.459870 0.675420 -0.456732
O48   O     O_R   0.263150 0.459870 0.324580 -0.460028
O49   O     O_R   0.332230 0.076350 0.670880 -0.547229
O50   O     O_R   0.667770 0.076350 0.329120 -0.546800
O51   O     O_R   0.832230 0.576350 0.670880 -0.547249
O52   O     O_R   0.167770 0.576350 0.329120 -0.546786
F1    F     F_    0.522256 0.613206 0.925725 -0.588220
F2    F     F_    0.507263 0.605645 0.063933 -0.589688
F3    F     F_    0.021433 0.112872 0.926030 -0.588372
F4    F     F_    0.006139 0.105669 0.064210 -0.589401
F5    F     F_    0.323162 0.569121 0.438067 -0.670773
F6    F     F_    0.677069 0.568396 0.561745 -0.638223
F7    F     F_    0.823162 0.069121 0.438067 -0.670767
F8    F     F_    0.177069 0.068396 0.561745 -0.638236
C85   C     C_2   0.433250 0.048800 0.140631 0.596049
O53   O     O_2   0.395069 0.963243 0.156819 -0.517346
O54   O     O_R   0.440577 0.148646 0.186729 -0.686174
H41   H     H_    0.413236 0.137860 0.232440 0.351260
C86   C     C_2   0.556917 0.068795 0.860441 0.606815
O55   O     O_2   0.601309 0.994015 0.843672 -0.480577
O56   O     O_R   0.541430 0.163246 0.812986 -0.642589
H42   H     H_    0.498958 0.213061 0.827144 0.295833
C87   C     C_2   0.933369 0.549254 0.140666 0.596081
O57   O     O_2   0.895086 0.463849 0.156879 -0.517243
O58   O     O_R   0.940774 0.649148 0.186712 -0.686237
H43   H     H_    0.913407 0.638500 0.232416 0.351250
C88   C     C_2   0.057041 0.568387 0.860468 0.606753
O59   O     O_2   0.101396 0.493555 0.843742 -0.480621
O60   O     O_R   0.041538 0.662679 0.812940 -0.642536
H44   H     H_    0.999074 0.712502 0.827096 0.295844

loop_
_geom_bond_atom_site_label_1
_geom_bond_atom_site_label_2
_ccdc_geom_bond_type
C16   C28   D    
Cr3   O23   S    
O56   H42   S    
C38   C70   S    
Cr10  O10   S    
C37   C69   S    
C86   O55   D    
Cr1   O17   S    
Cr9   O13   S    
C35   C36   S    
C70   O14   A    
C7    C87   S    
C67   O7    A    
C2    O26   A    
C81   C82   A    
Cr12  O20   S    
C77   C78   A    
C31   C67   S    
Cr9   O33   S    
C50   C54   S    
C75   C79   A    
C21   C25   S    
Cr8   O8    S    
Cr6   O26   S    
Cr4   O20   S    
Cr7   O31   S    
C47   C76   S    
C5    C11   A    
C59   O39   A    
C36   H36   S    
C6    C12   A    
Cr5   O5    S    
C75   C84   A    
Cr4   O48   S    
C13   C57   S    
Cr12  O16   S    
C55   H7    S    
Cr2   O42   S    
C65   O5    A    
C3    C18   S    
C43   F7    S    
C16   C60   S    
C71   O43   A    
C85   O54   S    
Cr11  O39   S    
Cr4   O4    S    
C41   F5    S    
C69   O41   A    
C48   O36   A    
Cr5   O17   S    
C71   O15   A    
O60   H44   S    
C53   H5    S    
C72   O16   A    
C38   C54   D    
C76   C80   A    
C4    O28   A    
Cr9   O9    S    
C23   C27   S    
Cr6   O18   S    
C40   C72   S    
C9    C10   A    
C51   C55   S    
C68   O12   A    
C3    O27   A    
C40   H12   S    
C37   C53   D    
Cr8   O28   S    
Cr5   O25   S    
C29   H38   S    
C1    O25   A    
O54   H41   S    
C15   H31   S    
Cr6   O30   S    
C3    O23   A    
C86   O56   S    
C48   C75   S    
Cr7   O27   S    
C58   O38   A    
Cr1   O21   S    
Cr12  O12   S    
C76   C83   A    
C41   C49   D    
Cr9   O37   S    
Cr4   O44   S    
Cr7   O7    S    
C87   O58   S    
C51   H3    S    
C14   C58   S    
C39   C55   D    
C50   H2    S    
C63   O47   A    
C68   O8    A    
C44   F8    S    
C11   H15   S    
O58   H43   S    
Cr2   O46   S    
C32   C35   D    
C24   C28   S    
Cr11  O11   S    
C56   H8    S    
C6    C86   S    
C21   H17   S    
C28   H24   S    
C84   F4    S    
C70   O42   A    
C5    C85   S    
Cr6   O50   S    
C40   C56   D    
C37   H9    S    
C87   O57   D    
C49   H1    S    
C29   C34   D    
C52   H4    S    
C17   C21   D    
C46   O34   A    
C45   O33   A    
C45   C74   S    
C9    H13   S    
C38   H10   S    
C19   C23   D    
Cr12  O36   S    
Cr7   O19   S    
C62   O46   A    
C47   O31   A    
Cr8   O32   S    
C15   C27   D    
C83   C84   A    
C48   O32   A    
Cr1   O41   S    
C59   O3    A    
C42   C50   D    
Cr10  O18   S    
C30   H37   S    
C19   H27   S    
C64   O52   A    
C61   O49   A    
C88   O59   D    
C57   O1    A    
Cr8   O20   S    
C30   C66   S    
C14   C26   D    
C16   H32   S    
C81   F1    S    
Cr6   O6    S    
C60   O4    A    
C57   O37   A    
C4    C17   S    
C17   H25   S    
C18   H26   S    
C24   H20   S    
C63   O51   A    
C74   C78   A    
C60   O40   A    
C29   C65   S    
Cr11  O15   S    
C72   O44   A    
C74   C81   A    
C5    C77   A    
C8    C88   S    
Cr1   O1    S    
C73   C82   A    
C12   H16   S    
C66   O10   A    
C7    C79   A    
C33   H33   S    
C7    C9    A    
Cr7   O51   S    
C1    C20   S    
Cr1   O45   S    
C46   O30   A    
C30   C33   D    
C2    C19   S    
C18   C22   D    
Cr5   O49   S    
C54   H6    S    
C83   F3    S    
C26   H22   S    
C42   F6    S    
Cr3   O3    S    
C31   H40   S    
C13   C25   D    
C25   H21   S    
C44   C52   D    
Cr12  O40   S    
C32   H39   S    
C47   O35   A    
C11   C12   A    
Cr2   O22   S    
C66   O6    A    
Cr3   O19   S    
C27   H23   S    
C44   C61   S    
Cr10  O14   S    
C61   O45   A    
C14   H30   S    
C62   O50   A    
C69   O13   A    
C1    O21   A    
Cr2   O18   S    
C35   H35   S    
C13   H29   S    
Cr10  O34   S    
C32   C68   S    
Cr3   O47   S    
C58   O2    A    
C4    O24   A    
Cr11  O35   S    
C43   C51   D    
C49   C53   S    
C65   O9    A    
Cr9   O17   S    
C88   O60   S    
C23   H19   S    
C33   C34   S    
C10   H14   S    
Cr11  O19   S    
Cr4   O24   S    
C85   O53   D    
C39   H11   S    
C15   C59   S    
C20   H28   S    
C6    C78   A    
Cr2   O2    S    
Cr3   O43   S    
C79   C80   A    
C64   O48   A    
C22   H18   S    
C2    O22   A    
C34   H34   S    
C73   C77   A    
C8    C10   A    
C22   C26   S    
C67   O11   A    
Cr10  O38   S    
C8    C80   A    
C39   C71   S    
C31   C36   D    
C41   C64   S    
C45   O29   A    
C42   C63   S    
C20   C24   D    
C46   C73   S    
C82   F2    S    
Cr8   O52   S    
C52   C56   S    
C43   C62   S    
Cr5   O29   S    
