data_mof_unit_41251.cif
_audit_creation_date              2012-12-10T18:31:52-0500
_audit_creation_method            fapswitch 2.2
_symmetry_space_group_name_H-M    P1
_symmetry_Int_Tables_number       1
_space_group_crystal_system       triclinic
_cell_length_a                    10.716538
_cell_length_b                    14.928504
_cell_length_c                    15.439333
_cell_angle_alpha                 82.641687
_cell_angle_beta                  89.087008
_cell_angle_gamma                 103.290345
_cell_volume                      2381.42792421

loop_
_atom_site_label
_atom_site_type_symbol
_atom_type_description
_atom_site_fract_x
_atom_site_fract_y
_atom_site_fract_z
_atom_type_partial_charge
C1    C     C_R   0.480480 0.442023 0.662347 0.846928
C2    C     C_3   0.121286 0.502031 0.499374 0.038889
C3    C     C_3   0.098342 0.569570 0.417218 0.024259
C4    C     C_3   0.075256 0.533511 0.586532 -0.044858
C5    C     C_R   0.446559 0.408499 0.754711 -0.067311
C6    C     C_R   0.522718 0.594832 0.245489 -0.110465
C7    C     C_R   0.302301 0.306324 0.865897 -0.217480
C8    C     C_R   0.356031 0.325376 0.780866 -0.194267
C9    C     C_R   0.486368 0.469776 0.814843 -0.249907
C10   C     C_R   0.419181 0.459678 0.895142 0.076394
C11   C     C_R   0.331968 0.373114 0.924301 0.093059
C12   C     C_R   0.741646 0.500484 0.498333 0.868588
C13   C     C_R   0.442755 0.531560 0.948988 0.044477
C14   C     C_R   0.411144 0.505947 0.038996 -0.014781
C15   C     C_R   0.323070 0.420645 0.067578 -0.223553
C16   C     C_R   0.277579 0.355566 0.010592 0.141201
C17   C     C_R   0.495738 0.627648 0.917987 0.187541
C18   C     C_R   0.538347 0.689943 0.977268 -0.246556
C19   C     C_R   0.529371 0.660642 0.067131 0.105783
C20   C     C_R   0.466859 0.567200 0.098097 0.060981
C21   C     C_R   0.580851 0.722510 0.127065 0.227311
C22   C     C_R   0.575964 0.688607 0.216065 -0.209901
C23   C     C_R   0.518588 0.558148 0.337888 0.864568
C24   C     C_R   0.469183 0.535239 0.186952 -0.258488
C25   C     C_R   0.663988 0.838914 0.648664 0.070508
C26   C     C_R   0.647437 0.751916 0.620833 0.008088
C27   C     C_R   0.525217 0.796231 0.504439 -0.091174
C28   C     C_R   0.516345 0.878312 0.537224 -0.046810
C29   C     C_R   0.580922 0.896126 0.615925 0.063937
C30   C     C_R   0.451814 0.944697 0.493785 0.026469
C31   C     C_R   0.470507 0.032506 0.525530 0.002058
C32   C     C_R   0.515623 0.040581 0.609961 -0.231628
C33   C     C_R   0.559022 0.969612 0.658530 0.162699
C34   C     C_R   0.257632 0.499585 0.501968 0.861591
C35   C     C_R   0.370788 0.930274 0.420677 0.166324
C36   C     C_R   0.333687 0.005662 0.373910 -0.237218
C37   C     C_R   0.366513 0.093432 0.398868 0.134622
C38   C     C_R   0.434435 0.108171 0.475202 0.007795
C39   C     C_R   0.327429 0.166303 0.349228 -0.308051
C40   C     C_R   0.357787 0.253772 0.375130 0.022712
C41   C     C_R   0.465981 0.199579 0.496713 -0.064194
C42   C     C_3   0.897644 0.402816 0.489186 -0.450600
C43   C     C_3   0.038767 0.401921 0.495842 -0.433672
C44   C     C_3   0.952183 0.573925 0.414925 0.372966
C45   C     C_3   0.929773 0.527542 0.584485 -0.486046
C46   C     C_3   0.878337 0.502313 0.495237 0.117597
H1    H     H_    0.861341 0.376499 0.428166 0.193626
H2    H     H_    0.151993 0.638660 0.430687 0.108740
H3    H     H_    0.433709 0.462624 0.211503 0.161971
H4    H     H_    0.616280 0.734961 0.262316 0.157729
H5    H     H_    0.579596 0.761947 0.951782 0.167410
H6    H     H_    0.235063 0.240174 0.884022 0.129898
H7    H     H_    0.323998 0.276523 0.735107 0.151872
H8    H     H_    0.567390 0.527722 0.796424 0.168147
H9    H     H_    0.842168 0.352431 0.543647 0.184018
H10   H     H_    0.285138 0.406399 0.133961 0.159871
H11   H     H_    0.524695 0.218694 0.550518 0.122069
H12   H     H_    0.328010 0.310602 0.337290 0.119404
H13   H     H_    0.274297 0.995017 0.318084 0.151621
H14   H     H_    0.696830 0.701175 0.650860 0.131694
H15   H     H_    0.495688 0.780725 0.441408 0.170717
H16   H     H_    0.050706 0.355878 0.556356 0.169733
H17   H     H_    0.508605 0.099254 0.642349 0.144600
H18   H     H_    0.273671 0.155536 0.291126 0.141106
H19   H     H_    0.068607 0.368773 0.441502 0.213340
H20   H     H_    0.903497 0.591616 0.599827 0.187196
H21   H     H_    0.879755 0.472968 0.637879 0.153178
H22   H     H_    0.087485 0.479777 0.640937 0.166650
N1    N     N_R   0.573860 0.731700 0.552730 -0.116714
N2    N     N_R   0.426060 0.268290 0.447230 -0.099403
O1    O     O_R   0.462770 0.383110 0.605620 -0.618045
O2    O     O_R   0.510160 0.531900 0.639510 -0.621695
O3    O     O_R   0.661510 0.425600 0.483070 -0.623100
O4    O     O_R   0.708900 0.574390 0.516960 -0.627046
O5    O     O_R   0.489840 0.468100 0.360490 -0.619673
O6    O     O_R   0.537230 0.616890 0.394380 -0.626533
O7    O     O_R   0.291100 0.425610 0.483040 -0.624248
O8    O     O_R   0.338490 0.574400 0.516930 -0.622218
Zn1   Zn    Zn3+2 0.468350 0.400660 0.477370 0.926578
Zn2   Zn    Zn3+2 0.531650 0.599340 0.522630 0.913822
C47   C     C_3   0.147800 0.630412 0.610676 -0.374253
C48   C     C_3   0.225344 0.620650 0.691575 -0.868472
H23   H     H_    0.160363 0.589778 0.749882 0.252808
H24   H     H_    0.291819 0.575310 0.682602 0.282743
H25   H     H_    0.281329 0.690400 0.702528 0.254461
H26   H     H_    0.212397 0.672863 0.557313 0.220692
H27   H     H_    0.082272 0.674880 0.625130 0.198828
C49   C     C_3   0.944944 0.676235 0.421401 -0.942330
H28   H     H_    0.846685 0.687279 0.413758 0.274792
H29   H     H_    0.981199 0.699724 0.483418 0.225947
H30   H     H_    0.005052 0.723681 0.367352 0.228154
C50   C     C_3   0.176205 0.266267 0.041267 -0.400515
C51   C     C_3   0.114245 0.258014 0.132885 -0.903056
H31   H     H_    0.186474 0.255662 0.183308 0.248309
H32   H     H_    0.068709 0.316992 0.138134 0.264926
H33   H     H_    0.038615 0.192505 0.145618 0.253606
H34   H     H_    0.097208 0.260671 0.995011 0.204679
H35   H     H_    0.220096 0.205944 0.039108 0.203487
C52   C     C_3   0.495752 0.671281 0.824642 -0.957519
H36   H     H_    0.595074 0.688859 0.796089 0.233375
H37   H     H_    0.431623 0.625712 0.785476 0.266085
H38   H     H_    0.460194 0.735903 0.821271 0.247689
C53   C     C_3   0.642110 0.823801 0.098093 -0.966522
H39   H     H_    0.675575 0.861235 0.154242 0.243434
H40   H     H_    0.726569 0.830369 0.053116 0.242026
H41   H     H_    0.571353 0.858198 0.064358 0.243312
C54   C     C_3   0.566473 0.969912 0.756919 -0.448425
C55   C     C_3   0.436310 0.968391 0.800016 -0.862928
H42   H     H_    0.405821 0.033651 0.778719 0.254866
H43   H     H_    0.362333 0.908349 0.783512 0.261880
H44   H     H_    0.443453 0.961328 0.872151 0.246525
H45   H     H_    0.594415 0.907513 0.789607 0.210807
H46   H     H_    0.638291 0.032484 0.770612 0.203179
C56   C     C_3   0.778405 0.871442 0.703307 -0.458040
C57   C     C_3   0.904847 0.866356 0.658838 -0.861671
H47   H     H_    0.908550 0.793225 0.655116 0.243292
H48   H     H_    0.916462 0.905484 0.591832 0.265902
H49   H     H_    0.986440 0.897624 0.697226 0.250078
H50   H     H_    0.789464 0.945101 0.712937 0.218093
H51   H     H_    0.765651 0.828279 0.768405 0.203637
C58   C     C_3   0.303396 0.837563 0.394437 -0.442960
C59   C     C_3   0.358461 0.823026 0.306401 -0.863563
H52   H     H_    0.464960 0.839681 0.304052 0.256578
H53   H     H_    0.327545 0.868281 0.252241 0.254309
H54   H     H_    0.323095 0.750106 0.295039 0.244128
H55   H     H_    0.301150 0.778978 0.445833 0.189176
H56   H     H_    0.199896 0.836122 0.387460 0.202799
C60   C     C_3   0.887882 0.552104 0.327506 -0.837335
H57   H     H_    0.880176 0.480428 0.314352 0.222363
H58   H     H_    0.788119 0.561435 0.328720 0.216202
H59   H     H_    0.937871 0.600492 0.270465 0.238938
C61   C     C_3   0.168778 0.565558 0.328564 -0.375192
C62   C     C_3   0.148724 0.472392 0.293150 -0.867763
H60   H     H_    0.212889 0.430811 0.324680 0.256084
H61   H     H_    0.049050 0.430955 0.301588 0.256432
H62   H     H_    0.175042 0.485666 0.222131 0.243565
H63   H     H_    0.146125 0.617907 0.277375 0.203834
H64   H     H_    0.273567 0.589540 0.335571 0.191825

loop_
_geom_bond_atom_site_label_1
_geom_bond_atom_site_label_2
_ccdc_geom_bond_type
C51   H31   S    
C12   O4    A    
C54   H45   S    
C35   C36   A    
C33   C54   S    
C23   O6    A    
C36   H13   S    
C60   H57   S    
O1    Zn1   S    
C56   C57   S    
C50   H35   S    
C7    C8    A    
C45   C46   S    
C7    C11   A    
C39   H18   S    
C1    O1    A    
C40   N2    A    
C30   C35   A    
C1    C5    S    
C28   C29   A    
C19   C21   A    
C7    H6    S    
C58   H56   S    
C34   O7    A    
C30   C31   A    
O8    Zn2   S    
C61   H64   S    
C57   H47   S    
C6    C22   A    
C29   C33   A    
C3    H2    S    
C55   H42   S    
C18   C19   A    
C42   C46   S    
C20   C24   A    
C54   H46   S    
C27   H15   S    
C4    C47   S    
C19   C20   A    
C61   C62   S    
C57   H48   S    
C45   H21   S    
C62   H62   S    
C54   C55   S    
C9    C10   A    
C47   H26   S    
C27   N1    A    
C22   H4    S    
C2    C34   S    
C51   H32   S    
O4    Zn2   S    
C21   C22   A    
C12   O3    A    
C44   C46   S    
C18   H5    S    
C47   C48   S    
C4    C45   S    
O7    Zn1   S    
C25   C29   A    
C3    C44   S    
C1    O2    A    
C40   H12   S    
C3    C61   S    
C14   C20   A    
C35   C58   S    
C38   C41   A    
C12   C46   S    
C39   C40   A    
C4    H22   S    
C25   C26   A    
O2    Zn2   S    
C2    C4    S    
C5    C9    A    
C37   C38   A    
C42   H9    S    
C11   C16   A    
C52   H36   S    
C49   H30   S    
C2    C43   S    
C43   H19   S    
C57   H49   S    
C6    C24   A    
C17   C18   A    
O3    Zn1   S    
C53   H40   S    
C17   C52   S    
C58   C59   S    
C47   H27   S    
C52   H37   S    
C49   H29   S    
C16   C50   S    
C51   H33   S    
C48   H24   S    
C62   H60   S    
C42   C43   S    
C59   H53   S    
C60   H59   S    
C45   H20   S    
C24   H3    S    
C44   C60   S    
N2    Zn1   S    
C31   C32   A    
O6    Zn2   S    
C32   H17   S    
C23   O5    A    
C10   C13   A    
C60   H58   S    
C8    H7    S    
C5    C8    A    
C55   H44   S    
C48   H25   S    
C31   C38   A    
C13   C17   A    
C32   C33   A    
C59   H54   S    
C28   C30   A    
C2    C3    S    
C61   H63   S    
C41   H11   S    
C58   H55   S    
C37   C39   A    
C44   C49   S    
C25   C56   S    
C34   O8    A    
C56   H50   S    
C26   H14   S    
C6    C23   S    
C50   C51   S    
C55   H43   S    
C53   H41   S    
C42   H1    S    
C15   H10   S    
C10   C11   A    
C21   C53   S    
C52   H38   S    
C50   H34   S    
C49   H28   S    
C36   C37   A    
C48   H23   S    
C53   H39   S    
C62   H61   S    
C26   N1    A    
C14   C15   A    
N1    Zn2   S    
C9    H8    S    
C59   H52   S    
C13   C14   A    
O5    Zn1   S    
C56   H51   S    
C15   C16   A    
C43   H16   S    
C41   N2    A    
C27   C28   A    
