data_mof_unit_34082.cif
_audit_creation_date              2012-12-10T20:11:20-0500
_audit_creation_method            fapswitch 2.2
_symmetry_space_group_name_H-M    P1
_symmetry_Int_Tables_number       1
_space_group_crystal_system       triclinic
_cell_length_a                    15.886615
_cell_length_b                    15.886626
_cell_length_c                    51.617047
_cell_angle_alpha                 89.99986
_cell_angle_beta                  89.999979
_cell_angle_gamma                 89.999742
_cell_volume                      13027.353485

loop_
_atom_site_label
_atom_site_type_symbol
_atom_type_description
_atom_site_fract_x
_atom_site_fract_y
_atom_site_fract_z
_atom_type_partial_charge
C1    C     C_R   0.072349 0.527082 0.636977 0.214819
C2    C     C_R   0.572384 0.973007 0.863025 0.214829
C3    C     C_1   0.276607 0.223393 0.250000 -0.022838
C4    C     C_1   0.223397 0.723396 0.750000 -0.019535
C5    C     C_1   0.776607 0.276607 0.250000 -0.022844
C6    C     C_1   0.276604 0.223396 0.750000 -0.019520
C7    C     C_1   0.723393 0.776607 0.250000 -0.022839
C8    C     C_1   0.776603 0.723396 0.250000 -0.019503
C9    C     C_1   0.223393 0.276607 0.750000 -0.022862
C10   C     C_1   0.723397 0.223396 0.250000 -0.019508
C11   C     C_1   0.276607 0.776607 0.750000 -0.022875
C12   C     C_1   0.223397 0.276604 0.250000 -0.019502
C13   C     C_R   0.972885 0.572343 0.136978 0.214824
C14   C     C_1   0.776607 0.723392 0.750000 -0.022866
C15   C     C_1   0.276603 0.776603 0.250000 -0.019511
C16   C     C_1   0.723393 0.223393 0.750000 -0.022878
C17   C     C_R   0.498651 0.075037 0.945106 0.432739
C18   C     C_R   0.498772 0.924961 0.054897 0.432811
C19   C     C_R   0.924970 0.498653 0.945105 0.432810
C20   C     C_R   0.075041 0.498766 0.054897 0.432787
C21   C     C_R   0.501350 0.924959 0.945106 0.432762
C22   C     C_R   0.501238 0.075042 0.054897 0.432788
C23   C     C_R   0.075048 0.501346 0.945106 0.432777
C24   C     C_R   0.027016 0.572378 0.863024 0.214831
C25   C     C_R   0.924960 0.501237 0.054896 0.432775
C26   C     C_R   0.998728 0.575030 0.445105 0.432787
C27   C     C_R   0.998709 0.424936 0.554895 0.432799
C28   C     C_R   0.424937 0.998733 0.445104 0.432796
C29   C     C_R   0.575022 0.998704 0.554894 0.432785
C30   C     C_R   0.001259 0.424949 0.445104 0.432769
C31   C     C_R   0.001278 0.575016 0.554896 0.432811
C32   C     C_R   0.575018 0.001256 0.445104 0.432811
C33   C     C_R   0.424942 0.001282 0.554895 0.432730
C34   C     C_R   0.501539 0.922902 0.972509 0.021102
C35   C     C_R   0.427666 0.972871 0.136978 0.214810
C36   C     C_R   0.501420 0.077099 0.027494 0.021114
C37   C     C_R   0.077103 0.501534 0.972509 0.021117
C38   C     C_R   0.922904 0.501419 0.027493 0.021108
C39   C     C_R   0.498466 0.077095 0.972508 0.021111
C40   C     C_R   0.498589 0.922902 0.027494 0.021110
C41   C     C_R   0.922911 0.498466 0.972508 0.021114
C42   C     C_R   0.077101 0.498584 0.027494 0.021110
C43   C     C_R   0.001450 0.422887 0.472507 0.021108
C44   C     C_R   0.001471 0.577077 0.527493 0.021113
C45   C     C_R   0.577076 0.001448 0.472506 0.021107
C46   C     C_R   0.427610 0.026987 0.863025 0.214841
C47   C     C_R   0.422882 0.001473 0.527492 0.021109
C48   C     C_R   0.998533 0.577084 0.472508 0.021101
C49   C     C_R   0.998513 0.422881 0.527492 0.021109
C50   C     C_R   0.422880 0.998537 0.472507 0.021111
C51   C     C_R   0.577078 0.998509 0.527492 0.021096
C52   C     C_3   0.186950 0.499323 0.583246 0.016984
C53   C     C_3   0.269850 0.537305 0.573744 -0.261093
C54   C     C_3   0.323411 0.471807 0.559756 -0.491205
C55   C     C_3   0.186934 0.500585 0.416768 0.017024
C56   C     C_3   0.269853 0.462597 0.426253 -0.261099
C57   C     C_R   0.027113 0.427658 0.136978 0.214821
C58   C     C_3   0.323322 0.528023 0.440305 -0.491188
C59   C     C_3   0.500640 0.186920 0.583218 0.017070
C60   C     C_3   0.462720 0.269898 0.573756 -0.261167
C61   C     C_3   0.528103 0.323196 0.559622 -0.491082
C62   C     C_3   0.499395 0.186951 0.416753 0.016982
C63   C     C_3   0.537418 0.269826 0.426259 -0.261063
C64   C     C_3   0.471929 0.323444 0.440229 -0.491257
C65   C     C_3   0.813043 0.500597 0.583247 0.017000
C66   C     C_3   0.730152 0.462598 0.573744 -0.261118
C67   C     C_3   0.676591 0.528079 0.559749 -0.491192
C68   C     C_R   0.972978 0.427624 0.863024 0.214809
C69   C     C_3   0.813048 0.499413 0.416759 0.017004
C70   C     C_3   0.730159 0.537428 0.426257 -0.261074
C71   C     C_3   0.676602 0.471971 0.440264 -0.491221
C72   C     C_3   0.499339 0.813049 0.583239 0.017011
C73   C     C_3   0.537324 0.730142 0.573744 -0.261093
C74   C     C_3   0.471858 0.676620 0.559728 -0.491189
C75   C     C_3   0.500549 0.813047 0.416756 0.016997
C76   C     C_3   0.462530 0.730163 0.426256 -0.261086
C77   C     C_3   0.527994 0.676593 0.440256 -0.491222
C78   C     C_3   0.686950 0.999449 0.083244 0.016997
C79   C     C_R   0.500003 0.999999 0.986262 -0.150642
C80   C     C_3   0.769836 0.037468 0.073746 -0.261080
C81   C     C_3   0.823410 0.972002 0.059749 -0.491232
C82   C     C_3   0.686934 0.000840 0.916769 0.017059
C83   C     C_3   0.769912 0.962965 0.926248 -0.261176
C84   C     C_3   0.823325 0.028473 0.940284 -0.491093
C85   C     C_3   0.000552 0.686943 0.083239 0.017014
C86   C     C_3   0.962538 0.769839 0.073746 -0.261085
C87   C     C_3   0.027988 0.823384 0.059732 -0.491220
C88   C     C_3   0.999175 0.686939 0.916762 0.017050
C89   C     C_3   0.037051 0.769913 0.926243 -0.261188
C90   C     C_R   0.500004 0.000000 0.013740 -0.150621
C91   C     C_3   0.971522 0.823360 0.940257 -0.491100
C92   C     C_3   0.313051 0.000556 0.083249 0.016974
C93   C     C_3   0.230192 0.962516 0.073738 -0.261058
C94   C     C_3   0.176546 0.028011 0.059780 -0.491264
C95   C     C_3   0.313074 0.999143 0.916776 0.017080
C96   C     C_3   0.230054 0.036980 0.926237 -0.261205
C97   C     C_3   0.176754 0.971512 0.940331 -0.491042
C98   C     C_3   0.999437 0.313057 0.083241 0.017000
C99   C     C_3   0.037453 0.230168 0.073744 -0.261069
C100  C     C_3   0.971992 0.176605 0.059741 -0.491229
C101  C     C_R   0.000006 0.500000 0.986262 -0.150626
C102  C     C_3   0.000850 0.313047 0.916754 0.016995
C103  C     C_3   0.962949 0.230109 0.926254 -0.261149
C104  C     C_3   0.028501 0.176603 0.940238 -0.491125
C105  C     C_3   0.215249 0.519748 0.648755 0.039438
C106  C     C_3   0.210358 0.424064 0.653830 -0.281474
C107  C     C_3   0.296712 0.383068 0.650736 -0.485426
C108  C     C_3   0.215244 0.480296 0.351247 0.039443
C109  C     C_3   0.210312 0.575984 0.346183 -0.281460
C110  C     C_3   0.296651 0.617010 0.349276 -0.485469
C111  C     C_3   0.480453 0.215252 0.648750 0.039433
C112  C     C_R   0.072348 0.472902 0.363023 0.214832
C113  C     C_R   0.000004 0.500001 0.013740 -0.150627
C114  C     C_3   0.576138 0.210238 0.653813 -0.281489
C115  C     C_3   0.617235 0.296545 0.650722 -0.485405
C116  C     C_3   0.519811 0.215242 0.351245 0.039446
C117  C     C_3   0.424123 0.210375 0.346174 -0.281448
C118  C     C_3   0.383150 0.296738 0.349270 -0.485486
C119  C     C_3   0.784752 0.480211 0.648757 0.039434
C120  C     C_3   0.789638 0.575899 0.653825 -0.281448
C121  C     C_3   0.703282 0.616888 0.650729 -0.485477
C122  C     C_3   0.784753 0.519758 0.351246 0.039448
C123  C     C_3   0.789654 0.424070 0.346179 -0.281446
C124  C     C_R   0.999991 0.499984 0.486261 -0.150634
C125  C     C_3   0.703303 0.383070 0.349274 -0.485494
C126  C     C_3   0.519672 0.784747 0.648754 0.039448
C127  C     C_3   0.423987 0.789684 0.653823 -0.281466
C128  C     C_3   0.382955 0.703347 0.650733 -0.485451
C129  C     C_3   0.480185 0.784755 0.351244 0.039441
C130  C     C_3   0.575876 0.789631 0.346178 -0.281440
C131  C     C_3   0.616856 0.703271 0.349276 -0.485499
C132  C     C_3   0.715241 0.019814 0.148756 0.039444
C133  C     C_3   0.710366 0.924124 0.153822 -0.281444
C134  C     C_3   0.796726 0.883145 0.150725 -0.485496
C135  C     C_R   0.999992 0.499980 0.513739 -0.150625
C136  C     C_3   0.715258 0.980642 0.851245 0.039411
C137  C     C_3   0.710147 0.076319 0.846178 -0.281554
C138  C     C_3   0.796422 0.117493 0.849248 -0.485280
C139  C     C_3   0.980238 0.715240 0.148755 0.039445
C140  C     C_3   0.075929 0.710333 0.153818 -0.281445
C141  C     C_3   0.116932 0.796681 0.150722 -0.485500
C142  C     C_3   0.019420 0.715253 0.851241 0.039406
C143  C     C_3   0.923742 0.710170 0.846172 -0.281564
C144  C     C_3   0.882587 0.796454 0.849247 -0.485250
C145  C     C_3   0.284763 0.980147 0.148756 0.039446
C146  C     C_R   0.499979 0.999992 0.486260 -0.150627
C147  C     C_3   0.289616 0.075837 0.153824 -0.281433
C148  C     C_3   0.203248 0.116798 0.150724 -0.485519
C149  C     C_3   0.284737 0.019337 0.851245 0.039416
C150  C     C_3   0.289851 0.923667 0.846169 -0.281564
C151  C     C_3   0.203588 0.882475 0.849253 -0.485241
C152  C     C_3   0.019780 0.284757 0.148754 0.039447
C153  C     C_3   0.924090 0.289648 0.153820 -0.281445
C154  C     C_3   0.883099 0.203293 0.150725 -0.485496
C155  C     C_3   0.980457 0.284736 0.851243 0.039419
C156  C     C_3   0.076133 0.289732 0.846164 -0.281527
C157  C     C_R   0.499980 0.999991 0.513738 -0.150642
C158  C     C_3   0.117221 0.203419 0.849249 -0.485310
C159  C     C_R   0.503453 0.845985 0.986312 0.235465
C160  C     C_R   0.503208 0.154019 0.013690 0.235454
C161  C     C_R   0.154020 0.503445 0.986312 0.235460
C162  C     C_R   0.845984 0.503210 0.013689 0.235458
C163  C     C_R   0.496553 0.154013 0.986311 0.235470
C164  C     C_R   0.472937 0.072364 0.636976 0.214848
C165  C     C_R   0.496800 0.845981 0.013692 0.235451
C166  C     C_R   0.845992 0.496555 0.986310 0.235457
C167  C     C_R   0.154023 0.496792 0.013692 0.235458
C168  C     C_R   0.003292 0.345965 0.486309 0.235465
C169  C     C_R   0.003334 0.653998 0.513691 0.235457
C170  C     C_R   0.653998 0.003288 0.486309 0.235454
C171  C     C_R   0.345962 0.003339 0.513690 0.235473
C172  C     C_R   0.996689 0.654003 0.486312 0.235460
C173  C     C_R   0.996648 0.345963 0.513688 0.235457
C174  C     C_R   0.345960 0.996695 0.486310 0.235457
C175  C     C_R   0.527106 0.072339 0.363023 0.214816
C176  C     C_R   0.653998 0.996642 0.513688 0.235462
C177  C     C_R   0.072749 0.526402 0.609539 0.262270
C178  C     C_R   0.072747 0.473561 0.390460 0.262269
C179  C     C_R   0.473586 0.072763 0.609539 0.262273
C180  C     C_R   0.526429 0.072738 0.390460 0.262267
C181  C     C_R   0.927250 0.473545 0.609541 0.262260
C182  C     C_R   0.927253 0.526436 0.390460 0.262267
C183  C     C_R   0.526399 0.927244 0.609539 0.262270
C184  C     C_R   0.473531 0.927255 0.390459 0.262265
C185  C     C_R   0.572742 0.026461 0.109541 0.262269
C186  C     C_R   0.927652 0.472881 0.636979 0.214809
C187  C     C_R   0.572781 0.973666 0.890462 0.262269
C188  C     C_R   0.973546 0.572742 0.109541 0.262269
C189  C     C_R   0.026356 0.572777 0.890461 0.262267
C190  C     C_R   0.427268 0.973541 0.109541 0.262270
C191  C     C_R   0.427210 0.026326 0.890462 0.262266
C192  C     C_R   0.026449 0.427260 0.109540 0.262271
C193  C     C_R   0.973657 0.427223 0.890462 0.262261
C194  C     C_R   0.999998 0.499972 0.595884 0.137311
C195  C     C_R   0.999998 0.499995 0.404116 0.137298
C196  C     C_R   0.499986 0.000000 0.595883 0.137289
C197  C     C_R   0.927653 0.527103 0.363023 0.214818
C198  C     C_R   0.499977 0.999997 0.404115 0.137308
C199  C     C_R   0.500005 0.000002 0.095885 0.137315
C200  C     C_R   0.499997 0.999996 0.904118 0.137301
C201  C     C_R   0.999997 0.500001 0.095885 0.137306
C202  C     C_R   0.000011 0.499999 0.904117 0.137315
C203  C     C_R   0.999999 0.500000 0.820326 0.565854
C204  C     C_R   1.000000 0.500000 0.179674 0.565975
C205  C     C_R   0.500000 1.000000 0.820327 0.565806
C206  C     C_R   0.500000 1.000000 0.179674 0.566000
C207  C     C_R   0.499999 1.000000 0.320326 0.565989
C208  C     C_R   0.527069 0.927644 0.636976 0.214818
C209  C     C_R   0.500001 0.000000 0.679674 0.565917
C210  C     C_R   0.000000 0.500001 0.320326 0.565959
C211  C     C_R   0.000000 0.499998 0.679674 0.565978
C212  C     C_R   0.839702 0.660298 0.750000 0.514878
C213  C     C_R   0.160299 0.339701 0.250000 0.524182
C214  C     C_R   0.339702 0.839702 0.750000 0.514868
C215  C     C_R   0.660299 0.160299 0.250000 0.524186
C216  C     C_R   0.160298 0.339702 0.750000 0.514883
C217  C     C_R   0.839701 0.660299 0.250000 0.524183
C218  C     C_R   0.660298 0.160298 0.750000 0.514864
C219  C     C_R   0.472870 0.927657 0.363021 0.214815
C220  C     C_R   0.339701 0.839700 0.250000 0.524185
C221  C     C_R   0.839702 0.339702 0.250000 0.514902
C222  C     C_R   0.160299 0.660299 0.750000 0.524162
C223  C     C_R   0.339702 0.160298 0.250000 0.514908
C224  C     C_R   0.660299 0.839701 0.750000 0.524157
C225  C     C_R   0.160298 0.660298 0.250000 0.514900
C226  C     C_R   0.839701 0.339701 0.750000 0.524162
C227  C     C_R   0.660298 0.839702 0.250000 0.514907
C228  C     C_R   0.339701 0.160299 0.750000 0.524158
C229  C     C_R   0.000000 0.499988 0.650680 -0.044197
C230  C     C_R   0.572341 0.027126 0.136979 0.214820
C231  C     C_R   0.000000 0.500001 0.349320 -0.044210
C232  C     C_R   0.500000 0.000002 0.650679 -0.044228
C233  C     C_R   0.499992 0.999998 0.349320 -0.044196
C234  C     C_R   0.500002 1.000000 0.150680 -0.044194
C235  C     C_R   0.499998 0.999999 0.849322 -0.044257
C236  C     C_R   0.999999 0.500000 0.150680 -0.044206
C237  C     C_R   0.999999 0.500000 0.849321 -0.044232
C238  C     C_1   0.776603 0.276603 0.750000 -0.019540
C239  C     C_1   0.223393 0.723393 0.250000 -0.022846
C240  C     C_1   0.723396 0.776603 0.750000 -0.019527
H1    H     H_    0.543739 0.730642 0.983887 0.342700
H2    H     H_    0.043536 0.769371 0.516120 0.342714
H3    H     H_    0.946615 0.789187 0.957398 0.160603
H4    H     H_    0.346985 0.023562 0.065947 0.157804
H5    H     H_    0.299133 0.055251 0.096055 0.121834
H6    H     H_    0.243858 0.909770 0.060221 0.192893
H7    H     H_    0.193922 0.937012 0.090363 0.150266
H8    H     H_    0.160952 0.080550 0.073122 0.148653
H9    H     H_    0.117064 0.998590 0.053062 0.140519
H10   H     H_    0.210680 0.053252 0.042679 0.160614
H11   H     H_    0.347029 0.976393 0.934106 0.157889
H12   H     H_    0.299373 0.944304 0.904005 0.121848
H13   H     H_    0.769382 0.043455 0.483882 0.342718
H14   H     H_    0.243498 0.090056 0.939652 0.193025
H15   H     H_    0.193616 0.061983 0.909575 0.149833
H16   H     H_    0.161531 0.918538 0.927110 0.148900
H17   H     H_    0.117068 0.000739 0.946957 0.140438
H18   H     H_    0.210983 0.946917 0.957503 0.160564
H19   H     H_    0.976494 0.346989 0.065931 0.157827
H20   H     H_    0.944704 0.299177 0.096036 0.121826
H21   H     H_    0.090299 0.243793 0.060259 0.192977
H22   H     H_    0.062815 0.193854 0.090380 0.150137
H23   H     H_    0.919324 0.161095 0.073045 0.148711
H24   H     H_    0.230590 0.043543 0.516118 0.342714
H25   H     H_    0.001383 0.117076 0.053049 0.140521
H26   H     H_    0.946937 0.210764 0.042618 0.160592
H27   H     H_    0.023774 0.347008 0.934061 0.157842
H28   H     H_    0.055582 0.299238 0.903952 0.121865
H29   H     H_    0.910123 0.243667 0.939752 0.192856
H30   H     H_    0.937586 0.193779 0.909622 0.150127
H31   H     H_    0.081157 0.161164 0.926921 0.148757
H32   H     H_    0.999190 0.117034 0.946929 0.140453
H33   H     H_    0.053556 0.210771 0.957359 0.160625
H34   H     H_    0.258250 0.546796 0.663543 0.149006
H35   H     H_    0.956516 0.769386 0.483886 0.342716
H36   H     H_    0.245899 0.533631 0.630101 0.157712
H37   H     H_    0.187602 0.412311 0.673824 0.202122
H38   H     H_    0.166411 0.393262 0.640051 0.153377
H39   H     H_    0.320580 0.392252 0.630698 0.137599
H40   H     H_    0.291691 0.314457 0.654550 0.183159
H41   H     H_    0.342223 0.410662 0.664694 0.141474
H42   H     H_    0.258258 0.453280 0.336457 0.149015
H43   H     H_    0.245895 0.466410 0.369901 0.157699
H44   H     H_    0.187538 0.587752 0.326192 0.202101
H45   H     H_    0.166365 0.606752 0.359969 0.153390
H46   H     H_    0.956444 0.230591 0.516114 0.342713
H47   H     H_    0.320538 0.607808 0.369312 0.137569
H48   H     H_    0.291598 0.685623 0.345472 0.183114
H49   H     H_    0.342164 0.589453 0.335312 0.141474
H50   H     H_    0.453475 0.258293 0.663539 0.149014
H51   H     H_    0.466596 0.245907 0.630096 0.157691
H52   H     H_    0.587893 0.187441 0.673802 0.202079
H53   H     H_    0.606865 0.166275 0.640022 0.153398
H54   H     H_    0.608048 0.320449 0.630688 0.137608
H55   H     H_    0.685846 0.291434 0.654525 0.183200
H56   H     H_    0.589720 0.342074 0.664690 0.141446
H57   H     H_    0.230576 0.956526 0.483883 0.342718
H58   H     H_    0.546863 0.258233 0.336455 0.149012
H59   H     H_    0.533710 0.245891 0.369898 0.157709
H60   H     H_    0.412355 0.187623 0.326180 0.202124
H61   H     H_    0.393315 0.166436 0.359954 0.153379
H62   H     H_    0.392351 0.320606 0.369307 0.137560
H63   H     H_    0.314536 0.291732 0.345460 0.183084
H64   H     H_    0.410746 0.342242 0.335310 0.141488
H65   H     H_    0.741754 0.453171 0.663547 0.149009
H66   H     H_    0.754100 0.466312 0.630104 0.157715
H67   H     H_    0.812395 0.587669 0.673818 0.202121
H68   H     H_    0.769369 0.956434 0.516115 0.342712
H69   H     H_    0.833581 0.606693 0.640043 0.153381
H70   H     H_    0.679412 0.607686 0.630691 0.137571
H71   H     H_    0.708302 0.685502 0.654536 0.183101
H72   H     H_    0.657774 0.589304 0.664689 0.141478
H73   H     H_    0.741752 0.546790 0.336455 0.149016
H74   H     H_    0.754101 0.533655 0.369898 0.157699
H75   H     H_    0.812418 0.412299 0.326187 0.202109
H76   H     H_    0.833597 0.393283 0.359963 0.153384
H77   H     H_    0.679425 0.392274 0.369311 0.137553
H78   H     H_    0.708335 0.314455 0.345469 0.183075
H79   H     H_    0.153008 0.476363 0.565940 0.157826
H80   H     H_    0.657795 0.410643 0.335312 0.141482
H81   H     H_    0.546693 0.741734 0.663543 0.149015
H82   H     H_    0.533550 0.754090 0.630101 0.157689
H83   H     H_    0.412232 0.812461 0.673815 0.202104
H84   H     H_    0.393213 0.833633 0.640038 0.153379
H85   H     H_    0.392143 0.679458 0.630697 0.137575
H86   H     H_    0.314343 0.708404 0.654541 0.183128
H87   H     H_    0.410517 0.657834 0.664696 0.141469
H88   H     H_    0.453146 0.741761 0.336453 0.149012
H89   H     H_    0.466278 0.754106 0.369896 0.157712
H90   H     H_    0.200816 0.444605 0.596048 0.121838
H91   H     H_    0.587654 0.812386 0.326186 0.202117
H92   H     H_    0.606671 0.833571 0.359961 0.153386
H93   H     H_    0.607645 0.679402 0.369313 0.137556
H94   H     H_    0.685472 0.708284 0.345471 0.183071
H95   H     H_    0.589272 0.657765 0.335315 0.141485
H96   H     H_    0.758235 0.046855 0.163547 0.149014
H97   H     H_    0.745891 0.033720 0.130104 0.157710
H98   H     H_    0.687611 0.912346 0.173815 0.202118
H99   H     H_    0.666427 0.893327 0.140040 0.153388
H100  H     H_    0.820596 0.892357 0.130688 0.137555
H101  H     H_    0.256237 0.590124 0.560248 0.192918
H102  H     H_    0.791714 0.814529 0.154530 0.183074
H103  H     H_    0.842231 0.910729 0.164686 0.141487
H104  H     H_    0.758312 0.953696 0.836454 0.149038
H105  H     H_    0.745942 0.966823 0.869898 0.157623
H106  H     H_    0.687299 0.088041 0.826192 0.202079
H107  H     H_    0.666183 0.107016 0.859974 0.153361
H108  H     H_    0.820381 0.108332 0.869277 0.137631
H109  H     H_    0.791241 0.186098 0.845445 0.183339
H110  H     H_    0.841940 0.090016 0.835271 0.141447
H111  H     H_    0.953214 0.758242 0.163546 0.149019
H112  H     H_    0.543303 0.269429 0.016115 0.342725
H113  H     H_    0.306162 0.562698 0.590375 0.150147
H114  H     H_    0.966339 0.745893 0.130102 0.157695
H115  H     H_    0.087706 0.687565 0.173809 0.202108
H116  H     H_    0.106708 0.666391 0.140032 0.153388
H117  H     H_    0.107720 0.820564 0.130687 0.137548
H118  H     H_    0.185548 0.791645 0.154525 0.183072
H119  H     H_    0.089368 0.842188 0.164687 0.141483
H120  H     H_    0.046380 0.758297 0.836450 0.149031
H121  H     H_    0.033245 0.745938 0.869894 0.157632
H122  H     H_    0.912017 0.687337 0.826185 0.202091
H123  H     H_    0.893030 0.666206 0.859966 0.153358
H124  H     H_    0.338909 0.419163 0.573071 0.148721
H125  H     H_    0.891754 0.820403 0.869277 0.137644
H126  H     H_    0.813981 0.791293 0.845443 0.183371
H127  H     H_    0.910076 0.841973 0.835271 0.141457
H128  H     H_    0.241777 0.953094 0.163547 0.149015
H129  H     H_    0.254113 0.966235 0.130103 0.157708
H130  H     H_    0.312362 0.087615 0.173817 0.202124
H131  H     H_    0.333554 0.106647 0.140043 0.153382
H132  H     H_    0.179386 0.107586 0.130687 0.137541
H133  H     H_    0.208245 0.185414 0.154532 0.183045
H134  H     H_    0.157745 0.089201 0.164684 0.141491
H135  H     H_    0.382947 0.501176 0.553062 0.140492
H136  H     H_    0.241668 0.046295 0.836460 0.149011
H137  H     H_    0.254066 0.033131 0.869901 0.157654
H138  H     H_    0.312659 0.911968 0.826178 0.202079
H139  H     H_    0.333848 0.892964 0.859955 0.153385
H140  H     H_    0.179688 0.891583 0.869291 0.137689
H141  H     H_    0.208764 0.813880 0.845432 0.183386
H142  H     H_    0.158023 0.909983 0.835296 0.141414
H143  H     H_    0.046814 0.241758 0.163545 0.149017
H144  H     H_    0.033680 0.254107 0.130102 0.157699
H145  H     H_    0.912315 0.312412 0.173812 0.202113
H146  H     H_    0.289257 0.446720 0.542637 0.160602
H147  H     H_    0.893300 0.333588 0.140036 0.153386
H148  H     H_    0.892307 0.179416 0.130689 0.137552
H149  H     H_    0.814484 0.208317 0.154530 0.183073
H150  H     H_    0.910677 0.157788 0.164688 0.141484
H151  H     H_    0.953446 0.241708 0.836456 0.149012
H152  H     H_    0.966618 0.254069 0.869897 0.157679
H153  H     H_    0.087853 0.312518 0.826171 0.202107
H154  H     H_    0.106895 0.333698 0.859946 0.153361
H155  H     H_    0.108069 0.179523 0.869286 0.137645
H156  H     H_    0.185825 0.208514 0.845433 0.183303
H157  H     H_    0.152996 0.523467 0.434084 0.157846
H158  H     H_    0.089668 0.157892 0.835288 0.141452
H159  H     H_    0.200776 0.555353 0.403983 0.121812
H160  H     H_    0.256268 0.409647 0.439702 0.193047
H161  H     H_    0.306222 0.437387 0.409606 0.150002
H162  H     H_    0.338740 0.580832 0.427044 0.148781
H163  H     H_    0.382901 0.498669 0.446969 0.140504
H164  H     H_    0.269365 0.543725 0.983887 0.342703
H165  H     H_    0.289133 0.552874 0.457450 0.160563
H166  H     H_    0.523410 0.152978 0.565889 0.157897
H167  H     H_    0.555473 0.200686 0.595985 0.121804
H168  H     H_    0.409589 0.256399 0.560366 0.193144
H169  H     H_    0.437774 0.306360 0.590420 0.149771
H170  H     H_    0.581170 0.338420 0.572808 0.148909
H171  H     H_    0.498832 0.382882 0.553012 0.140462
H172  H     H_    0.552582 0.288969 0.542434 0.160514
H173  H     H_    0.476408 0.153014 0.434057 0.157804
H174  H     H_    0.444690 0.200849 0.403949 0.121831
H175  H     H_    0.730575 0.543308 0.016114 0.342726
H176  H     H_    0.590193 0.256178 0.439768 0.192909
H177  H     H_    0.562880 0.306109 0.409631 0.150220
H178  H     H_    0.419354 0.339009 0.426897 0.148678
H179  H     H_    0.501336 0.382944 0.446938 0.140513
H180  H     H_    0.446744 0.289303 0.457337 0.160605
H181  H     H_    0.846984 0.523558 0.565941 0.157823
H182  H     H_    0.799165 0.555317 0.596047 0.121824
H183  H     H_    0.743778 0.409771 0.560253 0.192902
H184  H     H_    0.693832 0.437211 0.590376 0.150158
H185  H     H_    0.661089 0.580736 0.573058 0.148721
H186  H     H_    0.456269 0.269356 0.983885 0.342701
H187  H     H_    0.617057 0.498702 0.553057 0.140469
H188  H     H_    0.710747 0.553148 0.542628 0.160599
H189  H     H_    0.846985 0.476468 0.434068 0.157824
H190  H     H_    0.799168 0.444683 0.403963 0.121816
H191  H     H_    0.743786 0.590279 0.439740 0.192976
H192  H     H_    0.693838 0.562784 0.409622 0.150134
H193  H     H_    0.661094 0.419295 0.426963 0.148716
H194  H     H_    0.617072 0.501360 0.446955 0.140511
H195  H     H_    0.710765 0.446926 0.457387 0.160590
H196  H     H_    0.476415 0.846991 0.565929 0.157839
H197  H     H_    0.456707 0.730571 0.016118 0.342726
H198  H     H_    0.444598 0.799194 0.596033 0.121822
H199  H     H_    0.590199 0.743744 0.560268 0.192976
H200  H     H_    0.562639 0.693804 0.590382 0.150100
H201  H     H_    0.419147 0.661151 0.573021 0.148743
H202  H     H_    0.501224 0.617068 0.553045 0.140497
H203  H     H_    0.446869 0.710791 0.542599 0.160589
H204  H     H_    0.523508 0.846982 0.434063 0.157818
H205  H     H_    0.555272 0.799158 0.403958 0.121819
H206  H     H_    0.409696 0.743798 0.439744 0.192948
H207  H     H_    0.437151 0.693848 0.409623 0.150150
H208  H     H_    0.730648 0.456274 0.983884 0.342702
H209  H     H_    0.580653 0.661075 0.426950 0.148710
H210  H     H_    0.498602 0.617068 0.446950 0.140499
H211  H     H_    0.553064 0.710751 0.457377 0.160591
H212  H     H_    0.653020 0.976497 0.065935 0.157822
H213  H     H_    0.700834 0.944722 0.096041 0.121829
H214  H     H_    0.756207 0.090301 0.060257 0.192954
H215  H     H_    0.806145 0.062847 0.090380 0.150150
H216  H     H_    0.838926 0.919347 0.073057 0.148707
H217  H     H_    0.882936 0.001394 0.053055 0.140511
H218  H     H_    0.789257 0.946927 0.042628 0.160592
H219  H     H_    0.269432 0.456694 0.016118 0.342726
H220  H     H_    0.652976 0.023662 0.934090 0.157852
H221  H     H_    0.700688 0.055636 0.903987 0.121853
H222  H     H_    0.756409 0.910019 0.939707 0.192926
H223  H     H_    0.806287 0.937775 0.909600 0.150019
H224  H     H_    0.838674 0.081273 0.927012 0.148816
H225  H     H_    0.882942 0.999192 0.946947 0.140447
H226  H     H_    0.789128 0.053320 0.957428 0.160594
H227  H     H_    0.023478 0.653012 0.065927 0.157828
H228  H     H_    0.055295 0.700815 0.096030 0.121822
H229  H     H_    0.909669 0.756222 0.060269 0.192981
H230  H     H_    0.043462 0.230581 0.483880 0.342718
H231  H     H_    0.937209 0.806163 0.090384 0.150118
H232  H     H_    0.080690 0.838872 0.073026 0.148724
H233  H     H_    0.998605 0.882925 0.053048 0.140510
H234  H     H_    0.052997 0.789223 0.042604 0.160583
H235  H     H_    0.976327 0.652985 0.934080 0.157839
H236  H     H_    0.944396 0.700700 0.903974 0.121858
H237  H     H_    0.089957 0.756403 0.939716 0.192867
H238  H     H_    0.062301 0.806266 0.909599 0.150066
H239  H     H_    0.918763 0.838715 0.926970 0.148802
H240  H     H_    0.000803 0.882974 0.946923 0.140428
N1    N     N_R   0.499999 0.999997 0.932128 -0.423764
N2    N     N_R   0.500005 0.000002 0.067875 -0.423714
N3    N     N_R   0.000010 0.499998 0.932127 -0.423720
N4    N     N_R   0.999999 0.500002 0.067875 -0.423734
N5    N     N_R   0.999994 0.499991 0.432126 -0.423751
N6    N     N_R   0.999995 0.499974 0.567874 -0.423721
N7    N     N_R   0.499977 0.999996 0.432126 -0.423724
N8    N     N_R   0.499982 0.999994 0.567873 -0.423774
O1    O     O_3   0.000000 0.500000 0.750000 -0.442080
O2    O     O_R   0.000000 0.430630 0.192350 -0.517603
O3    O     O_3   0.937965 0.359830 0.903625 -0.513127
O4    O     O_3   0.137639 0.563557 0.651029 -0.519847
O5    O     O_3   0.137652 0.436457 0.348970 -0.519825
O6    O     O_3   0.436547 0.137698 0.651029 -0.519811
O7    O     O_3   0.563598 0.137620 0.348970 -0.519845
O8    O     O_3   0.862365 0.436409 0.651033 -0.519865
O9    O     O_3   0.862361 0.563571 0.348970 -0.519835
O10   O     O_3   0.563515 0.862337 0.651029 -0.519829
O11   O     O_3   0.436392 0.862373 0.348967 -0.519849
O12   O     O_3   0.637623 0.063608 0.151032 -0.519841
O13   O     O_R   0.430630 0.000000 0.807650 -0.517543
O14   O     O_3   0.637745 0.936659 0.848974 -0.519841
O15   O     O_3   0.936421 0.637636 0.151031 -0.519831
O16   O     O_3   0.063382 0.637728 0.848973 -0.519850
O17   O     O_3   0.362391 0.936372 0.151031 -0.519850
O18   O     O_3   0.362244 0.063327 0.848974 -0.519818
O19   O     O_3   0.063585 0.362368 0.151031 -0.519830
O20   O     O_3   0.936564 0.362299 0.848973 -0.519869
O21   O     O_R   0.569370 1.000000 0.192350 -0.517609
O22   O     O_R   0.500000 0.930630 0.307650 -0.517609
O23   O     O_R   0.500000 0.069370 0.692350 -0.517550
O24   O     O_R   0.069370 0.500000 0.307650 -0.517588
O25   O     O_R   0.930630 0.500000 0.692350 -0.517602
O26   O     O_R   0.500000 0.069370 0.307650 -0.517614
O27   O     O_R   0.500000 0.930630 0.692350 -0.517584
O28   O     O_R   0.930630 0.500000 0.307650 -0.517601
O29   O     O_3   0.000000 0.500000 0.250000 -0.442091
O30   O     O_R   0.069370 0.500000 0.692350 -0.517599
O31   O     O_R   0.902350 0.666510 0.764820 -0.545262
O32   O     O_R   0.097650 0.333490 0.235180 -0.531008
O33   O     O_R   0.333490 0.902350 0.764820 -0.545266
O34   O     O_R   0.666510 0.097650 0.235180 -0.531009
O35   O     O_R   0.097650 0.333490 0.764820 -0.545268
O36   O     O_R   0.902350 0.666510 0.235180 -0.531007
O37   O     O_R   0.666510 0.097650 0.764820 -0.545259
O38   O     O_R   0.333490 0.902350 0.235180 -0.531013
O39   O     O_R   0.902350 0.333490 0.235180 -0.545258
O40   O     O_3   0.500000 1.000000 0.750000 -0.442094
O41   O     O_R   0.097650 0.666510 0.764820 -0.530999
O42   O     O_R   0.333490 0.097650 0.235180 -0.545262
O43   O     O_R   0.666510 0.902350 0.764820 -0.530997
O44   O     O_R   0.097650 0.666510 0.235180 -0.545258
O45   O     O_R   0.902350 0.333490 0.764820 -0.531007
O46   O     O_R   0.666510 0.902350 0.235180 -0.545261
O47   O     O_R   0.333490 0.097650 0.764820 -0.530994
O48   O     O_R   0.402350 0.166510 0.264820 -0.545262
O49   O     O_R   0.597650 0.833490 0.735180 -0.531009
O50   O     O_R   0.833490 0.402350 0.264820 -0.545259
O51   O     O_3   0.500000 1.000000 0.250000 -0.442084
O52   O     O_R   0.166510 0.597650 0.735180 -0.531015
O53   O     O_R   0.597650 0.833490 0.264820 -0.545259
O54   O     O_R   0.402350 0.166510 0.735180 -0.531000
O55   O     O_R   0.166510 0.597650 0.264820 -0.545256
O56   O     O_R   0.833490 0.402350 0.735180 -0.531015
O57   O     O_R   0.402350 0.833490 0.735180 -0.545262
O58   O     O_R   0.597650 0.166510 0.264820 -0.531011
O59   O     O_R   0.833490 0.597650 0.735180 -0.545264
O60   O     O_R   0.166510 0.402350 0.264820 -0.531003
O61   O     O_R   0.597650 0.166510 0.735180 -0.545255
O62   O     O_R   0.000000 0.430630 0.807650 -0.517580
O63   O     O_R   0.402350 0.833490 0.264820 -0.531009
O64   O     O_R   0.166510 0.402350 0.735180 -0.545267
O65   O     O_R   0.833490 0.597650 0.264820 -0.531007
O66   O     O_2   0.499564 0.147228 0.931343 -0.374187
O67   O     O_2   0.499801 0.852770 0.068659 -0.374129
O68   O     O_2   0.852779 0.499574 0.931342 -0.374170
O69   O     O_2   0.147231 0.499792 0.068660 -0.374136
O70   O     O_2   0.500433 0.852766 0.931344 -0.374177
O71   O     O_2   0.500211 0.147234 0.068658 -0.374134
O72   O     O_2   0.147241 0.500428 0.931344 -0.374172
O73   O     O_R   0.000000 0.569370 0.192350 -0.517601
O74   O     O_2   0.852768 0.500212 0.068657 -0.374136
O75   O     O_2   0.999734 0.647223 0.431344 -0.374121
O76   O     O_2   0.999696 0.352742 0.568656 -0.374125
O77   O     O_2   0.352745 0.999742 0.431343 -0.374120
O78   O     O_2   0.647215 0.999688 0.568656 -0.374130
O79   O     O_2   0.000256 0.352759 0.431341 -0.374131
O80   O     O_2   0.000292 0.647206 0.568659 -0.374129
O81   O     O_2   0.647209 0.000247 0.431342 -0.374119
O82   O     O_2   0.352751 0.000305 0.568658 -0.374151
O83   O     O_3   0.513032 0.771392 0.972844 -0.624908
O84   O     O_R   0.569370 0.000000 0.807650 -0.517551
O85   O     O_3   0.512665 0.228628 0.027158 -0.624891
O86   O     O_3   0.228615 0.513021 0.972845 -0.624910
O87   O     O_3   0.771375 0.512669 0.027157 -0.624892
O88   O     O_3   0.486976 0.228606 0.972843 -0.624906
O89   O     O_3   0.487345 0.771373 0.027160 -0.624890
O90   O     O_3   0.771400 0.486979 0.972841 -0.624909
O91   O     O_3   0.228631 0.487333 0.027160 -0.624889
O92   O     O_3   0.012794 0.271364 0.472839 -0.624888
O93   O     O_3   0.012857 0.728597 0.527161 -0.624892
O94   O     O_3   0.728600 0.012789 0.472840 -0.624891
O95   O     O_R   0.430630 1.000000 0.192350 -0.517621
O96   O     O_3   0.271362 0.012863 0.527159 -0.624892
O97   O     O_3   0.987185 0.728607 0.472844 -0.624891
O98   O     O_3   0.987124 0.271361 0.527156 -0.624897
O99   O     O_3   0.271356 0.987193 0.472842 -0.624892
O100  O     O_3   0.728598 0.987114 0.527157 -0.624893
O101  O     O_3   0.140106 0.562161 0.596375 -0.513082
O102  O     O_3   0.140101 0.437777 0.403621 -0.513070
O103  O     O_3   0.437827 0.140138 0.596381 -0.513097
O104  O     O_3   0.562215 0.140081 0.403624 -0.513060
O105  O     O_3   0.859895 0.437772 0.596379 -0.513081
O106  O     O_R   0.000000 0.569370 0.807650 -0.517566
O107  O     O_3   0.859906 0.562224 0.403622 -0.513057
O108  O     O_3   0.562164 0.859884 0.596377 -0.513069
O109  O     O_3   0.437738 0.859910 0.403620 -0.513065
O110  O     O_3   0.640084 0.062258 0.096379 -0.513068
O111  O     O_3   0.640184 0.937972 0.903622 -0.513109
O112  O     O_3   0.937748 0.640086 0.096379 -0.513061
O113  O     O_3   0.062050 0.640177 0.903622 -0.513108
O114  O     O_3   0.359932 0.937743 0.096377 -0.513061
O115  O     O_3   0.359800 0.062011 0.903621 -0.513130
O116  O     O_3   0.062244 0.359917 0.096378 -0.513064
Zn1   Zn    Zn3+2 0.900880 0.500000 0.727850 0.952289
Zn2   Zn    Zn3+2 0.599120 1.000000 0.772150 0.952283
Zn3   Zn    Zn3+2 0.000000 0.400880 0.227850 0.952319
Zn4   Zn    Zn3+2 0.000000 0.599120 0.772150 0.952289
Zn5   Zn    Zn3+2 0.599120 1.000000 0.227850 0.952321
Zn6   Zn    Zn3+2 0.400880 1.000000 0.772150 0.952287
Zn7   Zn    Zn3+2 0.000000 0.599120 0.227850 0.952321
Zn8   Zn    Zn3+2 0.000000 0.400880 0.772150 0.952272
Zn9   Zn    Zn3+2 0.099120 0.500000 0.272150 0.952326
Zn10  Zn    Zn3+2 0.500000 0.900880 0.727850 0.952289
Zn11  Zn    Zn3+2 0.500000 0.099120 0.272150 0.952313
Zn12  Zn    Zn3+2 0.099120 0.500000 0.727850 0.952292
Zn13  Zn    Zn3+2 0.900880 0.500000 0.272150 0.952316
Zn14  Zn    Zn3+2 0.500000 0.099120 0.727850 0.952316
Zn15  Zn    Zn3+2 0.500000 0.900880 0.272150 0.952319
Zn16  Zn    Zn3+2 0.400880 1.000000 0.227850 0.952311

loop_
_geom_bond_atom_site_label_1
_geom_bond_atom_site_label_2
_ccdc_geom_bond_type
C77   H210  S    
C163  O88   S    
C119  H66   S    
C101  C113  A    
C120  H69   S    
C27   N6    A    
C224  O49   A    
C45   C170  A    
C49   C173  A    
C114  C115  S    
C136  O14   S    
C146  C157  A    
C170  C176  A    
C43   C168  A    
O31   Zn4   S    
C182  C197  A    
C151  H140  S    
C105  H34   S    
O55   Zn9   S    
C62   O104  S    
C164  O6    S    
C10   C215  S    
C158  H156  S    
C106  C107  S    
C72   H196  S    
C143  C144  S    
C61   H172  S    
C15   C239  T    
C111  H51   S    
C108  C109  S    
C118  H62   S    
C129  H89   S    
C17   C39   A    
C59   H166  S    
C18   C40   A    
C25   O74   S    
C79   C90   A    
C214  O33   A    
C46   O18   S    
C130  H91   S    
O29   Zn7   S    
C173  O98   S    
H68   O100  S    
C155  O20   S    
C68   C193  A    
C22   N2    A    
O30   Zn12  S    
C20   N4    A    
C54   H124  S    
C202  N3    S    
H230  O92   S    
C78   O110  S    
C44   C135  A    
O38   Zn16  S    
C2    O14   S    
C59   C60   S    
C115  H54   S    
C92   O114  S    
C220  O63   A    
C175  O7    S    
O50   Zn13  S    
C190  C199  A    
C132  H96   S    
O13   Zn6   S    
C122  H74   S    
O57   Zn10  S    
C160  C163  A    
C205  C235  S    
C140  C141  S    
C57   C192  A    
O62   Zn8   S    
C55   O102  S    
C140  H115  S    
C23   C37   A    
C51   C157  A    
C56   H160  S    
C95   H12   S    
C152  H143  S    
C75   C76   S    
C203  O106  A    
C125  H78   S    
C55   H157  S    
O52   Zn12  S    
C20   C42   A    
O2    Zn3   S    
O51   Zn15  S    
C92   H5    S    
C183  C196  A    
C4    C222  S    
C35   C234  A    
C108  O5    S    
C181  C194  A    
C116  O7    S    
O43   Zn2   S    
C208  C232  A    
C97   H16   S    
C190  O114  S    
C30   N5    A    
C144  H125  S    
C150  H138  S    
C35   C190  A    
C184  C198  A    
C218  O61   A    
C33   C47   A    
C30   C43   A    
C209  O27   A    
C1    O4    S    
C210  O28   A    
C65   H181  S    
C35   O17   S    
C22   C36   A    
C42   C167  A    
C112  C178  A    
C208  O10   S    
C87   H234  S    
C86   H231  S    
C18   N2    A    
C124  C135  A    
C105  H36   S    
C72   C73   S    
H208  O90   S    
H112  O85   S    
C47   C171  A    
C139  C140  S    
C62   H174  S    
C78   H213  S    
C14   C212  S    
C220  O38   A    
C70   H191  S    
C126  H82   S    
C114  H52   S    
C58   H165  S    
C187  C200  A    
C164  C232  A    
C153  H145  S    
C156  C158  S    
C130  C131  S    
C104  H31   S    
C96   H14   S    
C204  C236  S    
O39   Zn3   S    
O44   Zn7   S    
C100  H26   S    
O26   Zn11  S    
C121  H72   S    
O51   Zn11  S    
C230  C234  A    
C69   C70   S    
C218  O37   A    
C180  C198  A    
C11   C214  S    
H35   O97   S    
C88   C89   S    
C99   H21   S    
C114  H53   S    
O25   Zn1   S    
C98   C99   S    
C69   H190  S    
C159  O83   S    
C155  C156  S    
C213  O60   A    
C128  H85   S    
C81   H217  S    
C53   H113  S    
C149  C150  S    
C88   H236  S    
C226  O45   A    
C137  H106  S    
O34   Zn5   S    
C15   C220  S    
C147  C148  S    
C46   C191  A    
C80   H214  S    
C6    C9    T    
C156  H154  S    
C7    C8    T    
C85   C86   S    
O63   Zn15  S    
C185  C230  A    
C28   N7    A    
C210  O24   A    
C112  C231  A    
C7    C227  S    
C186  O8    S    
C178  O102  S    
C13   O15   S    
H13   O94   S    
C211  O25   A    
C125  H80   S    
C64   H179  S    
H164  O86   S    
C34   C79   A    
C105  O4    S    
C78   C80   S    
C24   O16   S    
O64   Zn12  S    
C91   H239  S    
C85   H228  S    
O1    Zn8   S    
C2    C187  A    
O23   Zn14  S    
C8    C217  S    
C93   H7    S    
C93   C94   S    
C141  H118  S    
C75   O109  S    
C144  H127  S    
C175  C233  A    
C58   H162  S    
C16   C218  S    
C59   H167  S    
C89   C91   S    
C25   N4    A    
C20   O69   S    
O40   Zn14  S    
C34   C159  A    
C22   O71   S    
C49   C135  A    
C86   H229  S    
C16   C238  T    
C76   H207  S    
C96   C97   S    
C51   C176  A    
O32   Zn3   S    
C107  H40   S    
C94   H10   S    
C143  H122  S    
C97   H18   S    
C200  N1    S    
O106  Zn4   S    
C192  O116  S    
C115  H55   S    
C153  H147  S    
C154  H148  S    
C191  C200  A    
C112  O5    S    
C59   O103  S    
C214  O57   A    
O45   Zn8   S    
C121  H70   S    
C193  O3    S    
C142  H121  S    
C67   H185  S    
C132  H97   S    
C159  C165  A    
O35   Zn8   S    
C74   H202  S    
C201  N4    S    
O24   Zn9   S    
C25   C38   A    
O73   Zn7   S    
H197  O89   S    
C83   C84   S    
C210  C231  S    
C139  O15   S    
C41   C166  A    
C128  H87   S    
C138  H108  S    
C154  H149  S    
C161  C167  A    
C185  C199  A    
C224  C240  S    
C40   C165  A    
C72   O108  S    
C106  H38   S    
O40   Zn10  S    
C148  H133  S    
C110  H49   S    
C205  O13   A    
C102  H27   S    
C227  O53   A    
C123  H75   S    
H46   O98   S    
C119  O8    S    
C129  H88   S    
C139  H111  S    
H1    O83   S    
C31   N6    A    
C19   O68   S    
C207  C233  S    
C129  C130  S    
C29   C51   A    
C71   H195  S    
C77   H209  S    
C60   H169  S    
C3    C223  S    
C119  H65   S    
C147  H130  S    
C58   H163  S    
C226  O56   A    
C136  C137  S    
C136  H104  S    
H2    O93   S    
C181  C186  A    
C175  C180  A    
C189  C202  A    
O1    Zn4   S    
C30   O79   S    
C206  C234  S    
O48   Zn11  S    
C67   H187  S    
C188  O112  S    
C32   N7    A    
O61   Zn14  S    
C117  C118  S    
C37   C101  A    
C71   H193  S    
C69   H189  S    
C63   H176  S    
C222  O41   A    
C151  H142  S    
C155  H152  S    
C104  H33   S    
C120  H67   S    
C56   C58   S    
C160  O85   S    
C84   H226  S    
C102  C103  S    
C203  C237  S    
C213  O32   A    
C217  O65   A    
C63   C64   S    
C170  O94   S    
C130  H92   S    
C152  C153  S    
C64   H178  S    
C204  O73   A    
C89   H238  S    
C73   H200  S    
C84   H225  S    
O53   Zn15  S    
C182  C195  A    
C129  O11   S    
C13   C188  A    
C94   H8    S    
C24   C237  A    
C166  O90   S    
O84   Zn2   S    
C98   H19   S    
C55   C56   S    
C73   C74   S    
C219  C233  A    
C5    C221  S    
C134  H102  S    
C171  C174  A    
O28   Zn13  S    
O29   Zn13  S    
C52   C53   S    
C33   O82   S    
O65   Zn13  S    
C103  H29   S    
C174  O99   S    
C189  O113  S    
C142  O16   S    
C68   C237  A    
C47   C157  A    
C140  H116  S    
C36   C90   A    
C115  H56   S    
C149  O18   S    
C152  H144  S    
C224  O43   A    
C44   C169  A    
C211  O30   A    
C125  H77   S    
C136  H105  S    
C145  C147  S    
C162  C166  A    
C131  H94   S    
C110  H47   S    
C116  H59   S    
C52   H79   S    
C6    C228  S    
C23   N3    A    
C192  C201  A    
C70   C71   S    
C98   O116  S    
C31   O80   S    
C149  H136  S    
C21   N1    A    
C138  H109  S    
C26   C48   A    
C98   H20   S    
C50   C146  A    
C197  C231  A    
C77   H211  S    
C72   H198  S    
C150  H139  S    
C180  O104  S    
O95   Zn16  S    
C209  O23   A    
C82   H220  S    
C223  O42   A    
C12   C213  S    
O29   Zn3   S    
C219  O11   S    
C203  O62   A    
C179  C196  A    
C87   H233  S    
C133  H99   S    
C227  O46   A    
O29   Zn9   S    
C230  O12   S    
C177  C194  A    
O1    Zn12  S    
C228  O54   A    
C76   H206  S    
C95   H11   S    
C38   C113  A    
C86   C87   S    
C53   H101  S    
C158  H155  S    
C53   C54   S    
C70   H192  S    
C152  O19   S    
C193  C202  A    
C60   C61   S    
C209  C232  S    
C39   C79   A    
C95   O115  S    
C104  H32   S    
C62   C63   S    
C194  N6    S    
C75   H204  S    
C126  H81   S    
C100  H23   S    
C64   H180  S    
C106  H37   S    
C4    C11   T    
O22   Zn15  S    
C212  O59   A    
C171  O96   S    
C108  H43   S    
C162  O87   S    
C177  O101  S    
C83   H222  S    
C52   H90   S    
C133  C134  S    
C128  H86   S    
C134  H100  S    
C206  O95   A    
C143  H123  S    
C127  C128  S    
C33   N8    A    
C57   C236  A    
C27   O76   S    
C195  N5    S    
C37   C161  A    
C21   O70   S    
C137  C138  S    
C85   O112  S    
C148  H132  S    
C19   N3    A    
O51   Zn5   S    
C122  H73   S    
C204  O2    A    
C23   O72   S    
C211  C229  S    
C133  H98   S    
C17   N1    A    
C132  O12   S    
C126  O10   S    
C119  C120  S    
C21   C34   A    
C105  C106  S    
O40   Zn2   S    
C221  O39   A    
C147  H131  S    
C46   C235  A    
C103  H30   S    
C26   O75   S    
O40   Zn6   S    
C167  O91   S    
O51   Zn16  S    
C126  C127  S    
O1    Zn1   S    
C85   H227  S    
C92   C93   S    
C41   C101  A    
C111  C114  S    
C82   H221  S    
C228  O47   A    
O42   Zn16  S    
H24   O96   S    
C93   H6    S    
C156  H153  S    
C141  H117  S    
H186  O88   S    
C5    C10   T    
C181  O105  S    
C82   C83   S    
C29   O78   S    
C117  H61   S    
C103  C104  S    
C142  C143  S    
C223  O48   A    
C40   C90   A    
C18   O67   S    
C65   H182  S    
C19   C41   A    
C14   C240  T    
C216  O35   A    
O33   Zn6   S    
C226  C238  S    
H57   O99   S    
C84   H224  S    
C95   C96   S    
C217  O36   A    
C107  H39   S    
C62   H173  S    
C97   H17   S    
C212  O31   A    
C186  C229  A    
C78   H212  S    
C117  H60   S    
C111  H50   S    
C69   O107  S    
C87   H232  S    
C182  O107  S    
C144  H126  S    
C149  H137  S    
C225  O44   A    
O49   Zn10  S    
C100  H25   S    
C215  O34   A    
C82   O111  S    
C61   H171  S    
C188  C201  A    
C116  C117  S    
C74   H203  S    
C63   H177  S    
C17   O66   S    
O36   Zn7   S    
C3    C12   T    
C123  C125  S    
C48   C172  A    
C28   C50   A    
C184  C219  A    
C29   N8    A    
C132  C133  S    
C118  H63   S    
C24   C189  A    
C154  H150  S    
C67   H188  S    
C88   H235  S    
C121  H71   S    
C131  H95   S    
C137  H107  S    
C148  H134  S    
O56   Zn1   S    
C116  H58   S    
O46   Zn5   S    
C102  H28   S    
C183  C208  A    
C107  H41   S    
C1    C177  A    
C32   O81   S    
C139  H114  S    
O21   Zn5   S    
O59   Zn1   S    
C9    C216  S    
C168  C173  A    
C199  N2    S    
C31   C44   A    
C138  H110  S    
C45   C146  A    
C215  O58   A    
C76   C77   S    
C99   H22   S    
C169  O93   S    
O41   Zn4   S    
C109  H44   S    
C91   H240  S    
C206  O21   A    
O60   Zn9   S    
C1    C229  A    
C141  H119  S    
C42   C113  A    
C65   O105  S    
C99   C100  S    
C158  H158  S    
C151  H141  S    
C155  H151  S    
C61   H170  S    
C81   H216  S    
C118  H64   S    
C32   C45   A    
C127  H84   S    
C88   O113  S    
C164  C179  A    
C197  O9    S    
C184  O109  S    
C81   H218  S    
C66   H183  S    
C225  O55   A    
O27   Zn10  S    
C145  O17   S    
C75   H205  S    
C207  O22   A    
C91   H3    S    
C207  O26   A    
C127  H83   S    
C13   C236  A    
C89   H237  S    
C172  O97   S    
C73   H199  S    
C169  C172  A    
C187  O111  S    
C52   O101  S    
C94   H9    S    
H175  O87   S    
C108  H42   S    
C71   H194  S    
C168  O92   S    
C191  O115  S    
C56   H161  S    
C221  O50   A    
C83   H223  S    
C183  O108  S    
C150  C151  S    
C134  H103  S    
C196  N8    S    
C96   H15   S    
C80   C81   S    
C216  O64   A    
C48   C124  A    
C28   O77   S    
C66   H184  S    
C57   O19   S    
C178  C195  A    
C176  O100  S    
C142  H120  S    
O58   Zn11  S    
C222  O52   A    
C50   C174  A    
C74   H201  S    
C68   O20   S    
C122  C123  S    
C109  H45   S    
C102  O3    S    
C54   H135  S    
C60   H168  S    
C185  O110  S    
C92   H4    S    
C225  C239  S    
C66   C67   S    
C122  O9    S    
C179  O103  S    
C26   N5    A    
C54   H146  S    
C111  O6    S    
C55   H159  S    
C36   C160  A    
C145  H129  S    
C131  H93   S    
C145  H128  S    
C27   C49   A    
C2    C235  A    
C38   C162  A    
O47   Zn6   S    
C110  H48   S    
C65   C66   S    
O37   Zn2   S    
C109  C110  S    
C123  H76   S    
C198  N7    S    
C205  O84   A    
C120  C121  S    
C153  C154  S    
C80   H215  S    
C39   C163  A    
C43   C124  A    
O54   Zn14  S    
C165  O89   S    
C161  O86   S    
H219  O91   S    
