data_mof_unit_44623.cif
_audit_creation_date              2012-12-10T17:18:57-0500
_audit_creation_method            fapswitch 2.2
_symmetry_space_group_name_H-M    P1
_symmetry_Int_Tables_number       1
_space_group_crystal_system       triclinic
_cell_length_a                    9.635985
_cell_length_b                    10.775455
_cell_length_c                    13.462489
_cell_angle_alpha                 94.648955
_cell_angle_beta                  74.048365
_cell_angle_gamma                 90.52109
_cell_volume                      1339.46514944

loop_
_atom_site_label
_atom_site_type_symbol
_atom_type_description
_atom_site_fract_x
_atom_site_fract_y
_atom_site_fract_z
_atom_type_partial_charge
C1    C     C_R   0.496054 0.738542 0.514138 0.787896
C2    C     C_R   0.425741 0.555451 0.983121 0.110810
C3    C     C_R   0.467233 0.567762 0.875090 0.077555
C4    C     C_R   0.531822 0.570147 0.038550 0.079900
C5    C     C_R   0.671168 0.611011 0.987452 0.100004
C6    C     C_R   0.699778 0.646504 0.886524 -0.207487
C7    C     C_R   0.597340 0.627377 0.831990 -0.199020
C8    C     C_R   0.506590 0.536912 0.140614 -0.322551
C9    C     C_R   0.754578 0.580634 0.138732 0.447981
C10   C     C_R   0.375144 0.523532 0.814327 -0.083479
C11   C     C_R   0.227482 0.878625 0.634320 -0.152332
C12   C     C_R   0.422843 0.508561 0.699829 0.731697
C13   C     C_R   0.099839 0.944982 0.681103 -0.080334
C14   C     C_R   0.094766 0.073315 0.677237 -0.080273
C15   C     C_R   0.217177 0.136441 0.626604 -0.172118
C16   C     C_R   0.348788 0.071669 0.579802 0.092569
C17   C     C_R   0.353867 0.939747 0.582133 0.062105
C18   C     C_R   0.489260 0.875420 0.543147 -0.249333
C19   C     C_R   0.615705 0.946537 0.540730 0.421626
C20   C     C_R   0.605149 0.075165 0.546400 -0.233545
C21   C     C_R   0.480007 0.135054 0.543608 -0.209390
C22   C     C_R   0.933308 0.386333 0.319756 0.505189
C23   C     C_R   0.492406 0.265605 0.516251 0.901501
C24   C     C_R   0.051142 0.385963 0.231781 -0.190762
C25   C     C_R   0.184091 0.352400 0.242765 -0.296579
C26   C     C_R   0.206417 0.366227 0.340212 -0.102983
C27   C     C_R   0.105376 0.434105 0.420871 0.167031
C28   C     C_R   0.957738 0.437631 0.416537 0.074886
C29   C     C_R   0.896867 0.554257 0.579724 0.064393
C30   C     C_R   0.044307 0.557083 0.578678 -0.044246
C31   C     C_R   0.576504 0.509417 0.301164 0.877701
C32   C     C_R   0.780811 0.614898 0.037216 -0.271927
C33   C     C_R   0.615906 0.539620 0.191242 -0.130464
C34   C     C_R   0.233857 0.489136 0.864349 -0.193077
C35   C     C_R   0.185748 0.496199 0.971564 -0.167146
C36   C     C_R   0.280382 0.528417 0.030744 -0.206422
Cu1   Cu    Cu3+1 0.359340 0.500010 0.500010 0.936666
Cu2   Cu    Cu3+1 0.640660 0.499990 0.499990 1.038782
H1    H     H_    0.228242 0.781451 0.647968 0.145802
H2    H     H_    0.005197 0.896931 0.722831 0.170317
H3    H     H_    0.996015 0.124674 0.715735 0.166895
H4    H     H_    0.209049 0.236683 0.633197 0.165285
H5    H     H_    0.694787 0.130840 0.555249 0.255082
H6    H     H_    0.818911 0.597140 0.645848 0.149158
H7    H     H_    0.034904 0.367549 0.155631 0.206266
H8    H     H_    0.267978 0.313531 0.176583 0.186822
H9    H     H_    0.304671 0.328916 0.348945 0.213976
H10   H     H_    0.802509 0.686620 0.848878 0.145572
H11   H     H_    0.074163 0.604290 0.643552 0.115293
H12   H     H_    0.888608 0.641528 0.995918 0.140165
H13   H     H_    0.402687 0.504737 0.181278 0.180372
H14   H     H_    0.159275 0.457679 0.820624 0.154842
H15   H     H_    0.236307 0.537344 0.113477 0.156498
H16   H     H_    0.074653 0.475118 0.008640 0.177886
H17   H     H_    0.618379 0.662555 0.757006 0.196716
N1    N     N_R   0.852480 0.498790 0.499000 -0.202471
N2    N     N_R   0.148360 0.498710 0.498970 -0.199913
O1    O     O_R   0.381190 0.680360 0.500010 -0.584167
O2    O     O_R   0.618760 0.680340 0.500000 -0.508863
O3    O     O_R   0.323240 0.499990 0.650990 -0.613338
O4    O     O_R   0.560820 0.499960 0.650980 -0.601364
O5    O     O_R   0.381240 0.319660 0.500000 -0.614007
O6    O     O_R   0.618810 0.319640 0.499990 -0.508792
O7    O     O_R   0.439180 0.500040 0.349020 -0.606644
O8    O     O_R   0.676760 0.500010 0.349010 -0.544553
O9    O     O_3   0.869542 0.573691 0.180524 -0.653661
C37   C     C_3   0.892754 0.690321 0.228841 0.091412
H18   H     H_    0.950611 0.670030 0.286592 0.212331
H19   H     H_    0.790027 0.739589 0.272416 0.155654
C38   C     C_3   0.987933 0.774158 0.151147 -0.434339
H20   H     H_    0.067919 0.716940 0.090141 0.238979
H21   H     H_    0.919253 0.825159 0.113417 0.224189
C39   C     C_3   0.069585 0.868306 0.203833 -0.747761
H22   H     H_    0.993082 0.924573 0.267649 0.280707
H23   H     H_    0.130798 0.931482 0.146612 0.263202
H24   H     H_    0.146972 0.819544 0.235630 0.242988
S1    S     S_3+6 0.846902 0.240896 0.306616 0.003206
O10   O     O_2   0.691580 0.254708 0.308285 -0.301994
O11   O     O_2   0.920957 0.168523 0.205585 -0.326473
O12   O     O_3   0.865451 0.156924 0.400912 -0.548349
H25   H     H_    0.844794 0.070777 0.378275 0.375800
S2    S     S_3+6 0.784608 0.887002 0.546292 -0.042056
O13   O     O_2   0.761490 0.818833 0.642072 -0.341175
O14   O     O_2   0.852506 0.800935 0.452497 -0.357199
O15   O     O_3   0.899481 0.003707 0.552762 -0.545717
H26   H     H_    0.989719 0.980624 0.498117 0.382598

loop_
_geom_bond_atom_site_label_1
_geom_bond_atom_site_label_2
_ccdc_geom_bond_type
C16   C21   A    
C39   H22   S    
C19   C20   A    
C7    H17   S    
C4    C8    A    
C20   H5    S    
Cu1   O5    S    
C28   N1    A    
S1    O10   D    
C1    C18   S    
Cu1   Cu2   S    
C6    H10   S    
C24   H7    S    
C18   C19   A    
C3    C7    A    
C1    O2    A    
C5    C6    A    
C15   C16   A    
C30   N2    A    
C34   C35   A    
C9    O9    S    
C13   H2    S    
C36   H15   S    
C9    C32   A    
C23   O5    A    
C35   C36   A    
C16   C17   A    
C31   C33   S    
C38   H20   S    
C19   S2    S    
Cu1   O1    S    
Cu2   O4    S    
C23   O6    A    
O9    C37   S    
C22   C28   A    
C13   C14   A    
C35   H16   S    
C9    C33   A    
C39   H23   S    
S1    O11   D    
C37   H18   S    
C24   C25   A    
C15   H4    S    
C27   N2    A    
C4    C5    A    
C25   C26   A    
O15   H26   S    
C37   H19   S    
C2    C4    A    
C29   C30   A    
Cu2   O8    S    
C38   C39   S    
C17   C18   A    
C26   C27   A    
C10   C34   A    
C11   H1    S    
C8    H13   S    
C32   H12   S    
C10   C12   S    
C26   H9    S    
C14   H3    S    
C30   H11   S    
S2    O14   D    
C21   C23   S    
C29   H6    S    
C39   H24   S    
C22   C24   A    
Cu1   O7    S    
Cu2   O6    S    
S1    O12   S    
C2    C36   A    
C31   O8    A    
C11   C17   A    
C31   O7    A    
C22   S1    S    
O12   H25   S    
C6    C7    A    
C29   N1    A    
S2    O15   S    
C34   H14   S    
C37   C38   S    
C5    C32   A    
C2    C3    A    
C3    C10   A    
C1    O1    A    
C12   O4    A    
C11   C13   A    
C8    C33   A    
Cu1   O3    S    
Cu2   O2    S    
C12   O3    A    
Cu2   N1    S    
C20   C21   A    
S2    O13   D    
C27   C28   A    
C14   C15   A    
C38   H21   S    
C25   H8    S    
Cu1   N2    S    
