data_mof_unit_9780.cif
_audit_creation_date              2012-12-11T14:52:25-0500
_audit_creation_method            fapswitch 2.2
_symmetry_space_group_name_H-M    P1
_symmetry_Int_Tables_number       1
_space_group_crystal_system       triclinic
_cell_length_a                    18.755961
_cell_length_b                    10.992566
_cell_length_c                    18.722197
_cell_angle_alpha                 90.031633
_cell_angle_beta                  91.345373
_cell_angle_gamma                 89.953018
_cell_volume                      3859.00434175

loop_
_atom_site_label
_atom_site_type_symbol
_atom_type_description
_atom_site_fract_x
_atom_site_fract_y
_atom_site_fract_z
_atom_type_partial_charge
C1    C     C_R   0.271617 0.043097 0.853473 0.533098
C2    C     C_R   0.691595 0.539641 0.037642 -0.152733
C3    C     C_3   0.011071 0.327445 0.068573 0.051496
C4    C     C_R   0.373896 0.490853 0.079467 0.044210
C5    C     C_R   0.397848 0.541510 0.144965 -0.054810
C6    C     C_R   0.456164 0.491340 0.182381 -0.073141
C7    C     C_R   0.493236 0.393368 0.153759 -0.102954
C8    C     C_R   0.471651 0.344708 0.087940 -0.123202
C9    C     C_R   0.412677 0.393304 0.050838 -0.099969
C10   C     C_R   0.628922 0.489518 0.922785 0.045137
C11   C     C_R   0.604230 0.548939 0.860344 -0.063559
C12   C     C_R   0.547217 0.500839 0.820000 -0.081655
C13   C     C_R   0.808463 0.039620 0.962334 -0.152960
C14   C     C_R   0.511293 0.397899 0.843786 -0.108785
C15   C     C_R   0.533080 0.341594 0.907409 -0.129191
C16   C     C_R   0.591517 0.387014 0.946713 -0.096612
C17   C     C_R   0.871121 0.989405 0.077175 0.045423
C18   C     C_R   0.895782 0.048885 0.139622 -0.063559
C19   C     C_R   0.952869 0.000839 0.179917 -0.082194
C20   C     C_R   0.988869 0.897857 0.156093 -0.109804
C21   C     C_R   0.967093 0.841468 0.092474 -0.129599
C22   C     C_R   0.908602 0.886862 0.053206 -0.096468
C23   C     C_R   0.126138 0.990963 0.920492 0.044307
C24   C     C_R   0.187579 0.052206 0.034686 -0.138491
C25   C     C_R   0.102136 0.041565 0.855010 -0.054764
C26   C     C_R   0.043889 0.991329 0.817559 -0.072985
C27   C     C_R   0.006917 0.893369 0.846141 -0.102640
C28   C     C_R   0.028537 0.844780 0.911952 -0.123294
C29   C     C_R   0.087454 0.893425 0.949080 -0.099921
C30   C     C_R   0.309867 0.540677 0.039945 -0.029303
C31   C     C_R   0.693743 0.532945 0.962893 -0.025501
C32   C     C_R   0.806279 0.032850 0.037079 -0.025294
C33   C     C_R   0.190138 0.040793 0.960021 -0.029284
C34   C     C_R   0.246689 0.579673 0.074131 0.012342
C35   C     C_R   0.757434 0.569451 0.929022 0.023171
C36   C     C_R   0.742539 0.069323 0.070956 0.023384
C37   C     C_R   0.727295 0.040517 0.145332 0.535047
C38   C     C_R   0.253260 0.079835 0.925838 0.012188
C39   C     C_R   0.190528 0.630979 0.033396 -0.163230
C40   C     C_R   0.815765 0.610941 0.970663 -0.148810
C41   C     C_R   0.684178 0.110790 0.029312 -0.149172
C42   C     C_R   0.309372 0.131204 0.966570 -0.163182
C43   C     C_R   0.192228 0.632167 0.960392 -0.148612
C44   C     C_R   0.812360 0.616534 0.043597 -0.153024
C45   C     C_R   0.687623 0.116470 0.956377 -0.153490
C46   C     C_R   0.307717 0.132325 0.039570 -0.148596
C47   C     C_R   0.253636 0.597044 0.925666 0.014687
C48   C     C_R   0.772700 0.540551 0.854654 0.537124
C49   C     C_R   0.749551 0.586616 0.077430 0.007928
C50   C     C_R   0.750484 0.086620 0.922551 0.007253
C51   C     C_R   0.246378 0.097098 0.074304 0.014640
C52   C     C_R   0.520544 0.726260 0.543327 -0.135928
C53   C     C_R   0.525937 0.722743 0.470455 -0.124937
C54   C     C_R   0.995710 0.219790 0.535434 -0.133086
C55   C     C_R   0.998111 0.220367 0.462523 -0.134332
C56   C     C_R   0.514505 0.828229 0.429396 0.037604
C57   C     C_R   0.499394 0.833520 0.576638 0.033448
C58   C     C_R   0.004947 0.330291 0.425624 0.033758
C59   C     C_R   0.228373 0.543059 0.146511 0.533272
C60   C     C_R   0.992759 0.329479 0.573367 0.036775
C61   C     C_R   0.498529 0.938442 0.462919 -0.131581
C62   C     C_R   0.490222 0.940901 0.536577 -0.127124
C63   C     C_R   0.003813 0.441079 0.462969 -0.131702
C64   C     C_R   0.996506 0.440710 0.536859 -0.128745
C65   C     C_R   0.469454 0.821230 0.856006 0.545599
C66   C     C_R   0.529626 0.822164 0.144516 0.544793
C67   C     C_R   0.970348 0.322153 0.855501 0.545721
C68   C     C_R   0.030525 0.321237 0.144009 0.545007
C69   C     C_R   0.221985 0.732278 0.518423 -0.132985
C70   C     C_3   0.494199 0.713822 0.978778 -0.101116
C71   C     C_R   0.790572 0.692242 0.475980 -0.126424
C72   C     C_R   0.721916 0.229608 0.518426 -0.131580
C73   C     C_R   0.277566 0.232643 0.481804 -0.133682
C74   C     C_R   0.212956 0.701453 0.447331 -0.123507
C75   C     C_R   0.790458 0.685191 0.548939 -0.127628
C76   C     C_R   0.713738 0.200566 0.447134 -0.128676
C77   C     C_R   0.286542 0.201872 0.552920 -0.124700
C78   C     C_R   0.255750 0.610500 0.417554 0.031300
C79   C     C_R   0.745277 0.602126 0.581451 0.034820
C80   C     C_R   0.755651 0.108256 0.417775 0.031192
C81   C     C_3   0.444088 0.774792 0.032288 -0.129888
C82   C     C_R   0.244178 0.110269 0.582474 0.031693
C83   C     C_R   0.315026 0.565967 0.456068 -0.145209
C84   C     C_R   0.690855 0.544430 0.541861 -0.146678
C85   C     C_R   0.813001 0.059061 0.457262 -0.142515
C86   C     C_R   0.185435 0.064651 0.543666 -0.145653
C87   C     C_R   0.324696 0.598315 0.527390 -0.129396
C88   C     C_R   0.690486 0.551961 0.468099 -0.143374
C89   C     C_R   0.822423 0.091037 0.528525 -0.130500
C90   C     C_R   0.176050 0.096403 0.472279 -0.129221
C91   C     C_R   0.274712 0.674647 0.559975 0.030443
C92   C     C_3   0.055945 0.274918 0.967694 -0.129927
C93   C     C_R   0.742632 0.621653 0.434925 0.041833
C94   C     C_R   0.773808 0.170803 0.560291 0.034796
C95   C     C_R   0.225458 0.173985 0.439999 0.031903
C96   C     C_R   0.261180 0.637055 0.852230 0.558465
C97   C     C_R   0.739635 0.634451 0.148917 0.546202
C98   C     C_R   0.760380 0.134450 0.851084 0.554946
C99   C     C_R   0.238829 0.137071 0.147766 0.558260
C100  C     C_R   0.269824 0.049579 0.647215 0.537909
C101  C     C_R   0.730148 0.049304 0.352753 0.546766
C102  C     C_R   0.769169 0.550433 0.648397 0.540260
C103  C     C_3   0.005938 0.213808 0.021160 -0.100931
C104  C     C_R   0.230156 0.549604 0.352819 0.538967
C105  C     C_R   0.470563 0.823919 0.647522 0.538231
C106  C     C_R   0.532668 0.822957 0.354572 0.549083
C107  C     C_R   0.969303 0.323301 0.646568 0.539582
C108  C     C_R   0.030155 0.323515 0.353074 0.537021
C109  C     C_R   0.275633 0.692700 0.636980 0.574871
C110  C     C_R   0.738444 0.643863 0.359296 0.550867
C111  C     C_R   0.775374 0.191654 0.636842 0.573921
C112  C     C_R   0.224417 0.192504 0.363057 0.574446
C113  C     C_3   0.503636 0.946566 0.022576 -0.117974
C114  C     C_R   0.312461 0.552153 0.965288 -0.138509
C115  C     C_3   0.553558 0.885897 0.968237 -0.141632
C116  C     C_3   0.946290 0.385751 0.031838 -0.141850
C117  C     C_3   0.996108 0.446560 0.977544 -0.117910
C118  C     C_3   0.438313 0.888285 0.984114 -0.119082
C119  C     C_3   0.559430 0.772340 0.016344 -0.105252
C120  C     C_3   0.940608 0.272208 0.983641 -0.105145
C121  C     C_3   0.061528 0.388396 0.015955 -0.118950
C122  C     C_3   0.488877 0.827474 0.931452 0.051571
C123  C     C_3   0.508810 0.832106 0.069459 0.059109
C124  C     C_3   0.991126 0.332117 0.930570 0.058880
Cr1   Cr    Cr6+3 0.229630 0.835900 0.747350 1.013982
Cr2   Cr    Cr6+3 0.614200 0.677120 0.250660 0.991134
Cr3   Cr    Cr6+3 0.885800 0.177120 0.749340 0.987753
Cr4   Cr    Cr6+3 0.114200 0.177120 0.250660 0.985920
Cr5   Cr    Cr6+3 0.770370 0.835900 0.252650 1.020435
Cr6   Cr    Cr6+3 0.729630 0.335900 0.747350 1.015662
Cr7   Cr    Cr6+3 0.270370 0.335900 0.252650 1.014237
Cr8   Cr    Cr6+3 0.387410 0.989850 0.750850 1.002538
Cr9   Cr    Cr6+3 0.612590 0.989850 0.249150 1.009912
Cr10  Cr    Cr6+3 0.887410 0.489850 0.750850 1.003505
Cr11  Cr    Cr6+3 0.112590 0.489850 0.249150 1.001039
Cr12  Cr    Cr6+3 0.385800 0.677120 0.749340 0.986914
H1    H     H_    0.387562 0.932667 0.968114 0.134364
H2    H     H_    0.830735 0.735349 0.579170 0.129327
H3    H     H_    0.670267 0.242507 0.416981 0.127358
H4    H     H_    0.330607 0.242430 0.582821 0.131848
H5    H     H_    0.350552 0.499915 0.432900 0.113341
H6    H     H_    0.652561 0.486176 0.567357 0.110560
H7    H     H_    0.846905 0.989592 0.434966 0.114073
H8    H     H_    0.150181 0.998150 0.566661 0.110784
H9    H     H_    0.368305 0.557464 0.557813 0.133436
H10   H     H_    0.650369 0.502691 0.437231 0.111834
H11   H     H_    0.864578 0.047216 0.559523 0.126298
H12   H     H_    0.610504 0.729001 0.031865 0.131001
H13   H     H_    0.133082 0.054263 0.441613 0.128540
H14   H     H_    0.506314 0.041780 0.042126 0.102555
H15   H     H_    0.598158 0.927093 0.939126 0.115441
H16   H     H_    0.901618 0.426804 0.060991 0.114445
H17   H     H_    0.993279 0.541781 0.958073 0.102532
H18   H     H_    0.490860 0.617779 0.960772 0.143708
H19   H     H_    0.397353 0.737680 0.059502 0.114994
H20   H     H_    0.102751 0.237964 0.940445 0.114934
H21   H     H_    0.009399 0.117765 0.039106 0.143684
H22   H     H_    0.361376 0.530764 0.938294 0.129721
H23   H     H_    0.889614 0.228743 0.968086 0.130627
H24   H     H_    0.642458 0.517924 0.064197 0.131881
H25   H     H_    0.857633 0.017909 0.935785 0.131844
H26   H     H_    0.138709 0.030766 0.061695 0.129761
H27   H     H_    0.141497 0.661289 0.057188 0.132471
H28   H     H_    0.866019 0.635818 0.947383 0.131264
H29   H     H_    0.633882 0.135613 0.052589 0.131263
H30   H     H_    0.358351 0.161562 0.942776 0.132598
H31   H     H_    0.145888 0.665819 0.931117 0.144987
H32   H     H_    0.858563 0.649280 0.073483 0.139668
H33   H     H_    0.641404 0.149211 0.926489 0.139972
H34   H     H_    0.112200 0.432885 0.031990 0.134446
H35   H     H_    0.354037 0.166012 0.068836 0.145041
H36   H     H_    0.528549 0.642493 0.572973 0.123681
H37   H     H_    0.540520 0.636716 0.446686 0.133084
H38   H     H_    0.992578 0.132048 0.561491 0.125317
H39   H     H_    0.998757 0.133028 0.435679 0.125176
H40   H     H_    0.491732 0.021409 0.432314 0.127686
H41   H     H_    0.473369 0.024808 0.561437 0.135674
H42   H     H_    0.010100 0.526958 0.435503 0.128862
H43   H     H_    0.992869 0.526457 0.565069 0.130320
H44   H     H_    0.370922 0.619170 0.167606 0.091124
H45   H     H_    0.184887 0.795194 0.541930 0.121398
H46   H     H_    0.472982 0.529215 0.233417 0.124112
H47   H     H_    0.538735 0.355277 0.182518 0.102405
H48   H     H_    0.500305 0.268529 0.065886 0.087012
H49   H     H_    0.396655 0.353086 0.000269 0.094077
H50   H     H_    0.630369 0.630442 0.841793 0.095886
H51   H     H_    0.530575 0.543929 0.770393 0.132068
H52   H     H_    0.466595 0.361803 0.812932 0.105435
H53   H     H_    0.505304 0.261641 0.925806 0.095900
H54   H     H_    0.608439 0.340616 0.995122 0.097862
H55   H     H_    0.869576 0.130413 0.158203 0.094824
H56   H     H_    0.828530 0.753277 0.452063 0.129814
H57   H     H_    0.969506 0.043998 0.229518 0.132414
H58   H     H_    0.033618 0.861794 0.186914 0.104967
H59   H     H_    0.994928 0.761486 0.074045 0.095784
H60   H     H_    0.891702 0.840428 0.004788 0.098011
H61   H     H_    0.128986 0.119206 0.832393 0.091034
H62   H     H_    0.027049 0.029142 0.766525 0.123908
H63   H     H_    0.961470 0.855228 0.817356 0.104076
H64   H     H_    0.999966 0.768598 0.933970 0.087147
H65   H     H_    0.103514 0.853235 0.999632 0.094205
H66   H     H_    0.684729 0.292097 0.541815 0.122879
H67   H     H_    0.314189 0.296475 0.458497 0.121605
H68   H     H_    0.168478 0.741290 0.417676 0.131518
O1    O     O_R   0.214270 0.709000 0.827470 -0.509275
O2    O     O_R   0.543270 0.717630 0.330160 -0.542347
O3    O     O_R   0.956730 0.217630 0.669840 -0.550401
O4    O     O_R   0.043270 0.217630 0.330160 -0.550747
O5    O     O_R   0.320620 0.625640 0.672920 -0.507724
O6    O     O_R   0.679380 0.625640 0.327080 -0.510451
O7    O     O_R   0.820620 0.125640 0.672920 -0.510214
O8    O     O_R   0.179380 0.125640 0.327080 -0.508520
O9    O     O_3   0.334280 0.834290 0.749180 -0.265342
O10   O     O_3   0.665720 0.834290 0.250820 -0.244057
O11   O     O_3   0.834280 0.334290 0.749180 -0.265274
O12   O     O_R   0.785730 0.709000 0.172530 -0.510274
O13   O     O_3   0.165720 0.334290 0.250820 -0.264699
O14   O     O_R   0.236160 0.958490 0.823130 -0.493066
O15   O     O_R   0.763840 0.958490 0.176870 -0.492017
O16   O     O_R   0.736160 0.458490 0.823130 -0.491735
O17   O     O_R   0.263840 0.458490 0.176870 -0.492932
O18   O     O_R   0.332080 0.075470 0.831280 -0.530253
O19   O     O_R   0.667920 0.075470 0.168720 -0.533291
O20   O     O_R   0.832080 0.575470 0.831280 -0.530796
O21   O     O_R   0.167920 0.575470 0.168720 -0.530605
O22   O     O_R   0.446300 0.918110 0.826620 -0.500804
O23   O     O_R   0.714270 0.209000 0.827470 -0.506910
O24   O     O_R   0.553700 0.918110 0.173380 -0.504383
O25   O     O_R   0.946300 0.418110 0.826620 -0.502286
O26   O     O_R   0.053700 0.418110 0.173380 -0.501638
O27   O     O_R   0.457110 0.716200 0.831760 -0.534693
O28   O     O_R   0.542890 0.716200 0.168240 -0.526102
O29   O     O_R   0.957110 0.216200 0.831760 -0.525822
O30   O     O_R   0.042890 0.216200 0.168240 -0.534156
O31   O     O_R   0.320980 0.624310 0.823030 -0.503459
O32   O     O_R   0.679020 0.624310 0.176970 -0.509537
O33   O     O_R   0.820980 0.124310 0.823030 -0.505216
O34   O     O_R   0.285730 0.209000 0.172530 -0.509436
O35   O     O_R   0.179020 0.124310 0.176970 -0.503303
O36   O     O_R   0.213890 0.710430 0.665540 -0.517554
O37   O     O_R   0.786110 0.710430 0.334460 -0.529830
O38   O     O_R   0.713890 0.210430 0.665540 -0.517714
O39   O     O_R   0.286110 0.210430 0.334460 -0.518267
O40   O     O_R   0.235810 0.959820 0.673020 -0.529681
O41   O     O_R   0.764190 0.959820 0.326980 -0.511459
O42   O     O_R   0.735810 0.459820 0.673020 -0.530328
O43   O     O_R   0.264190 0.459820 0.326980 -0.529338
O44   O     O_R   0.331700 0.076900 0.669350 -0.525473
O45   O     O_R   0.445950 0.919440 0.676520 -0.503437
O46   O     O_R   0.668300 0.076900 0.330650 -0.524513
O47   O     O_R   0.831700 0.576900 0.669350 -0.523664
O48   O     O_R   0.168300 0.576900 0.330650 -0.524210
O49   O     O_R   0.554050 0.919440 0.323480 -0.498872
O50   O     O_R   0.945950 0.419440 0.676520 -0.501438
O51   O     O_R   0.054050 0.419440 0.323480 -0.502803
O52   O     O_R   0.456730 0.717630 0.669840 -0.549176

loop_
_geom_bond_atom_site_label_1
_geom_bond_atom_site_label_2
_ccdc_geom_bond_type
C44   C49   A    
C47   C114  A    
C83   C87   A    
C7    C8    A    
C104  O48   A    
C87   C91   A    
C11   H50   S    
C30   C114  A    
C41   C45   A    
C13   C32   A    
C57   C105  S    
C101  O46   A    
C102  O42   A    
C77   H4    S    
Cr11  O48   S    
C108  O4    A    
C30   C34   A    
C101  O41   A    
C67   C124  S    
C85   H7    S    
C62   H41   S    
Cr6   O42   S    
C53   H37   S    
C57   C62   A    
C98   O33   A    
Cr5   O41   S    
C116  C117  S    
Cr4   O35   S    
C73   H67   S    
C26   C27   A    
C28   H64   S    
C63   H42   S    
C74   H68   S    
C6    H46   S    
Cr8   O18   S    
Cr9   O10   S    
C23   C29   A    
C28   C29   A    
C117  C124  S    
Cr2   O2    S    
C40   H28   S    
C9    H49   S    
C3    C116  S    
C92   C124  S    
C42   C46   A    
C5    C6    A    
C109  O36   A    
Cr7   O34   S    
C15   C16   A    
Cr11  O13   S    
Cr12  O31   S    
C66   O28   A    
C94   C111  S    
C89   C94   A    
Cr11  O21   S    
C46   H35   S    
Cr1   O40   S    
C18   C19   A    
C44   H32   S    
Cr10  O25   S    
C42   H30   S    
Cr5   O10   S    
C70   C81   S    
C117  C121  S    
C114  H22   S    
Cr3   O3    S    
C95   C112  S    
C59   O17   A    
C92   C103  S    
C54   C55   A    
C99   O34   A    
Cr1   O9    S    
C78   C83   A    
Cr7   O43   S    
C112  O39   A    
C3    C68   S    
C8    C9    A    
C23   C33   S    
Cr11  O26   S    
C41   H29   S    
C120  H23   S    
C47   C96   S    
Cr9   O24   S    
C79   C102  S    
C1    O14   A    
C71   H56   S    
C118  H1    S    
Cr2   O32   S    
C96   O31   A    
C40   C44   A    
C107  O3    A    
C100  O40   A    
C72   C76   A    
C93   C110  S    
C72   C94   A    
Cr1   O14   S    
C8    H48   S    
C24   C51   A    
C121  H34   S    
C15   H53   S    
C115  C122  S    
C71   C75   A    
C21   C22   A    
Cr4   O30   S    
C54   H38   S    
C106  O49   A    
Cr2   O10   S    
C36   C41   A    
C110  O6    A    
C61   H40   S    
Cr10  O47   S    
C90   H13   S    
C109  O5    A    
C35   C48   S    
C10   C31   S    
C20   H58   S    
C68   O26   A    
Cr8   O45   S    
C2    H24   S    
C51   C99   S    
Cr12  O27   S    
C18   H55   S    
Cr3   O29   S    
C29   H65   S    
C65   O27   A    
C78   C104  S    
C34   C39   A    
C76   C80   A    
C90   C95   A    
C27   H63   S    
Cr10  O50   S    
C92   H20   S    
C86   C90   A    
C50   C98   S    
Cr9   O49   S    
C83   H5    S    
C64   H43   S    
C85   C89   A    
C103  H21   S    
C54   C60   A    
C48   O20   A    
C25   C26   A    
C82   C86   A    
C97   O32   A    
C49   C97   S    
C81   C118  S    
C97   O12   A    
Cr10  O11   S    
C113  C118  S    
C107  O50   A    
Cr8   O44   S    
C2    C31   A    
C22   H60   S    
Cr8   O9    S    
Cr2   O28   S    
C13   C50   A    
C5    H44   S    
C80   C85   A    
C100  O44   A    
C2    C49   A    
Cr8   O22   S    
C14   H52   S    
C70   C122  S    
C113  C123  S    
C84   H6    S    
C70   C119  S    
C113  C115  S    
C104  O43   A    
C56   C106  S    
C14   C15   A    
C17   C18   A    
Cr6   O11   S    
Cr7   O17   S    
C65   C122  S    
C21   H59   S    
Cr6   O16   S    
C60   C107  S    
C55   H39   S    
Cr1   O36   S    
C68   O30   A    
C102  O47   A    
C1    C38   S    
Cr3   O7    S    
C69   C74   A    
C12   C14   A    
Cr6   O23   S    
C19   H57   S    
C37   O19   A    
C115  C119  S    
C10   C11   A    
C108  O51   A    
Cr2   O6    S    
C34   C59   S    
C31   C35   A    
C75   C79   A    
C73   C95   A    
C39   H27   S    
C13   H25   S    
C112  O8    A    
C116  H16   S    
C52   C53   A    
C72   H66   S    
C98   O23   A    
C48   O16   A    
C53   C56   A    
C3    C103  S    
C58   C63   A    
C89   H11   S    
C88   C93   A    
C67   O29   A    
C73   C77   A    
C87   H9    S    
C37   O15   A    
C70   H18   S    
C66   O24   A    
C82   C100  S    
C113  H14   S    
Cr12  O52   S    
C24   H26   S    
C84   C88   A    
C67   O25   A    
C63   C64   A    
C75   H2    S    
C45   H33   S    
C106  O2    A    
C39   C43   A    
C11   C12   A    
C32   C36   A    
Cr3   O33   S    
C6    C7    A    
C71   C93   A    
C119  C123  S    
C111  O38   A    
Cr10  O20   S    
C17   C22   A    
C81   H19   S    
C60   C64   A    
C80   C101  S    
Cr7   O13   S    
Cr4   O13   S    
C91   C109  S    
C19   C20   A    
C35   C40   A    
C119  H12   S    
C99   O35   A    
Cr5   O15   S    
C10   C16   A    
C92   C121  S    
Cr4   O8    S    
C117  H17   S    
C43   H31   S    
C12   H51   S    
C110  O37   A    
Cr3   O11   S    
C96   O1    A    
C79   C84   A    
C26   H62   S    
Cr5   O37   S    
C77   C82   A    
Cr5   O12   S    
C118  C122  S    
Cr6   O38   S    
C16   H54   S    
Cr1   O1    S    
C52   H36   S    
Cr9   O19   S    
C103  C120  S    
C65   O22   A    
C86   H8    S    
C58   C108  S    
C7    H47   S    
C23   C25   A    
C46   C51   A    
C61   C62   A    
C59   O21   A    
C111  O7    A    
Cr12  O9    S    
C81   C123  S    
C25   H61   S    
C52   C57   A    
C105  O45   A    
Cr12  O5    S    
C66   C123  S    
C38   C42   A    
C116  C120  S    
C4    C5    A    
C20   C21   A    
C76   H3    S    
C36   C37   S    
C74   C78   A    
C55   C58   A    
C115  H15   S    
C27   C28   A    
C17   C32   S    
C88   H10   S    
C56   C61   A    
C1    O18   A    
C33   C38   A    
Cr7   O39   S    
C45   C50   A    
Cr4   O4    S    
C105  O52   A    
Cr11  O51   S    
C4    C9    A    
C69   C91   A    
C43   C47   A    
Cr9   O46   S    
C4    C30   S    
C3    C121  S    
C24   C33   A    
C69   H45   S    
C120  C124  S    
