data_mof_unit_55606.cif
_audit_creation_date              2012-12-10T18:52:59-0500
_audit_creation_method            fapswitch 2.2
_symmetry_space_group_name_H-M    P1
_symmetry_Int_Tables_number       1
_space_group_crystal_system       triclinic
_cell_length_a                    9.921509
_cell_length_b                    10.710392
_cell_length_c                    16.807719
_cell_angle_alpha                 91.610407
_cell_angle_beta                  83.964676
_cell_angle_gamma                 90.300448
_cell_volume                      1775.43705417

loop_
_atom_site_label
_atom_site_type_symbol
_atom_type_description
_atom_site_fract_x
_atom_site_fract_y
_atom_site_fract_z
_atom_type_partial_charge
C1    C     C_R   0.500256 0.739872 0.500072 0.859727
C2    C     C_R   0.499747 0.260127 0.499909 0.859013
C3    C     C_R   0.618927 0.937312 0.512752 -0.167698
C4    C     C_R   0.381087 0.062686 0.487200 -0.167831
C5    C     C_R   0.618547 0.065180 0.512951 -0.138806
C6    C     C_R   0.381468 0.934817 0.486996 -0.138640
C7    C     C_R   0.499648 0.127552 0.500101 -0.032295
C8    C     C_R   0.500362 0.872445 0.499858 -0.032299
C9    C     C_R   0.936826 0.429467 0.444846 0.445213
C10   C     C_R   0.063175 0.570520 0.555162 0.445040
C11   C     C_R   0.080891 0.430681 0.443781 -0.143513
C12   C     C_R   0.919109 0.569318 0.556220 -0.143696
C13   C     C_R   0.479670 0.495120 0.652557 0.852067
C14   C     C_R   0.520328 0.504674 0.347437 0.851512
C15   C     C_R   0.462251 0.475357 0.737952 -0.141716
C16   C     C_R   0.537677 0.522980 0.261904 -0.141700
C17   C     C_R   0.537121 0.383089 0.772934 -0.070277
C18   C     C_R   0.463031 0.614721 0.226314 -0.069995
C19   C     C_R   0.518043 0.370482 0.856902 -0.005378
C20   C     C_R   0.481489 0.625382 0.142190 -0.005057
C21   C     C_R   0.432854 0.456982 0.902761 0.081225
C22   C     C_R   0.565864 0.537601 0.096898 0.081295
C23   C     C_R   0.353085 0.540667 0.866628 -0.121950
C24   C     C_R   0.645377 0.454365 0.133562 -0.121501
C25   C     C_R   0.366525 0.548757 0.784467 -0.130007
C26   C     C_R   0.632544 0.448137 0.215812 -0.130136
C27   C     C_2   0.441046 0.476447 0.987737 -0.273391
C28   C     C_2   0.557791 0.517093 0.012003 -0.273492
H1    H     H_    0.691085 0.379399 0.243330 0.207252
H2    H     H_    0.307696 0.617792 0.757409 0.207238
H3    H     H_    0.649265 0.523402 0.970535 0.194657
H4    H     H_    0.349551 0.470350 0.029206 0.194740
H5    H     H_    0.286484 0.605307 0.902410 0.158431
H6    H     H_    0.711394 0.388768 0.098192 0.158762
H7    H     H_    0.711374 0.889801 0.523058 0.157263
H8    H     H_    0.288640 0.110199 0.476896 0.157255
H9    H     H_    0.710785 0.114737 0.523496 0.183585
H10   H     H_    0.289233 0.885257 0.476448 0.183555
N1    N     N_R   0.142790 0.500030 0.500020 -0.180144
N2    N     N_R   0.857210 0.499970 0.499980 -0.180142
O1    O     O_R   0.385380 0.683250 0.500010 -0.584721
O2    O     O_R   0.614620 0.316750 0.499990 -0.585046
O3    O     O_R   0.614710 0.683220 0.500000 -0.657681
O4    O     O_R   0.385290 0.316780 0.500000 -0.657608
O5    O     O_R   0.371780 0.500040 0.615800 -0.550905
O6    O     O_R   0.628220 0.499960 0.384200 -0.550863
O7    O     O_R   0.601110 0.500010 0.615800 -0.642646
O8    O     O_R   0.398890 0.499990 0.384200 -0.642512
Zn1   Zn    Zn3+2 0.346870 0.500020 0.500000 1.000989
Zn2   Zn    Zn3+2 0.653130 0.499980 0.500000 1.000877
C29   C     C_2   0.635192 0.303512 0.721475 0.560979
H11   H     H_    0.609435 0.267624 0.664004 0.022568
O9    O     O_2   0.747561 0.282106 0.741246 -0.507154
C30   C     C_2   0.365799 0.695717 0.277361 0.560291
H12   H     H_    0.391916 0.732023 0.334666 0.022201
O10   O     O_2   0.253664 0.717846 0.257494 -0.507220
C31   C     C_2   0.420712 0.729238 0.100541 0.485404
H13   H     H_    0.402386 0.718517 0.038273 0.074217
O11   O     O_2   0.397550 0.830833 0.133770 -0.516359
C32   C     C_2   0.579113 0.265960 0.897810 0.484228
H14   H     H_    0.596067 0.275178 0.960365 0.075090
O12   O     O_2   0.604049 0.165397 0.863588 -0.516369
Cl1   Cl    Cl    0.858195 0.329257 0.378679 -0.553407
Cl2   Cl    Cl    0.141812 0.670680 0.621360 -0.552798
C33   C     C_2   0.163844 0.358115 0.380682 0.569042
H15   H     H_    0.247704 0.302369 0.394738 0.076427
O13   O     O_2   0.140406 0.361750 0.310911 -0.510756
C34   C     C_2   0.836156 0.641888 0.619316 0.569433
H16   H     H_    0.752308 0.697645 0.605255 0.076470
O14   O     O_2   0.859581 0.638248 0.689089 -0.510338

loop_
_geom_bond_atom_site_label_1
_geom_bond_atom_site_label_2
_ccdc_geom_bond_type
O4    Zn1   S    
C12   N2    A    
C11   N1    A    
C6    H10   S    
O3    Zn2   S    
C9    N2    A    
C5    H9    S    
C19   C32   S    
C1    C8    S    
C9    C11   A    
C3    H7    S    
O6    Zn2   S    
C18   C20   A    
C2    C7    S    
O5    Zn1   S    
C2    O2    A    
C13   O7    A    
C17   C29   S    
C13   C15   S    
C21   C27   S    
C5    C7    A    
C32   H14   S    
C14   O6    A    
C16   C18   A    
C22   C28   S    
C2    O4    A    
C13   O5    A    
C12   C34   S    
C31   H13   S    
C10   C12   A    
O2    Zn2   S    
C4    C7    A    
N2    Zn2   S    
C22   C24   A    
C1    O1    A    
O8    Zn1   S    
C19   C21   A    
C20   C22   A    
C3    C8    A    
O7    Zn2   S    
C30   O10   D    
C21   C23   A    
C16   C26   A    
C14   C16   S    
C31   O11   D    
C4    C6    A    
C15   C25   A    
C18   C30   S    
C29   O9    D    
C17   C19   A    
C29   H11   S    
C3    C5    A    
C27   C28   D    
C23   C25   A    
C4    H8    S    
C23   H5    S    
C26   H1    S    
C32   O12   D    
C33   H15   S    
O1    Zn1   S    
C25   H2    S    
C15   C17   A    
C34   O14   D    
C14   O8    A    
C30   H12   S    
C10   N1    A    
C6    C8    A    
N1    Zn1   S    
C27   H4    S    
C9    Cl1   S    
C20   C31   S    
C1    O3    A    
C28   H3    S    
C10   Cl2   S    
C11   C33   S    
C24   C26   A    
C34   H16   S    
C33   O13   D    
C24   H6    S    
