data_mof_unit_30649.cif
_audit_creation_date              2013-03-05T15:58:07-0500
_audit_creation_method            fapswitch 2.2
_symmetry_space_group_name_H-M    P1
_symmetry_Int_Tables_number       1
_space_group_crystal_system       triclinic
_cell_length_a                    15.068892
_cell_length_b                    13.684549
_cell_length_c                    10.870667
_cell_angle_alpha                 89.957792
_cell_angle_beta                  89.854743
_cell_angle_gamma                 89.674019
_cell_volume                      2241.60694517

loop_
_atom_site_label
_atom_site_type_symbol
_atom_site_description
_atom_site_fract_x
_atom_site_fract_y
_atom_site_fract_z
_atom_type_partial_charge
O1    O     O_R   0.370250 0.582280 0.500040 -0.582112
O2    O     O_R   0.370250 0.417720 0.500040 -0.588777
C1    C     C_R   0.328932 0.500260 0.497238 0.800991
O3    O     O_R   0.499970 0.582270 0.317700 -0.532525
O4    O     O_R   0.499970 0.417730 0.317700 -0.530930
C2    C     C_R   0.498166 0.499838 0.260167 0.812718
Cu1   Cu    Cu3+1 0.499990 0.597420 0.500010 0.957784
Cu2   Cu    Cu3+1 0.499990 0.402580 0.500010 0.952874
O5    O     O_R   0.629730 0.582260 0.499980 -0.592905
O6    O     O_R   0.629730 0.417740 0.499980 -0.596513
O7    O     O_R   0.500000 0.582270 0.682320 -0.582907
O8    O     O_R   0.500000 0.417730 0.682320 -0.589473
C3    C     C_R   0.671282 0.499843 0.496851 0.809008
C4    C     C_R   0.492909 0.499734 0.740426 0.820798
C5    C     C_3   0.434029 0.582458 0.077102 0.380406
C6    C     C_3   0.453288 0.402186 0.075609 0.375695
H1    H     H_    0.366344 0.569992 0.115471 0.040308
H2    H     H_    0.382726 0.400897 0.106476 0.044118
C7    C     C_3   0.427499 0.581236 0.934539 -0.150050
C8    C     C_3   0.454371 0.397811 0.932465 -0.120571
H3    H     H_    0.358238 0.560120 0.913621 0.109275
H4    H     H_    0.383956 0.391550 0.902491 0.108375
H5    H     H_    0.610861 0.585485 0.888522 0.168439
H6    H     H_    0.629803 0.458420 0.884032 0.165879
C9    C     C_3   0.593906 0.511055 0.068051 0.340038
C10   C     C_3   0.496809 0.499145 0.123086 -0.095961
C11   C     C_3   0.490422 0.498518 0.879406 -0.058170
C12   C     C_3   0.586391 0.514773 0.925345 -0.378120
C13   C     C_R   0.814650 0.496901 0.389917 -0.314537
C14   C     C_R   0.768089 0.500164 0.500530 -0.062336
C15   C     C_R   0.813193 0.506695 0.613289 0.143634
C16   C     C_R   0.905856 0.523788 0.613324 0.095738
C17   C     C_R   0.953420 0.510329 0.501334 -0.057935
C18   C     C_R   0.907582 0.496328 0.388733 0.119134
C19   C     C_R   0.953276 0.553423 0.720082 0.177109
C20   C     C_R   0.045796 0.549750 0.719428 -0.221991
C21   C     C_R   0.093659 0.525125 0.612989 0.071272
C22   C     C_R   0.047027 0.509868 0.501981 0.015310
C23   C     C_R   0.094082 0.492997 0.391663 0.077983
C24   C     C_R   0.048594 0.480583 0.281079 -0.195864
C25   C     C_R   0.955847 0.482716 0.277839 0.199206
C26   C     C_R   0.187332 0.518513 0.614151 0.148431
C27   C     C_R   0.232684 0.501327 0.502514 -0.037415
C28   C     C_R   0.186474 0.489140 0.392798 -0.282932
H7    H     H_    0.777372 0.491838 0.305448 0.153203
H8    H     H_    0.080056 0.569468 0.803079 0.163561
H9    H     H_    0.222991 0.476954 0.307903 0.127679
H10   H     H_    0.085771 0.468723 0.196762 0.140316
C29   C     C_R   0.434261 0.794543 0.558454 0.013316
C30   C     C_R   0.435548 0.206333 0.561327 -0.004974
N1    N     N_R   0.499930 0.743810 0.499950 -0.188003
N2    N     N_R   0.499930 0.256190 0.499950 -0.190004
C31   C     C_R   0.565215 0.791788 0.437532 0.076768
C32   C     C_R   0.563732 0.207555 0.434628 0.089639
C33   C     C_R   0.568394 0.895543 0.434015 -0.063371
C34   C     C_R   0.566100 0.103817 0.429609 -0.066282
C35   C     C_R   0.501304 0.948281 0.496240 0.038922
C36   C     C_R   0.501260 0.051824 0.496224 0.039356
C37   C     C_R   0.434024 0.897268 0.559692 0.026520
C38   C     C_R   0.434778 0.103587 0.561403 0.026747
C39   C     C_R   0.636025 0.947267 0.370122 0.181203
C40   C     C_R   0.630771 0.051363 0.360081 0.178734
C41   C     C_R   0.368617 0.051909 0.624533 -0.193644
C42   C     C_R   0.367969 0.949643 0.623143 -0.192789
H11   H     H_    0.381406 0.754991 0.603209 0.121507
H12   H     H_    0.384795 0.246767 0.610621 0.127084
H13   H     H_    0.613476 0.748129 0.388356 0.145809
H14   H     H_    0.613056 0.250713 0.387556 0.150450
H15   H     H_    0.317116 0.090646 0.674690 0.137556
H16   H     H_    0.316042 0.911438 0.672376 0.136182
F1    F     F_    0.458945 0.673202 0.121831 -0.647843
F2    F     F_    0.491578 0.319654 0.128240 -0.656304
C43   C     C_3   0.237867 0.527625 0.733766 -0.936443
H17   H     H_    0.309164 0.510333 0.723845 0.218582
H18   H     H_    0.231703 0.603352 0.769510 0.232407
H19   H     H_    0.211382 0.475176 0.802476 0.226435
C44   C     C_3   0.910403 0.467921 0.155850 -0.918449
H20   H     H_    0.958765 0.458505 0.079413 0.234684
H21   H     H_    0.869022 0.401161 0.159921 0.237979
H22   H     H_    0.868266 0.532439 0.134134 0.232566
C45   C     C_3   0.714850 0.891210 0.318203 -0.880733
H23   H     H_    0.772826 0.938030 0.298459 0.245170
H24   H     H_    0.739767 0.837894 0.387163 0.221379
H25   H     H_    0.695048 0.851865 0.233382 0.238191
C46   C     C_3   0.690099 0.106417 0.271097 -0.870782
H26   H     H_    0.717748 0.059281 0.197486 0.244199
H27   H     H_    0.651085 0.162476 0.220451 0.247506
H28   H     H_    0.744786 0.142218 0.321960 0.226956
C47   C     C_3   0.436746 0.685391 0.881285 -0.651717
H29   H     H_    0.506983 0.708859 0.876763 0.241876
H30   H     H_    0.405580 0.689591 0.789707 0.200538
H31   H     H_    0.398742 0.739086 0.937364 0.252625
C48   C     C_3   0.499466 0.302082 0.885608 -0.651613
H32   H     H_    0.572415 0.308386 0.877791 0.218159
H33   H     H_    0.483844 0.238653 0.945248 0.261835
H34   H     H_    0.471965 0.279352 0.796082 0.209834
C49   C     C_3   0.641531 0.605201 0.112826 -0.769829
H35   H     H_    0.608376 0.672859 0.080726 0.279430
H36   H     H_    0.647719 0.607040 0.214435 0.226121
H37   H     H_    0.709988 0.608193 0.074628 0.196686
C50   C     C_3   0.655568 0.424466 0.105545 -0.788483
H38   H     H_    0.724383 0.437514 0.073077 0.204156
H39   H     H_    0.657285 0.414748 0.206787 0.226855
H40   H     H_    0.635642 0.354563 0.063323 0.274181
C51   C     C_3   0.764262 0.480388 0.729599 -0.895826
H41   H     H_    0.807646 0.438611 0.793148 0.240107
H42   H     H_    0.737858 0.547515 0.773299 0.230283
H43   H     H_    0.708636 0.430082 0.710424 0.232322
C52   C     C_3   0.909765 0.602194 0.829830 -0.877395
H44   H     H_    0.854848 0.650842 0.799670 0.241924
H45   H     H_    0.886095 0.547322 0.897021 0.236554
H46   H     H_    0.957224 0.649897 0.879344 0.227896

loop_
_geom_bond_atom_site_label_1
_geom_bond_atom_site_label_2
_geom_bond_distance
_ccdc_geom_bond_type
C8    C48   1.557714 S    
C48   H32   1.106172 S    
C15   C51   1.506480 S    
C43   H17   1.103830 S    
C19   C20   1.394800 A    
C6    F2    1.388929 S    
C45   H25   1.110447 S    
C49   H35   1.106247 S    
Cu1   Cu2   2.666296 S    
C2    C10   1.490395 S    
C44   H20   1.110917 S    
C9    C12   1.556490 S    
C5    C7    1.553232 S    
C51   H42   1.106051 S    
C1    C27   1.451319 S    
C37   C42   1.403342 A    
C50   H38   1.109916 S    
C29   H11   1.080077 S    
C38   C41   1.403167 A    
C20   C21   1.402192 A    
C7    H3    1.108701 S    
C21   C22   1.414181 A    
C52   H45   1.107026 S    
C25   C44   1.508324 S    
C14   C15   1.406248 A    
O7    C4    1.298490 A    
C35   C37   1.412363 A    
C32   H14   1.079680 S    
C36   C38   1.412979 A    
C24   H10   1.084837 S    
C21   C26   1.414010 A    
O5    C3    1.287298 A    
C49   H36   1.109039 S    
C41   H15   1.083585 S    
C29   N1    1.362104 A    
C30   N2    1.362153 A    
C20   H8    1.081923 S    
C42   H16   1.083599 S    
C4    C11   1.511261 S    
C47   H30   1.103128 S    
C7    C11   1.589171 S    
Cu2   N2    2.003287 S    
C19   C52   1.513573 S    
C28   H9    1.085761 S    
Cu2   O8    1.992798 S    
C31   C33   1.421411 A    
C48   H33   1.108993 S    
C43   H18   1.110328 S    
C18   C25   1.418170 A    
O3    Cu1   1.992799 S    
C45   H24   1.110298 S    
N2    C32   1.364356 A    
C45   H23   1.106807 S    
C44   H21   1.109822 S    
C6    C10   1.571491 S    
C22   C23   1.410134 A    
C51   H43   1.107995 S    
C32   C34   1.420935 A    
C46   H27   1.110458 S    
C16   C19   1.424804 A    
C3    C14   1.459448 S    
O3    C2    1.290682 A    
C52   H46   1.111337 S    
C23   C24   1.396280 A    
C5    C10   1.560122 S    
C9    C10   1.588523 S    
C46   H26   1.107249 S    
C13   C18   1.400392 A    
C13   H7    1.080113 S    
O1    C1    1.287039 A    
Cu1   O7    1.992494 S    
C27   C28   1.393206 A    
C13   C14   1.391247 A    
C7    C47   1.544898 S    
C15   C16   1.417107 A    
C6    C8    1.557305 S    
C17   C18   1.420653 A    
H5    C12   1.111436 S    
C47   H31   1.110687 S    
C30   H12   1.082478 S    
C9    C49   1.557240 S    
C24   C25   1.398276 A    
C8    H4    1.114554 S    
C50   H40   1.104772 S    
C33   C35   1.410466 A    
C43   H19   1.110527 S    
C34   C40   1.423133 A    
C26   C27   1.410502 A    
C49   H37   1.111988 S    
C50   H39   1.108818 S    
C46   H28   1.110017 S    
C5    H1    1.114926 S    
C26   C43   1.514118 S    
O1    Cu1   1.967156 S    
Cu2   O6    1.967188 S    
O2    Cu2   1.964812 S    
H6    C12   1.103458 S    
O8    C4    1.291912 A    
O6    C3    1.289733 A    
O4    Cu2   1.992494 S    
C23   C28   1.393028 A    
C8    C11   1.591473 S    
C48   H34   1.104344 S    
C5    F1    1.387994 S    
C51   H41   1.108561 S    
C17   C22   1.410569 A    
C29   C37   1.405798 A    
C30   C38   1.406144 A    
C16   C17   1.422706 A    
O2    C1    1.287038 A    
Cu1   N1    2.003276 S    
C39   C45   1.518147 S    
C52   H44   1.109172 S    
C44   H22   1.110173 S    
C9    C50   1.556359 S    
C35   C36   1.416936 A    
O4    C2    1.285720 A    
C33   C39   1.423342 A    
C34   C36   1.410260 A    
C39   C40   1.430371 A    
C31   H13   1.079418 S    
C41   C42   1.399644 A    
Cu1   O5    1.964841 S    
C6    H2    1.114404 S    
C11   C12   1.548455 S    
C40   C46   1.518147 S    
N1    C31   1.364759 A    
C47   H29   1.108753 S    
