data_mof_unit_42315.cif
_audit_creation_date              2012-12-11T15:54:42-0500
_audit_creation_method            fapswitch 2.2
_symmetry_space_group_name_H-M    P1
_symmetry_Int_Tables_number       1
_space_group_crystal_system       triclinic
_cell_length_a                    6.964239
_cell_length_b                    14.494442
_cell_length_c                    16.190745
_cell_angle_alpha                 90.093519
_cell_angle_beta                  89.74174
_cell_angle_gamma                 89.563733
_cell_volume                      1634.27220946

loop_
_atom_site_label
_atom_site_type_symbol
_atom_type_description
_atom_site_fract_x
_atom_site_fract_y
_atom_site_fract_z
_atom_type_partial_charge
O1    O     O_R   0.638180 0.333920 0.163320 -0.552266
O2    O     O_R   0.361820 0.666080 0.836680 -0.552143
O3    O     O_R   0.308470 0.344960 0.336080 -0.551564
O4    O     O_R   0.691530 0.655040 0.663920 -0.549450
O5    O     O_R   0.138140 0.166110 0.336680 -0.540842
O6    O     O_R   0.861860 0.833890 0.663320 -0.539982
C1    C     C_R   0.476121 0.367832 0.364425 0.698541
C2    C     C_R   0.523751 0.631968 0.635750 0.704131
O7    O     O_R   0.308460 0.344950 0.163930 -0.533037
O8    O     O_R   0.691540 0.655050 0.836070 -0.532510
O9    O     O_R   0.138140 0.166100 0.163310 -0.542625
O10   O     O_R   0.861860 0.833900 0.836690 -0.547529
C3    C     C_R   0.478459 0.369872 0.137284 0.721449
C4    C     C_R   0.522046 0.635020 0.866548 0.718461
O11   O     O_R   0.638180 0.333930 0.336700 -0.545637
O12   O     O_R   0.361820 0.666070 0.663300 -0.543995
O13   O     O_3   0.471670 0.191340 0.250000 -0.364138
O14   O     O_3   0.528330 0.808660 0.750000 -0.365866
V1    V     V_3+5 0.196830 0.260900 0.250000 1.414556
V2    V     V_3+5 0.803170 0.739100 0.750000 1.409453
O15   O     O_R   0.808420 0.155070 0.163920 -0.531680
O16   O     O_R   0.191580 0.844930 0.836080 -0.532326
C5    C     C_R   0.978863 0.132296 0.135661 0.753898
C6    C     C_R   0.021135 0.867674 0.864358 0.749769
O17   O     O_R   0.808420 0.155080 0.336070 -0.521336
O18   O     O_R   0.191580 0.844920 0.663930 -0.522779
C7    C     C_R   0.977714 0.132187 0.363888 0.805368
C8    C     C_R   0.022377 0.867873 0.636168 0.809024
V3    V     V_3+5 0.696830 0.239130 0.250000 1.441555
V4    V     V_3+5 0.303170 0.760870 0.750000 1.435998
O19   O     O_3   0.971850 0.308690 0.250010 -0.386195
O20   O     O_3   0.028150 0.691310 0.749990 -0.383086
C9    C     C_R   0.105246 0.186413 0.524091 -0.244032
C10   C     C_R   0.905833 0.812163 0.474801 -0.284241
C11   C     C_R   0.174678 0.218119 0.599239 0.216432
C12   C     C_R   0.841947 0.779902 0.398594 0.216705
C13   C     C_R   0.184062 0.158006 0.666778 0.287280
C14   C     C_R   0.827579 0.840357 0.332103 0.329253
C15   C     C_R   0.113281 0.066712 0.659034 0.212881
C16   C     C_R   0.890148 0.932899 0.340427 0.191249
C17   C     C_R   0.060924 0.031128 0.579786 0.009626
C18   C     C_R   0.941267 0.968535 0.419858 0.012755
C19   C     C_R   0.053006 0.093294 0.511619 -0.058193
C20   C     C_R   0.951112 0.906099 0.487887 -0.040463
C21   C     C_R   0.010687 0.936627 0.567410 -0.100984
C22   C     C_R   0.990139 0.063203 0.432445 -0.100838
H1    H     H_    0.096666 0.236753 0.475033 0.139429
H2    H     H_    0.918161 0.762087 0.523902 0.124431
C23   C     C_R   0.163160 0.945349 0.986939 -0.131846
C24   C     C_R   0.836760 0.054504 0.013156 -0.137912
H3    H     H_    0.290039 0.902565 0.978461 0.143934
H4    H     H_    0.709861 0.097269 0.021641 0.144151
C25   C     C_R   0.158254 0.007447 0.053289 0.202517
C26   C     C_R   0.841660 0.992403 0.946811 0.201480
C27   C     C_R   0.992649 0.063550 0.067133 -0.170481
C28   C     C_R   0.007311 0.936346 0.932933 -0.169031
C29   C     C_R   0.334131 0.500414 0.450587 0.222925
C30   C     C_R   0.664749 0.498736 0.550165 0.196065
C31   C     C_R   0.351807 0.562591 0.516329 -0.125421
C32   C     C_R   0.647234 0.436621 0.484354 -0.120903
H5    H     H_    0.236267 0.611753 0.527062 0.134663
H6    H     H_    0.762807 0.387489 0.473587 0.134346
C33   C     C_R   0.515226 0.563376 0.566984 -0.157567
C34   C     C_R   0.484058 0.436009 0.433547 -0.129475
C35   C     C_R   0.327214 0.490447 0.044772 0.425245
C36   C     C_R   0.673397 0.548621 0.985542 0.427605
C37   C     C_R   0.332072 0.536938 0.969096 0.153334
C38   C     C_R   0.669554 0.472115 0.038192 0.156546
C39   C     C_R   0.509004 0.571543 0.939355 -0.369378
C40   C     C_R   0.492301 0.443337 0.072348 -0.369397
O21   O     O_3   0.752414 0.806680 0.259312 -0.627351
H7    H     H_    0.693982 0.858534 0.228256 0.303561
O22   O     O_3   0.262053 0.189847 0.739684 -0.652775
H8    H     H_    0.316567 0.136821 0.770482 0.305516
N1    N     N_3   0.154956 0.552018 0.927252 -0.529254
H9    H     H_    0.126683 0.622779 0.926092 0.276419
H10   H     H_    0.166374 0.526067 0.867124 0.226239
N2    N     N_3   0.847958 0.430115 0.059699 -0.524999
H11   H     H_    0.868412 0.437918 0.123172 0.279622
H12   H     H_    0.845585 0.360315 0.043375 0.219964
N3    N     N_3   0.238546 0.312145 0.604335 -0.653129
H13   H     H_    0.292681 0.327765 0.662689 0.276705
H14   H     H_    0.118912 0.354932 0.595603 0.246365
N4    N     N_3   0.787833 0.685088 0.388027 -0.605961
H15   H     H_    0.886419 0.654678 0.347194 0.262283
H16   H     H_    0.799867 0.649114 0.443680 0.223123
O23   O     O_3   0.086630 0.013709 0.728791 -0.661424
H17   H     H_    0.058673 0.054733 0.776436 0.285241
O24   O     O_3   0.910605 0.987063 0.271025 -0.660000
H18   H     H_    0.941673 0.947107 0.223005 0.283702
N5    N     N_3   0.322332 0.009438 0.106368 -0.656866
H19   H     H_    0.277482 0.000207 0.167482 0.244873
H20   H     H_    0.390002 0.073141 0.100248 0.248741
N6    N     N_3   0.677521 0.990372 0.893768 -0.658552
H21   H     H_    0.722284 0.999645 0.832648 0.245500
H22   H     H_    0.609950 0.926643 0.899891 0.246929
N7    N     N_3   0.163755 0.506628 0.401568 -0.680157
H23   H     H_    0.202563 0.514681 0.339560 0.230598
H24   H     H_    0.084652 0.446229 0.408982 0.246300
N8    N     N_3   0.834963 0.492591 0.599258 -0.681789
H25   H     H_    0.795988 0.484872 0.661278 0.239237
H26   H     H_    0.914390 0.552859 0.591641 0.242313
O25   O     O_3   0.171129 0.505173 0.095074 -0.598051
H27   H     H_    0.214132 0.504193 0.153353 0.282063
O26   O     O_3   0.828211 0.606201 0.990570 -0.600291
H28   H     H_    0.785111 0.670212 0.979062 0.279395

loop_
_geom_bond_atom_site_label_1
_geom_bond_atom_site_label_2
_ccdc_geom_bond_type
C36   C38   A    
O23   H17   S    
O13   V3    S    
O22   H8    S    
C15   O23   S    
C6    C28   S    
O4    C2    A    
V1    O19   S    
N7    H23   S    
C11   N3    S    
C15   C17   A    
O9    V1    S    
C24   C26   A    
C11   C13   A    
N4    H16   S    
O3    C1    A    
C9    C11   A    
N2    H12   S    
C29   C31   A    
C36   C39   A    
C3    C40   S    
O12   V4    S    
C35   C40   A    
C32   H6    S    
C18   C22   A    
O7    C3    A    
N7    H24   S    
O5    C7    A    
O7    V1    S    
O6    C8    A    
O8    V2    S    
C35   C37   A    
C25   N5    S    
C24   H4    S    
O3    V1    S    
O14   V4    S    
C16   O24   S    
C10   C12   A    
C16   C18   A    
C2    O12   A    
C14   C16   A    
C38   N2    S    
C17   C19   A    
C18   C20   A    
N8    H26   S    
N3    H14   S    
O11   V3    S    
C25   C27   A    
O17   V3    S    
C26   C28   A    
C8    C21   S    
C31   H5    S    
C9    C19   A    
C30   N8    S    
N4    H15   S    
O8    C4    A    
N5    H19   S    
N2    H11   S    
C1    O11   A    
C23   H3    S    
O15   V3    S    
N3    H13   S    
C37   C39   A    
O1    C3    A    
N1    H9    S    
N5    H20   S    
C29   N7    S    
O10   V2    S    
O1    V3    S    
C10   C20   A    
N6    H22   S    
N1    H10   S    
C7    C22   S    
C38   C40   A    
O18   V4    S    
O15   C5    A    
C9    H1    S    
C4    C39   S    
O16   C6    A    
C37   N1    S    
C35   O25   S    
C36   O26   S    
C20   C21   A    
C29   C34   A    
V2    O20   S    
C30   C33   A    
C13   O22   S    
C14   O21   S    
O16   V4    S    
O18   C8    A    
C5    C27   S    
O5    V1    S    
O17   C7    A    
C23   C28   A    
O6    V2    S    
O26   H28   S    
O10   C6    A    
C31   C33   A    
C24   C27   A    
O2    V4    S    
C32   C34   A    
C12   C14   A    
O21   H7    S    
C13   C15   A    
V4    O20   S    
C12   N4    S    
C23   C25   A    
O9    C5    A    
N8    H25   S    
O13   V1    S    
O14   V2    S    
N6    H21   S    
O2    C4    A    
C19   C22   A    
C1    C34   S    
C26   N6    S    
C2    C33   S    
O4    V2    S    
C10   H2    S    
V3    O19   S    
O25   H27   S    
C17   C21   A    
O24   H18   S    
C30   C32   A    
