data_mof_unit_40031.cif
_audit_creation_date              2012-12-10T17:32:21-0500
_audit_creation_method            fapswitch 2.2
_symmetry_space_group_name_H-M    P1
_symmetry_Int_Tables_number       1
_space_group_crystal_system       triclinic
_cell_length_a                    12.294769
_cell_length_b                    13.112156
_cell_length_c                    14.991241
_cell_angle_alpha                 78.95531
_cell_angle_beta                  100.282275
_cell_angle_gamma                 116.109973
_cell_volume                      2117.7316741

loop_
_atom_site_label
_atom_site_type_symbol
_atom_type_description
_atom_site_fract_x
_atom_site_fract_y
_atom_site_fract_z
_atom_type_partial_charge
C1    C     C_R   0.854666 0.286330 0.508700 0.779848
C2    C     C_R   0.111855 0.583394 0.095724 0.063581
C3    C     C_R   0.800372 0.355755 0.042876 -0.179717
C4    C     C_R   0.798835 0.355101 0.950024 -0.178386
C5    C     C_R   0.900592 0.429803 0.904606 0.124898
C6    C     C_R   0.005771 0.506395 0.952807 0.064215
C7    C     C_R   0.108837 0.582002 0.907041 0.061440
C8    C     C_R   0.212611 0.658246 0.956028 -0.042942
C9    C     C_R   0.213334 0.658216 0.049247 -0.198457
C10   C     C_R   0.898917 0.428936 0.811666 -0.207864
C11   C     C_R   0.000129 0.503656 0.766606 -0.045750
C12   C     C_R   0.999209 0.500435 0.670650 0.810959
C13   C     C_R   0.104784 0.578878 0.813538 -0.211012
C14   C     C_R   0.264670 0.034994 0.436270 -0.024743
C15   C     C_R   0.227300 0.835665 0.479908 -0.056198
C16   C     C_R   0.813836 0.088565 0.577267 -0.234717
C17   C     C_R   0.733240 0.981453 0.613728 -0.017495
C18   C     C_R   0.606748 0.945921 0.591475 -0.064163
C19   C     C_R   0.561415 0.014862 0.523139 0.029663
C20   C     C_R   0.645312 0.124383 0.487737 0.066518
C21   C     C_R   0.435363 0.982251 0.491789 0.059844
C22   C     C_R   0.392391 0.065695 0.446619 0.063814
C23   C     C_R   0.144988 0.713537 0.488307 0.844071
C24   C     C_R   0.478432 0.171501 0.408129 -0.061978
C25   C     C_R   0.601237 0.193614 0.421955 -0.217951
C26   C     C_R   0.352330 0.867453 0.497307 -0.201843
C27   C     C_R   0.183648 0.920215 0.454668 -0.190390
C28   C     C_R   0.771078 0.163505 0.519882 -0.100198
C29   C     C_R   0.345521 0.326299 0.643579 -0.256215
C30   C     C_R   0.748764 0.633739 0.368442 0.356578
C31   C     C_R   0.641463 0.645769 0.334004 -0.236530
C32   C     C_R   0.539041 0.588363 0.380049 -0.174314
C33   C     C_R   0.544014 0.522015 0.464368 -0.025299
C34   C     C_R   0.002828 0.502177 0.329245 0.854790
C35   C     C_R   0.655029 0.510364 0.497754 0.188389
C36   C     C_R   0.443166 0.467583 0.517745 -0.025608
C37   C     C_R   0.447443 0.386153 0.593952 0.084301
C38   C     C_R   0.557226 0.373442 0.621855 -0.111418
C39   C     C_R   0.663824 0.458383 0.587707 0.136706
C40   C     C_R   0.339711 0.492519 0.499860 0.077725
C41   C     C_R   0.245963 0.354235 0.622119 0.093350
C42   C     C_R   0.111469 0.583329 0.189744 0.097616
C43   C     C_R   0.007772 0.505473 0.232980 -0.076667
C44   C     C_R   0.904905 0.431203 0.184118 -0.252782
C45   C     C_R   0.903794 0.431012 0.091412 0.118493
C46   C     C_R   0.007410 0.506902 0.046742 0.033139
Cu1   Cu    Cu3+1 0.098270 0.475420 0.521130 0.974442
Cu2   Cu    Cu3+1 0.901730 0.524580 0.478870 0.987525
H1    H     H_    0.385368 0.801610 0.510258 0.171335
H2    H     H_    0.910172 0.117321 0.600642 0.163708
H3    H     H_    0.662326 0.267201 0.381066 0.166268
H4    H     H_    0.168614 0.309691 0.661339 0.125851
H5    H     H_    0.344192 0.261776 0.701040 0.157072
H6    H     H_    0.825690 0.372852 0.218937 0.140907
H7    H     H_    0.333235 0.557317 0.445721 0.139954
H8    H     H_    0.457401 0.597675 0.348492 0.173802
H9    H     H_    0.637332 0.700615 0.270741 0.179317
H10   H     H_    0.720630 0.297296 0.076818 0.156007
H11   H     H_    0.718024 0.296143 0.913786 0.177808
H12   H     H_    0.819731 0.369642 0.774230 0.154774
H13   H     H_    0.182125 0.635080 0.776239 0.157983
H14   H     H_    0.294646 0.717359 0.084623 0.185737
H15   H     H_    0.086450 0.896613 0.445915 0.180013
N1    N     N_R   0.246280 0.438190 0.553160 -0.185846
N2    N     N_R   0.754320 0.561190 0.447410 -0.216523
O1    O     O_R   0.972510 0.318130 0.526570 -0.582061
O2    O     O_R   0.806530 0.359650 0.490890 -0.594608
O3    O     O_R   0.082980 0.479210 0.647590 -0.586083
O4    O     O_R   0.917000 0.520730 0.611900 -0.558551
O5    O     O_R   0.193470 0.640350 0.509110 -0.585821
O6    O     O_R   0.027490 0.681870 0.473430 -0.560777
O7    O     O_R   0.083000 0.479270 0.388100 -0.567069
O8    O     O_R   0.917020 0.520790 0.352410 -0.567780
I1    I     I_    0.260603 0.705828 0.266060 -0.416849
C47   C     C_1   0.445372 0.254782 0.345978 0.252279
N3    N     N_1   0.419896 0.321957 0.296100 -0.250635
C48   C     C_1   0.212997 0.117836 0.411783 0.251429
N4    N     N_1   0.171013 0.183739 0.392659 -0.250399
C49   C     C_1   0.527585 0.847118 0.648026 0.249133
N5    N     N_1   0.464932 0.768158 0.693229 -0.243566
C50   C     C_1   0.782999 0.913975 0.681219 0.277179
N6    N     N_1   0.823199 0.860640 0.735533 -0.221137
C51   C     C_1   0.566979 0.288768 0.696221 0.253079
N7    N     N_1   0.574037 0.220161 0.755378 -0.298886
I2    I     I_    0.897079 0.743181 0.291528 -0.313990
I3    I     I_    0.744320 0.585619 0.678595 -0.316929
C52   C     C_1   0.319856 0.738514 0.912685 0.260972
N8    N     N_1   0.405806 0.803033 0.878281 -0.236367

loop_
_geom_bond_atom_site_label_1
_geom_bond_atom_site_label_2
_ccdc_geom_bond_type
C16   C28   A    
C12   O4    A    
C38   C51   S    
C10   H12   S    
C19   C20   A    
Cu2   O4    S    
C43   C44   A    
C50   N6    T    
C7    C8    A    
C48   N4    T    
C2    C46   A    
C12   O3    A    
C36   C37   A    
C19   C21   A    
C16   H2    S    
C5    C6    A    
C20   C25   A    
C35   N2    A    
C33   C36   A    
C18   C19   A    
C14   C48   S    
C1    O2    A    
C31   C32   A    
C8    C9    A    
C1    C28   S    
C14   C27   A    
C41   H4    S    
C41   N1    A    
C15   C23   S    
C21   C22   A    
C23   O5    A    
C18   C49   S    
C21   C26   A    
C17   C18   A    
Cu1   O1    S    
C38   C39   A    
C42   I1    S    
C9    H14   S    
Cu1   Cu2   S    
C23   O6    A    
C36   C40   A    
C24   C25   A    
C26   H1    S    
Cu1   N1    S    
C16   C17   A    
C15   C26   A    
C20   C28   A    
C45   C46   A    
C3    C45   A    
C35   C39   A    
C47   N3    T    
C25   H3    S    
Cu1   O5    S    
C37   C38   A    
C15   C27   A    
C51   N7    T    
C40   H7    S    
C1    O1    A    
C30   I2    S    
C27   H15   S    
Cu2   N2    S    
C22   C24   A    
C42   C43   A    
Cu2   O6    S    
C3    C4    A    
C34   O7    A    
Cu1   O3    S    
C44   C45   A    
C6    C46   A    
C29   C41   A    
Cu2   O8    S    
C34   C43   S    
C4    C5    A    
C11   C12   S    
C24   C47   S    
C6    C7    A    
C40   N1    A    
C8    C52   S    
C32   C33   A    
C14   C22   A    
C5    C10   A    
C11   C13   A    
C31   H9    S    
C30   C31   A    
C29   H5    S    
C2    C42   A    
C4    H11   S    
C33   C35   A    
C17   C50   S    
Cu2   O2    S    
Cu1   O7    S    
C30   N2    A    
C10   C11   A    
C34   O8    A    
C49   N5    T    
C3    H10   S    
C44   H6    S    
C7    C13   A    
C13   H13   S    
C52   N8    T    
C29   C37   A    
C39   I3    S    
C2    C9    A    
C32   H8    S    
