data_mof_unit_44506.cif
_audit_creation_date              2012-12-11T15:44:55-0500
_audit_creation_method            fapswitch 2.2
_symmetry_space_group_name_H-M    P1
_symmetry_Int_Tables_number       1
_space_group_crystal_system       triclinic
_cell_length_a                    6.928463
_cell_length_b                    16.826868
_cell_length_c                    17.06688
_cell_angle_alpha                 100.393051
_cell_angle_beta                  91.14151
_cell_angle_gamma                 89.158983
_cell_volume                      1956.57331356

loop_
_atom_site_label
_atom_site_type_symbol
_atom_type_description
_atom_site_fract_x
_atom_site_fract_y
_atom_site_fract_z
_atom_type_partial_charge
O1    O     O_R   0.494370 0.415690 0.413450 -0.541925
O2    O     O_R   0.819420 0.429360 0.578420 -0.542971
O3    O     O_R   0.994280 0.584310 0.586550 -0.541001
C1    C     C_R   0.654220 0.413864 0.605535 0.712253
O4    O     O_R   0.823790 0.406230 0.413570 -0.544338
O5    O     O_R   0.998670 0.561000 0.420530 -0.541718
C2    C     C_R   0.654611 0.383041 0.384874 0.682977
O6    O     O_R   0.489970 0.439000 0.579470 -0.532448
O7    O     O_3   0.662300 0.550810 0.502470 -0.370057
V1    V     V_3+5 0.935380 0.490570 0.499540 1.407286
O8    O     O_R   0.328650 0.570640 0.421580 -0.539949
C3    C     C_R   0.156165 0.586349 0.394894 0.701130
O9    O     O_R   0.324290 0.593770 0.586430 -0.543459
C4    C     C_R   0.155374 0.616891 0.615106 0.690972
V2    V     V_3+5 0.435930 0.509430 0.500460 1.408813
O10   O     O_3   0.159140 0.449190 0.497530 -0.368119
C5    C     C_R   0.311976 0.724193 0.718039 -0.152444
H1    H     H_    0.452696 0.705378 0.694545 0.115831
C6    C     C_R   0.300467 0.787984 0.783119 -0.148845
H2    H     H_    0.433029 0.816428 0.807567 0.117980
C7    C     C_R   0.120832 0.814717 0.816013 -0.046845
C8    C     C_R   0.953044 0.775823 0.781900 -0.154533
H3    H     H_    0.812322 0.794630 0.805397 0.116349
C9    C     C_R   0.964553 0.712033 0.716823 -0.147035
H4    H     H_    0.831988 0.683584 0.692385 0.119024
C10   C     C_R   0.144181 0.685313 0.683916 -0.046303
C11   C     C_R   0.127956 0.639019 0.333958 -0.070513
C12   C     C_R   0.136923 0.860764 0.165864 -0.070625
C13   C     C_R   0.356636 0.809476 0.259916 -0.199643
C14   C     C_R   0.314430 0.863383 0.208429 -0.159252
C15   C     C_R   0.999864 0.803556 0.177678 -0.238519
C16   C     C_R   0.042332 0.748540 0.229293 0.158863
C17   C     C_R   0.222573 0.751209 0.270492 0.160725
C18   C     C_R   0.265030 0.696209 0.322120 -0.241078
C19   C     C_R   0.950463 0.636381 0.291382 -0.155385
C20   C     C_R   0.908273 0.690271 0.239871 -0.195085
H5    H     H_    0.401513 0.699569 0.354672 0.123646
H6    H     H_    0.841541 0.592874 0.298629 0.131870
H7    H     H_    0.495164 0.812991 0.290921 0.120252
H8    H     H_    0.769748 0.686751 0.208864 0.124624
H9    H     H_    0.423350 0.906898 0.201198 0.129122
H10   H     H_    0.863375 0.800205 0.145131 0.125907
C21   C     C_R   0.662912 0.363061 0.668672 -0.094835
C22   C     C_R   0.602574 0.139466 0.833425 -0.079805
C23   C     C_R   0.413556 0.191284 0.730951 -0.138763
C24   C     C_R   0.437785 0.137250 0.783566 -0.163156
C25   C     C_R   0.744337 0.197317 0.829146 -0.207193
C26   C     C_R   0.717699 0.255471 0.778685 0.076094
C27   C     C_R   0.550985 0.250794 0.727986 0.175007
C28   C     C_R   0.523815 0.304922 0.674278 -0.178751
C29   C     C_R   0.825194 0.368874 0.720206 -0.204685
C30   C     C_R   0.852735 0.317572 0.776197 -0.029085
H11   H     H_    0.398371 0.299703 0.634753 0.119884
H12   H     H_    0.930943 0.415155 0.717542 0.153923
H13   H     H_    0.285078 0.187208 0.693215 0.111386
H14   H     H_    0.325823 0.093394 0.785474 0.120867
H15   H     H_    0.872105 0.196961 0.866340 0.159639
C31   C     C_R   0.812044 0.276572 0.282360 -0.154174
H16   H     H_    0.953028 0.296009 0.306206 0.116157
C32   C     C_R   0.801180 0.212796 0.217231 -0.145804
H17   H     H_    0.934233 0.184946 0.193058 0.118156
C33   C     C_R   0.621353 0.185335 0.183945 -0.045714
C34   C     C_R   0.452694 0.223449 0.217646 -0.152742
H18   H     H_    0.311714 0.204018 0.193790 0.117716
C35   C     C_R   0.463559 0.287225 0.282776 -0.150772
H19   H     H_    0.330510 0.315086 0.306942 0.118233
C36   C     C_R   0.643385 0.314665 0.316084 -0.047061
O11   O     O_R   0.774880 0.061150 0.920630 -0.537503
O12   O     O_R   0.440980 0.093710 0.086500 -0.543567
O13   O     O_R   0.266190 0.938890 0.079390 -0.541489
C37   C     C_R   0.610146 0.116929 0.115186 0.689735
O14   O     O_R   0.445420 0.070740 0.921670 -0.540182
O15   O     O_R   0.270660 0.915760 0.913380 -0.541542
C38   C     C_R   0.610677 0.086548 0.894773 0.707890
O16   O     O_R   0.770400 0.084270 0.086640 -0.540667
O17   O     O_3   0.602590 0.949210 0.997500 -0.369766
V3    V     V_3+5 0.329470 0.009420 0.000470 1.412259
O18   O     O_R   0.940650 0.906250 0.913470 -0.544398
C39   C     C_R   0.109597 0.883148 0.884815 0.684015
O19   O     O_R   0.936210 0.929220 0.078300 -0.540273
C40   C     C_R   0.108695 0.913491 0.104978 0.701234
V4    V     V_3+5 0.828930 0.990510 0.999490 1.407525
O20   O     O_3   0.105680 0.050790 0.002500 -0.365886
C41   C     C_2   0.021063 0.332987 0.832004 0.739807
O21   O     O_2   0.174301 0.354114 0.808397 -0.560758
O22   O     O_R   0.002318 0.327997 0.912390 -0.667133
H20   H     H_    0.126763 0.340789 0.944135 0.300642

loop_
_geom_bond_atom_site_label_1
_geom_bond_atom_site_label_2
_ccdc_geom_bond_type
C34   C35   A    
C15   H10   S    
C18   H5    S    
O12   V3    S    
C19   C20   A    
C1    O6    A    
C23   C24   A    
C33   C34   A    
C5    C10   A    
C16   C20   A    
C6    C7    A    
C9    C10   A    
O5    C3    A    
V3    O20   S    
C31   C32   A    
V2    O10   S    
C13   C17   A    
C32   C33   A    
C30   C41   S    
O13   C40   A    
O14   V3    S    
O8    V2    S    
C41   O21   D    
C15   C16   A    
C35   C36   A    
C14   H9    S    
O1    V2    S    
O7    V1    S    
C22   C25   A    
O9    C4    A    
O13   V3    S    
C13   H7    S    
C22   C24   A    
C17   C18   A    
C11   C18   A    
C28   H11   S    
O12   C37   A    
C3    C11   S    
C29   C30   A    
C20   H8    S    
C19   H6    S    
C9    H4    S    
O19   V4    S    
O17   V4    S    
O4    C2    A    
O22   H20   S    
C11   C19   A    
C31   H16   S    
V4    O20   S    
C4    C10   S    
C32   H17   S    
O2    C1    A    
C13   C14   A    
C25   H15   S    
O18   V4    S    
C25   C26   A    
C23   C27   A    
C7    C39   S    
C5    H1    S    
O15   C39   A    
C21   C28   A    
O17   V3    S    
C22   C38   S    
O3    C4    A    
O14   C38   A    
C26   C27   A    
C35   H19   S    
O6    V2    S    
O9    V2    S    
C8    C9    A    
O2    V1    S    
C12   C40   S    
O1    C2    A    
C12   C15   A    
C41   O22   S    
O19   C40   A    
O5    V1    S    
O8    C3    A    
O16   V4    S    
C1    C21   S    
C29   H12   S    
O11   V4    S    
C16   C17   A    
C6    H2    S    
C12   C14   A    
O7    V2    S    
O4    V1    S    
O3    V1    S    
V1    O10   S    
C37   O16   A    
O18   C39   A    
C21   C29   A    
C5    C6    A    
C33   C37   S    
C2    C36   S    
C34   H18   S    
C31   C36   A    
C26   C30   A    
C23   H13   S    
C27   C28   A    
C24   H14   S    
O15   V3    S    
C8    H3    S    
C7    C8    A    
O11   C38   A    
