data_mof_unit_11968.cif
_audit_creation_date              2012-10-26T18:44:50-0400
_audit_creation_method            fapswitch 2.2
_symmetry_space_group_name_H-M    P1
_symmetry_Int_Tables_number       1
_space_group_crystal_system       triclinic
_cell_length_a                    16.013095
_cell_length_b                    14.776835
_cell_length_c                    10.810429
_cell_angle_alpha                 89.995887
_cell_angle_beta                  90.001784
_cell_angle_gamma                 89.860006
_cell_volume                      2557.98701306

loop_
_atom_site_label
_atom_site_type_symbol
_atom_type_description
_atom_site_fract_x
_atom_site_fract_y
_atom_site_fract_z
_atom_type_partial_charge
C1    C     C_1   0.252275 0.500491 0.494376 0.021744
C2    C     C_R   0.574906 0.047682 0.511818 -0.104678
C3    C     C_R   0.955423 0.583207 0.487329 0.030409
C4    C     C_R   0.044568 0.416815 0.486733 0.030171
C5    C     C_R   0.043688 0.583514 0.485924 0.011344
C6    C     C_R   0.956305 0.416516 0.485114 0.011196
C7    C     C_R   0.341011 0.500130 0.498909 0.536371
C8    C     C_R   0.658988 0.499870 0.498855 0.536337
C9    C     C_R   0.499999 0.500003 0.262368 0.521499
C10   C     C_R   0.500013 0.499997 0.737764 0.525088
C11   C     C_R   0.912366 0.499696 0.486671 0.072718
C12   C     C_1   0.747722 0.499510 0.494278 0.021700
C13   C     C_R   0.087628 0.500326 0.486829 0.072688
C14   C     C_1   0.500006 0.802697 0.499993 0.136902
C15   C     C_1   0.499994 0.197303 0.499995 0.136827
C16   C     C_1   0.822566 0.499381 0.490231 0.021858
C17   C     C_1   0.177429 0.500627 0.490366 0.021825
C18   C     C_R   0.648094 0.545993 0.129117 -0.129573
C19   C     C_R   0.351360 0.454348 0.872079 -0.131845
C20   C     C_R   0.648676 0.545578 0.872090 -0.132030
C21   C     C_R   0.351908 0.454058 0.129102 -0.129752
C22   C     C_R   0.721898 0.567852 0.066358 0.051682
C23   C     C_R   0.500013 0.499987 0.871495 0.009208
C24   C     C_R   0.278145 0.430770 0.935819 0.048984
C25   C     C_R   0.721887 0.569160 0.935832 0.049053
C26   C     C_R   0.278114 0.432165 0.066337 0.051669
C27   C     C_R   0.574083 0.523300 0.935360 -0.016850
C28   C     C_R   0.426164 0.476273 0.065179 -0.016401
C29   C     C_R   0.573846 0.523745 0.065188 -0.016372
C30   C     C_R   0.425941 0.476676 0.935352 -0.016838
C31   C     C_3   0.089726 0.673468 0.484525 -0.386291
C32   C     C_3   0.910266 0.326573 0.482770 -0.386317
C33   C     C_3   0.908487 0.672853 0.490561 -0.342592
C34   C     C_R   0.500002 0.500013 0.128807 0.009412
C35   C     C_3   0.091498 0.327154 0.489390 -0.342627
C36   C     C_2   0.201523 0.415970 0.140409 0.603337
C37   C     C_2   0.795608 0.598919 0.863275 0.612505
C38   C     C_2   0.204446 0.400900 0.863283 0.612742
C39   C     C_2   0.798483 0.584096 0.140441 0.603273
C40   C     C_R   0.500004 0.902858 0.499986 0.004618
C41   C     C_R   0.499996 0.097142 0.499990 0.004357
C42   C     C_R   0.574911 0.951921 0.511816 -0.101175
C43   C     C_R   0.425089 0.048079 0.488156 -0.101436
C44   C     C_R   0.425094 0.952318 0.488154 -0.104720
Cu1   Cu    Cu3+1 0.500000 0.589220 0.500000 1.001692
Cu2   Cu    Cu3+1 0.500000 0.410780 0.500000 1.001718
H1    H     H_    0.633680 0.083168 0.521101 0.115146
H2    H     H_    0.071253 0.713000 0.401602 0.135416
H3    H     H_    0.074242 0.712654 0.569064 0.141486
H4    H     H_    0.841421 0.332982 0.479369 0.140510
H5    H     H_    0.928914 0.287407 0.399618 0.135750
H6    H     H_    0.925567 0.287013 0.567066 0.141225
H7    H     H_    0.839696 0.666054 0.493003 0.179920
H8    H     H_    0.926367 0.711449 0.574500 0.128893
H9    H     H_    0.923746 0.713165 0.406997 0.151097
H10   H     H_    0.160283 0.333941 0.492289 0.180085
H11   H     H_    0.073422 0.288137 0.572874 0.128942
H12   H     H_    0.366321 0.916832 0.478871 0.115083
H13   H     H_    0.076431 0.287265 0.405377 0.151416
H14   H     H_    0.077461 0.435408 0.160052 0.342449
H15   H     H_    0.893929 0.683330 0.848427 0.341697
H16   H     H_    0.106096 0.316483 0.848617 0.341815
H17   H     H_    0.922569 0.564797 0.160029 0.342466
H18   H     H_    0.366314 0.083876 0.478872 0.121414
H19   H     H_    0.633687 0.916124 0.521099 0.120511
H20   H     H_    0.650142 0.544246 0.229113 0.148117
H21   H     H_    0.349689 0.453399 0.772044 0.151252
H22   H     H_    0.650367 0.546471 0.772051 0.151017
H23   H     H_    0.349842 0.455860 0.229093 0.147974
H24   H     H_    0.158578 0.667082 0.481428 0.140485
N1    N     N_1   0.500000 0.276710 0.500000 -0.185556
N2    N     N_1   0.500000 0.723290 0.500000 -0.185568
O1    O     O_R   0.380310 0.575320 0.500020 -0.498286
O2    O     O_R   0.124459 0.449677 0.100322 -0.649256
O3    O     O_2   0.810858 0.563794 0.763424 -0.540637
O4    O     O_R   0.846213 0.669015 0.906826 -0.654687
O5    O     O_2   0.189303 0.435774 0.763229 -0.540650
O6    O     O_R   0.153747 0.330959 0.907083 -0.654473
O7    O     O_2   0.793702 0.624624 0.238843 -0.548016
O8    O     O_R   0.875583 0.550504 0.100288 -0.649251
O9    O     O_R   0.619690 0.424680 0.499980 -0.498248
O10   O     O_R   0.619690 0.575320 0.499980 -0.487706
O11   O     O_R   0.380310 0.424680 0.500020 -0.487673
O12   O     O_R   0.499990 0.575350 0.319650 -0.494279
O13   O     O_R   0.500010 0.424650 0.680350 -0.495179
O14   O     O_R   0.500010 0.575350 0.680350 -0.495156
O15   O     O_R   0.499990 0.424650 0.319650 -0.494257
O16   O     O_2   0.206269 0.375387 0.238745 -0.548713

loop_
_geom_bond_atom_site_label_1
_geom_bond_atom_site_label_2
_ccdc_geom_bond_type
C33   H9    S    
C7    O11   A    
C21   C26   A    
C10   O13   A    
C27   C29   A    
C6    C32   S    
Cu1   O10   S    
C7    O1    A    
Cu1   Cu2   S    
C36   O16   D    
C8    O10   A    
Cu1   O1    S    
C24   C26   A    
C20   H22   S    
C20   C25   A    
C3    C33   S    
C2    C41   A    
C35   H13   S    
C4    C13   A    
C32   H6    S    
C25   C37   S    
C31   H24   S    
C12   C16   T    
C44   H12   S    
C22   C25   A    
C42   H19   S    
C24   C38   S    
C19   H21   S    
C23   C27   A    
C5    C13   A    
Cu2   O13   S    
C40   C42   A    
C37   O3    D    
C4    C35   S    
C28   C34   A    
C18   C22   A    
Cu1   N2    S    
C41   C43   A    
C31   H3    S    
H16   O6    S    
C43   H18   S    
H17   O8    S    
H15   O4    S    
C33   H7    S    
C8    O9    A    
C23   C30   A    
C15   C41   S    
C4    C6    A    
C6    C11   A    
C38   O6    S    
C29   C34   A    
C21   H23   S    
C39   O7    D    
C43   C44   A    
C32   H5    S    
Cu2   O9    S    
C11   C16   S    
C8    C12   S    
C18   C29   A    
C32   H4    S    
Cu2   N1    S    
C36   O2    S    
C26   C36   S    
C20   C27   A    
C37   O4    S    
C31   H2    S    
C9    C34   S    
C2    H1    S    
Cu1   O12   S    
Cu2   O15   S    
C33   H8    S    
C10   O14   A    
C35   H10   S    
C1    C7    S    
C14   N2    T    
C21   C28   A    
C3    C5    A    
C38   O5    D    
C10   C23   S    
C18   H20   S    
C15   N1    T    
C1    C17   T    
C13   C17   S    
C35   H11   S    
C39   O8    S    
C28   C30   A    
Cu1   O14   S    
C9    O15   A    
C2    C42   A    
C22   C39   S    
H14   O2    S    
C19   C24   A    
C3    C11   A    
C9    O12   A    
C14   C40   S    
Cu2   O11   S    
C40   C44   A    
C19   C30   A    
C5    C31   S    
