data_mof_unit_35994.cif
_audit_creation_date              2012-12-11T15:17:55-0500
_audit_creation_method            fapswitch 2.2
_symmetry_space_group_name_H-M    P1
_symmetry_Int_Tables_number       1
_space_group_crystal_system       triclinic
_cell_length_a                    15.69733
_cell_length_b                    15.697434
_cell_length_c                    34.572969
_cell_angle_alpha                 89.977521
_cell_angle_beta                  90.002989
_cell_angle_gamma                 120.020623
_cell_volume                      7376.1787815

loop_
_atom_site_label
_atom_site_type_symbol
_atom_type_description
_atom_site_fract_x
_atom_site_fract_y
_atom_site_fract_z
_atom_type_partial_charge
C1    C     C_R   0.577751 0.441646 0.554747 0.531054
C2    C     C_R   0.558141 0.135876 0.554615 0.526532
C3    C     C_R   0.864202 0.422366 0.554640 0.598631
C4    C     C_R   0.441574 0.577841 0.054830 0.531371
C5    C     C_R   0.136392 0.558374 0.054794 0.530405
C6    C     C_R   0.422254 0.863945 0.054742 0.597625
C7    C     C_R   0.001583 0.498083 0.710151 0.417895
C8    C     C_R   0.499922 0.500546 0.710362 0.413822
C9    C     C_R   0.490741 0.998555 0.710047 0.370966
C10   C     C_R   0.494776 0.991509 0.211585 0.416457
C11   C     C_R   0.494374 0.503151 0.211725 0.412368
C12   C     C_R   0.010113 0.497709 0.211770 0.409338
C13   C     C_R   0.018473 0.437465 0.851446 -0.122681
C14   C     C_R   0.561843 0.580197 0.851402 -0.126291
C15   C     C_R   0.420327 0.985671 0.852098 -0.125199
C16   C     C_R   0.435284 0.012723 0.352504 -0.122317
C17   C     C_R   0.576700 0.563960 0.352417 -0.125447
C18   C     C_R   0.991494 0.424040 0.353394 -0.124892
C19   C     C_R   0.036613 0.443770 0.891199 -0.027211
C20   C     C_R   0.555980 0.592508 0.891145 -0.030176
C21   C     C_R   0.410299 0.967151 0.891895 -0.027334
C22   C     C_R   0.442291 0.033864 0.391999 -0.025497
C23   C     C_R   0.591300 0.557413 0.391905 -0.028408
C24   C     C_R   0.970148 0.411707 0.392933 -0.025939
C25   C     C_R   0.069897 0.613708 0.890225 -0.003955
C26   C     C_R   0.386330 0.455195 0.890629 -0.003122
C27   C     C_R   0.537879 0.920970 0.888273 -0.006626
C28   C     C_R   0.611089 0.063816 0.391599 -0.003817
C29   C     C_R   0.451750 0.388958 0.391971 -0.002515
C30   C     C_R   0.928212 0.542395 0.389837 -0.006196
C31   C     C_R   0.052159 0.606155 0.849925 0.102399
C32   C     C_R   0.393401 0.444529 0.850339 0.102369
C33   C     C_R   0.544893 0.937510 0.847939 0.102546
C34   C     C_R   0.602730 0.042742 0.351559 0.102955
C35   C     C_R   0.438560 0.396829 0.351934 0.102918
C36   C     C_R   0.948166 0.552215 0.349747 0.103033
C37   C     C_R   0.031952 0.519229 0.830340 0.021001
C38   C     C_R   0.479924 0.511326 0.830526 0.021098
C39   C     C_R   0.482158 0.965267 0.829836 0.022205
C40   C     C_R   0.516258 0.023059 0.331726 0.020660
C41   C     C_R   0.505466 0.482849 0.331869 0.020819
C42   C     C_R   0.974685 0.488802 0.331415 0.022520
C43   C     C_R   0.073537 0.535957 0.910011 -0.026399
C44   C     C_R   0.464041 0.537224 0.910142 -0.025795
C45   C     C_R   0.461948 0.924633 0.909530 -0.024174
C46   C     C_R   0.534548 0.070873 0.410791 -0.026102
C47   C     C_R   0.535975 0.465436 0.410895 -0.025811
C48   C     C_R   0.927845 0.463611 0.410496 -0.022987
C49   C     C_R   0.576403 0.443422 0.446128 0.543727
C50   C     C_R   0.556600 0.133065 0.446098 0.543919
C51   C     C_R   0.866701 0.423563 0.446030 0.556810
C52   C     C_R   0.443195 0.576555 0.945970 0.541728
C53   C     C_R   0.133444 0.556834 0.945933 0.541548
C54   C     C_R   0.423332 0.866209 0.945807 0.553217
C55   C     C_R   0.918908 0.457730 0.591324 0.010473
C56   C     C_R   0.542839 0.460171 0.591722 -0.046808
C57   C     C_R   0.538983 0.082864 0.591610 -0.049635
C58   C     C_R   0.456632 0.916648 0.091880 0.007780
C59   C     C_R   0.459413 0.543769 0.092173 -0.048262
C60   C     C_R   0.086339 0.540602 0.092422 -0.042913
C61   C     C_R   0.984672 0.427264 0.604897 0.005650
C62   C     C_R   0.571812 0.556053 0.605208 0.003579
C63   C     C_R   0.443606 0.009754 0.603345 0.020810
C64   C     C_R   0.423502 0.979347 0.106517 0.001707
C65   C     C_R   0.555106 0.576659 0.106868 0.002759
C66   C     C_R   0.017424 0.445192 0.105656 0.004862
C67   C     C_R   0.013657 0.443287 0.644280 0.078897
C68   C     C_R   0.553284 0.568103 0.644521 0.120402
C69   C     C_R   0.427993 0.980202 0.642729 0.121084
C70   C     C_R   0.438064 0.005092 0.146237 0.076313
C71   C     C_R   0.565562 0.559686 0.146530 0.121003
C72   C     C_R   0.989549 0.432099 0.145186 0.120708
C73   C     C_R   0.980062 0.492253 0.668805 0.062552
C74   C     C_R   0.505780 0.485166 0.669000 0.045735
C75   C     C_R   0.508514 0.019118 0.668728 0.024017
C76   C     C_R   0.488227 0.971451 0.170093 0.060478
C77   C     C_R   0.481304 0.509772 0.170200 0.046863
C78   C     C_R   0.031051 0.513701 0.170486 0.049793
C79   C     C_R   0.921091 0.529510 0.654095 -0.025560
C80   C     C_R   0.471119 0.389312 0.654371 -0.026531
C81   C     C_R   0.604880 0.084872 0.655582 -0.012594
C82   C     C_R   0.527674 0.915365 0.154439 -0.028571
C83   C     C_R   0.386024 0.471588 0.154461 -0.026155
C84   C     C_R   0.095204 0.609518 0.156403 -0.024472
C85   C     C_R   0.892758 0.512723 0.615458 -0.182459
C86   C     C_R   0.488937 0.378567 0.615807 -0.176013
C87   C     C_R   0.618250 0.116071 0.617305 -0.171435
C88   C     C_R   0.512588 0.890430 0.115458 -0.185139
C89   C     C_R   0.376833 0.487585 0.115540 -0.173829
C90   C     C_R   0.120744 0.621313 0.117472 -0.173500
C91   C     C_R   0.022513 0.511617 0.787880 0.361807
C92   C     C_R   0.487057 0.508835 0.788075 0.361814
C93   C     C_R   0.482260 0.975426 0.787606 0.363190
C94   C     C_R   0.508677 0.012176 0.289317 0.360344
C95   C     C_R   0.501616 0.489915 0.289464 0.360688
C96   C     C_R   0.986269 0.490304 0.289243 0.360664
Cr1   Cr    Cr6+3 0.522350 0.263930 0.500020 1.072622
Cr2   Cr    Cr6+3 0.736070 0.258420 0.500020 1.098551
Cr3   Cr    Cr6+3 0.741580 0.477650 0.500020 1.089922
Cr4   Cr    Cr6+3 0.263930 0.522350 0.000020 1.081033
Cr5   Cr    Cr6+3 0.258420 0.736070 0.000020 1.097509
Cr6   Cr    Cr6+3 0.477650 0.741580 0.000020 1.088710
H1    H     H_    0.843158 0.536778 0.604860 0.137913
H2    H     H_    0.466395 0.305260 0.605185 0.136937
H3    H     H_    0.691382 0.171034 0.607868 0.129605
H4    H     H_    0.538539 0.843011 0.104132 0.140650
H5    H     H_    0.303639 0.462113 0.104091 0.144061
H6    H     H_    0.173452 0.694295 0.107080 0.131251
H7    H     H_    0.995842 0.368619 0.836579 0.185998
H8    H     H_    0.630452 0.626429 0.836363 0.184156
H9    H     H_    0.377429 0.013519 0.838036 0.178064
H10   H     H_    0.366579 0.990328 0.337555 0.185789
H11   H     H_    0.623077 0.632402 0.337295 0.184033
H12   H     H_    0.018673 0.380638 0.339285 0.177946
N1    N     N_R   0.963023 0.423506 0.770795 -0.222837
N2    N     N_R   0.575000 0.537246 0.770890 -0.222453
N3    N     N_R   0.476441 0.051118 0.771480 -0.219681
N4    N     N_R   0.420014 0.955198 0.272181 -0.222385
N5    N     N_R   0.533570 0.578462 0.272191 -0.222958
N6    N     N_R   0.058557 0.478389 0.273290 -0.222440
N7    N     N_R   0.952407 0.416918 0.732575 -0.178332
N8    N     N_R   0.581255 0.532790 0.732680 -0.171337
N9    N     N_R   0.481387 0.062908 0.733305 -0.194576
N10   N     N_R   0.413217 0.944716 0.233957 -0.170353
N11   N     N_R   0.529665 0.584929 0.233966 -0.164827
N12   N     N_R   0.070734 0.482769 0.235150 -0.190382
N13   N     N_R   0.063028 0.585792 0.726955 -0.193807
N14   N     N_R   0.412335 0.474409 0.727253 -0.202798
N15   N     N_R   0.494745 0.921823 0.725993 -0.205375
N16   N     N_R   0.583137 0.050301 0.228451 -0.196539
N17   N     N_R   0.464459 0.414850 0.228718 -0.204472
N18   N     N_R   0.936734 0.507873 0.227521 -0.191461
N19   N     N_R   0.073630 0.592255 0.765186 -0.165825
N20   N     N_R   0.406198 0.478957 0.765487 -0.163355
N21   N     N_R   0.490274 0.910339 0.764188 -0.167050
N22   N     N_R   0.589801 0.060778 0.266675 -0.166113
N23   N     N_R   0.468485 0.408511 0.266957 -0.164623
N24   N     N_R   0.924844 0.503873 0.265679 -0.169316
O1    O     O_R   0.498680 0.159540 0.541860 -0.531737
O2    O     O_R   0.840460 0.339140 0.541860 -0.484787
O3    O     O_R   0.660860 0.501320 0.541860 -0.520710
O4    O     O_R   0.159540 0.498680 0.041860 -0.518408
O5    O     O_R   0.339140 0.840460 0.041860 -0.483100
O6    O     O_R   0.501320 0.660860 0.041860 -0.520417
O7    O     O_R   0.532760 0.358060 0.540030 -0.488610
O8    O     O_R   0.641940 0.174700 0.540030 -0.488828
O9    O     O_R   0.825300 0.467240 0.540030 -0.498647
O10   O     O_R   0.358060 0.532760 0.040030 -0.488393
O11   O     O_R   0.174700 0.641940 0.040030 -0.493331
O12   O     O_R   0.467240 0.825300 0.040030 -0.500714
O13   O     O_R   0.498590 0.161190 0.456930 -0.537250
O14   O     O_R   0.838810 0.337400 0.456930 -0.527111
O15   O     O_R   0.662600 0.501410 0.456930 -0.537000
O16   O     O_R   0.161190 0.498590 0.956930 -0.536261
O17   O     O_R   0.337400 0.838810 0.956930 -0.526634
O18   O     O_R   0.501410 0.662600 0.956930 -0.536531
O19   O     O_R   0.532680 0.359580 0.461300 -0.454592
O20   O     O_R   0.640420 0.173100 0.461300 -0.456176
O21   O     O_R   0.826900 0.467320 0.461300 -0.454623
O22   O     O_R   0.359580 0.532680 0.961300 -0.454719
O23   O     O_R   0.173100 0.640420 0.961300 -0.456451
O24   O     O_R   0.467320 0.826900 0.961300 -0.454330
O25   O     O_3   0.666667 0.333333 0.499990 -0.272373
O26   O     O_3   0.333333 0.666667 0.999990 -0.273652
C97   C     C_2   0.026572 0.383240 0.578176 0.251343
H13   H     H_    0.050662 0.333845 0.588792 0.108402
O27   O     O_2   0.038353 0.404844 0.543890 -0.478603
C98   C     C_2   0.615387 0.639788 0.577293 0.253821
H14   H     H_    0.601083 0.625565 0.546586 0.126156
O28   O     O_2   0.668104 0.724736 0.587638 -0.500186
C99   C     C_2   0.363468 0.962355 0.573907 0.269440
H15   H     H_    0.379588 0.979000 0.543447 0.120382
O29   O     O_2   0.279070 0.902163 0.582777 -0.458610
C100  C     C_2   0.378208 0.021525 0.080581 0.249236
H16   H     H_    0.326825 0.042496 0.091686 0.109793
O30   O     O_2   0.400903 0.037046 0.046455 -0.479117
C101  C     C_2   0.640645 0.622659 0.079869 0.252333
H17   H     H_    0.629118 0.606516 0.049173 0.126391
O31   O     O_2   0.724011 0.679500 0.090945 -0.501521
C102  C     C_2   0.976014 0.361357 0.077955 0.254865
H18   H     H_    0.970955 0.374622 0.047457 0.122464
O32   O     O_2   0.949906 0.277556 0.088399 -0.497022
C103  C     C_2   0.014652 0.352779 0.912574 0.259528
H19   H     H_    0.005404 0.349012 0.943733 0.144471
O33   O     O_2   0.004609 0.280115 0.895571 -0.501079
C104  C     C_2   0.647188 0.661791 0.912334 0.255928
H20   H     H_    0.651043 0.657086 0.943523 0.146301
O34   O     O_2   0.720018 0.723652 0.895140 -0.503869
C105  C     C_2   0.347047 0.994408 0.914605 0.264272
H21   H     H_    0.353702 0.000915 0.945834 0.169667
O35   O     O_2   0.287958 0.011803 0.898661 -0.501990
C106  C     C_2   0.351880 0.014817 0.413112 0.259908
H22   H     H_    0.347861 0.006840 0.444328 0.144069
O36   O     O_2   0.279908 0.005707 0.395833 -0.503966
C107  C     C_2   0.663057 0.648025 0.412811 0.255495
H23   H     H_    0.659809 0.652246 0.444041 0.146685
O37   O     O_2   0.725370 0.720017 0.395342 -0.507298
C108  C     C_2   0.994327 0.345826 0.415441 0.264281
H24   H     H_    0.999507 0.350908 0.446726 0.171780
O38   O     O_2   0.010744 0.286336 0.399277 -0.505828
N25   N     N_2   0.076189 0.410306 0.659979 -0.520173
H25   H     H_    0.058590 0.339914 0.652394 0.249432
C109  C     C_3   0.180206 0.481092 0.657574 -0.284184
H26   H     H_    0.204194 0.495218 0.626865 0.148625
H27   H     H_    0.222544 0.451879 0.672785 0.169141
H28   H     H_    0.196552 0.551330 0.671625 0.175522
N26   N     N_2   0.581583 0.662390 0.660385 -0.495081
H29   H     H_    0.653399 0.716433 0.655712 0.311466
C110  C     C_3   0.509844 0.693810 0.655843 -0.259480
H30   H     H_    0.500319 0.705076 0.624775 0.173507
H31   H     H_    0.535196 0.764236 0.671484 0.178157
H32   H     H_    0.437892 0.637978 0.668193 0.149071
N27   N     N_2   0.331361 0.912757 0.656297 -0.458714
H33   H     H_    0.328013 0.862224 0.676203 0.257795
C111  C     C_3   0.274827 0.958242 0.668014 -0.240815
H34   H     H_    0.198280 0.900187 0.674751 0.172016
H35   H     H_    0.272397 0.005089 0.644432 0.179249
H36   H     H_    0.307511 0.004055 0.694223 0.148634
N28   N     N_2   0.402746 0.064698 0.162898 -0.518844
H37   H     H_    0.332003 0.045985 0.155368 0.249796
C112  C     C_3   0.471683 0.169318 0.161574 -0.286027
H38   H     H_    0.485746 0.195562 0.131137 0.145694
H39   H     H_    0.542223 0.186311 0.175536 0.172854
H40   H     H_    0.440729 0.209148 0.177467 0.170608
N29   N     N_2   0.659524 0.591543 0.163490 -0.494573
H41   H     H_    0.711823 0.664104 0.159004 0.310889
C113  C     C_3   0.695117 0.522890 0.159924 -0.261858
H42   H     H_    0.709210 0.514170 0.129102 0.169539
H43   H     H_    0.640452 0.450084 0.172007 0.150543
H44   H     H_    0.764815 0.550779 0.176376 0.177124
N30   N     N_2   0.917614 0.338266 0.159788 -0.505233
H45   H     H_    0.856513 0.297578 0.142730 0.287264
C114  C     C_3   0.954470 0.281940 0.179684 -0.235172
H46   H     H_    0.936976 0.214976 0.162788 0.186239
H47   H     H_    0.918391 0.259022 0.208395 0.167415
H48   H     H_    0.035491 0.325304 0.184055 0.164430
C115  C     C_2   0.880951 0.580642 0.677889 0.252679
H49   H     H_    0.846202 0.617063 0.663620 0.120492
O39   O     O_2   0.883105 0.581022 0.713170 -0.468422
C116  C     C_2   0.421389 0.297760 0.678139 0.245864
H50   H     H_    0.388752 0.226579 0.663930 0.097110
O40   O     O_2   0.417712 0.299383 0.713364 -0.469864
C117  C     C_2   0.694023 0.127300 0.680722 0.261621
H51   H     H_    0.763572 0.185863 0.669618 0.108090
O41   O     O_2   0.692427 0.097312 0.713438 -0.467056
C118  C     C_2   0.579196 0.874518 0.177563 0.253084
H52   H     H_    0.620112 0.845299 0.162768 0.120838
O42   O     O_2   0.574406 0.869404 0.212789 -0.462890
C119  C     C_2   0.293309 0.420231 0.177414 0.245228
H53   H     H_    0.223240 0.380413 0.162475 0.103867
O43   O     O_2   0.292659 0.423893 0.212661 -0.466354
C120  C     C_2   0.140927 0.699844 0.180930 0.258051
H54   H     H_    0.193186 0.770092 0.168107 0.108938
O44   O     O_2   0.121540 0.698285 0.215193 -0.465463
C121  C     C_2   0.079704 0.700664 0.911339 0.267677
H55   H     H_    0.121135 0.773926 0.899163 0.126126
O45   O     O_2   0.038278 0.690404 0.942323 -0.468060
C122  C     C_2   0.300073 0.377802 0.912043 0.268830
H56   H     H_    0.226655 0.344669 0.899957 0.132380
O46   O     O_2   0.311143 0.347857 0.943181 -0.465907
C123  C     C_2   0.612736 0.904332 0.907732 0.270209
H57   H     H_    0.636252 0.856331 0.895093 0.131177
O47   O     O_2   0.651550 0.947439 0.937711 -0.456388
C124  C     C_2   0.697425 0.073377 0.413137 0.266593
H58   H     H_    0.770673 0.112605 0.400819 0.125814
O48   O     O_2   0.686600 0.034189 0.444679 -0.468776
C125  C     C_2   0.374782 0.303328 0.413804 0.267624
H59   H     H_    0.339524 0.229939 0.401606 0.131842
O49   O     O_2   0.347628 0.314945 0.445469 -0.469526
C126  C     C_2   0.912423 0.617257 0.409757 0.269088
H60   H     H_    0.867044 0.643708 0.396882 0.131483
O50   O     O_2   0.953305 0.652707 0.440459 -0.456209
N31   N     N_2   0.051161 0.683945 0.828976 -0.505958
H61   H     H_    0.106350 0.753923 0.835790 0.250054
C127  C     C_3   0.955191 0.674982 0.825533 -0.236104
H62   H     H_    0.927799 0.681085 0.854449 0.166866
H63   H     H_    0.902131 0.603258 0.812227 0.195341
H64   H     H_    0.960344 0.734679 0.806693 0.177229
N32   N     N_2   0.315582 0.365182 0.829631 -0.504351
H65   H     H_    0.245581 0.350126 0.836551 0.254409
C128  C     C_3   0.325000 0.278415 0.826345 -0.236261
H66   H     H_    0.319410 0.245385 0.855330 0.169600
H67   H     H_    0.396657 0.297270 0.812922 0.194283
H68   H     H_    0.265214 0.223390 0.807676 0.176506
N33   N     N_2   0.616627 0.929493 0.825352 -0.504247
H69   H     H_    0.625727 0.870459 0.831780 0.251408
C129  C     C_3   0.708254 0.020823 0.820291 -0.231276
H70   H     H_    0.746371 0.047208 0.848527 0.165600
H71   H     H_    0.694573 0.077857 0.807515 0.198948
H72   H     H_    0.756713 0.008928 0.800317 0.180009
N34   N     N_2   0.679177 0.037920 0.331156 -0.505683
H73   H     H_    0.749789 0.092265 0.337637 0.250671
C130  C     C_3   0.667411 0.940592 0.329029 -0.237354
H74   H     H_    0.672706 0.914668 0.358368 0.167752
H75   H     H_    0.726254 0.942672 0.310541 0.177742
H76   H     H_    0.595131 0.888000 0.315992 0.192715
N35   N     N_2   0.356714 0.320397 0.331769 -0.504089
H77   H     H_    0.340114 0.249754 0.338380 0.255194
C131  C     C_3   0.271476 0.332722 0.329749 -0.237704
H78   H     H_    0.240759 0.328019 0.359140 0.171107
H79   H     H_    0.214202 0.273804 0.311441 0.176384
H80   H     H_    0.291413 0.404925 0.316564 0.191843
N36   N     N_2   0.944852 0.627332 0.327686 -0.504900
H81   H     H_    0.886965 0.638558 0.333729 0.252821
C132  C     C_3   0.038328 0.717373 0.324031 -0.233696
H82   H     H_    0.063651 0.752975 0.352758 0.167273
H83   H     H_    0.030112 0.768808 0.304405 0.178782
H84   H     H_    0.094507 0.702044 0.311528 0.197301

loop_
_geom_bond_atom_site_label_1
_geom_bond_atom_site_label_2
_ccdc_geom_bond_type
C121  O45   D    
C72   N30   S    
C130  H74   S    
N35   C131  S    
C6    C58   S    
C36   C42   A    
N34   H73   S    
N36   C132  S    
Cr2   O14   S    
C128  H68   S    
C109  H27   S    
C93   N3    A    
C49   O15   A    
C1    C56   S    
C10   N10   A    
C12   N12   A    
Cr5   O17   S    
C4    O10   A    
C38   C92   S    
C5    O11   A    
C80   C86   A    
C66   C72   A    
C129  H71   S    
C85   H1    S    
C24   C108  S    
C83   C119  S    
C71   N29   S    
C102  O32   D    
N27   C111  S    
C7    C73   S    
C95   N5    A    
C31   C37   A    
C103  H19   S    
C14   C38   A    
C99   O29   D    
C56   C86   A    
N36   H81   S    
C68   N26   S    
C8    C74   S    
N4    N10   A    
C92   N2    A    
C15   C39   A    
C16   C40   A    
C98   H14   S    
C33   N33   S    
C51   O14   A    
C126  O50   D    
C64   C100  S    
C79   C85   A    
Cr3   O9    S    
C12   N18   A    
Cr1   O7    S    
Cr3   O3    S    
C58   C88   A    
C4    O6    A    
C60   C90   A    
C130  H76   S    
C29   C35   A    
C30   C36   A    
N33   C129  S    
C65   C71   A    
C9    N9    A    
N32   C128  S    
C20   C104  S    
C107  H23   S    
C108  O38   D    
C104  H20   S    
C120  H54   S    
C25   C31   A    
C62   C98   S    
C3    O9    A    
N1    N7    A    
Cr3   O21   S    
C1    O7    A    
C86   H2    S    
C25   C43   A    
C2    C57   S    
C17   H11   S    
C27   C33   A    
C28   C46   A    
C119  H53   S    
C17   C23   A    
C29   C47   A    
C18   C24   A    
C30   C48   A    
N34   C130  S    
C18   C42   A    
C96   N24   A    
C123  H57   S    
C68   C74   A    
C59   C89   A    
C105  O35   D    
C100  H16   S    
C72   C78   A    
C11   C77   S    
N15   N21   A    
C3    C55   S    
C50   O13   A    
C8    N14   A    
C63   C69   A    
C124  H58   S    
C101  O31   D    
C114  H46   S    
C44   C52   S    
C97   O27   D    
C115  H49   S    
N25   C109  S    
C49   O19   A    
C84   C90   A    
C7    N7    A    
C20   C44   A    
C57   C63   A    
C21   C45   A    
C58   C64   A    
C83   C89   A    
C95   N23   A    
C23   C47   A    
C82   C118  S    
C24   C48   A    
C127  H64   S    
C111  H36   S    
C76   C82   A    
C57   C87   A    
C106  O36   D    
C112  H38   S    
C67   N25   S    
N14   N20   A    
C114  H47   S    
C61   C67   A    
C21   C105  S    
C87   H3    S    
C110  H30   S    
C73   C79   A    
C32   N32   S    
Cr3   O25   S    
C124  O48   D    
C113  H43   S    
C101  H17   S    
Cr6   O18   S    
C71   C77   A    
C36   N36   S    
C34   N34   S    
Cr4   O16   S    
C14   H8    S    
C118  H52   S    
C5    C60   S    
C92   N20   A    
C40   C94   S    
C93   N21   A    
C125  H59   S    
C128  H67   S    
C70   N28   S    
C122  H56   S    
C90   H6    S    
C59   C65   A    
C94   N4    A    
C8    N8    A    
C5    O4    A    
C65   C101  S    
C82   C88   A    
C55   C61   A    
C116  H50   S    
N31   C127  S    
C61   C97   S    
C62   C68   A    
C35   C41   A    
C114  H48   S    
C60   C66   A    
Cr6   O26   S    
C23   C107  S    
N26   C110  S    
C7    N13   A    
Cr1   O1    S    
C107  O37   D    
C52   O22   A    
C127  H62   S    
C30   C126  S    
C99   H15   S    
Cr2   O25   S    
C25   C121  S    
N27   H33   S    
C26   C32   A    
N2    N8    A    
C42   C96   S    
C2    O1    A    
C11   N11   A    
C112  H40   S    
N6    N12   A    
N18   N24   A    
C117  H51   S    
C110  H32   S    
N35   H77   S    
C39   C93   S    
C43   C53   S    
Cr2   O20   S    
Cr1   O25   S    
N32   H65   S    
C67   C73   A    
C27   C45   A    
C98   O28   D    
C28   C34   A    
C74   C80   A    
C19   C43   A    
C109  H28   S    
C13   C19   A    
C26   C44   A    
N26   H29   S    
C14   C20   A    
C69   N27   S    
C54   O17   A    
C66   C102  S    
C50   O20   A    
C55   C85   A    
C131  H78   S    
C10   N16   A    
N33   H69   S    
N17   N23   A    
C63   C99   S    
C129  H70   S    
C26   C122  S    
Cr6   O24   S    
C89   H5    S    
Cr1   O13   S    
C129  H72   S    
Cr4   O26   S    
C81   C87   A    
Cr6   O12   S    
N5    N11   A    
C22   C46   A    
C29   C125  S    
C52   O18   A    
C104  O34   D    
C31   N31   S    
N28   H37   S    
C102  H18   S    
C16   H10   S    
C120  O44   D    
C16   C22   A    
Cr5   O26   S    
N13   N19   A    
C81   C117  S    
C111  H35   S    
C125  O49   D    
C41   C95   S    
Cr3   O15   S    
C91   N1    A    
C69   C75   A    
C105  H21   S    
C100  O30   D    
C1    O3    A    
C6    O12   A    
C112  H39   S    
C132  H82   S    
C126  H60   S    
C109  H26   S    
C97   H13   S    
C84   C120  S    
N25   H25   S    
C111  H34   S    
C18   H12   S    
C47   C49   S    
C33   C39   A    
C34   C40   A    
C127  H63   S    
C103  O33   D    
C77   C83   A    
C27   C123  S    
C51   O21   A    
N29   C113  S    
C10   C76   S    
C48   C51   S    
C113  H42   S    
C117  O41   D    
C12   C78   S    
C13   H7    S    
C108  H24   S    
C64   C70   A    
C13   C37   A    
C53   O16   A    
C131  H80   S    
C35   N35   S    
C118  O42   D    
C119  O43   D    
C37   C91   S    
C15   H9    S    
N30   C114  S    
C19   C103  S    
C123  O47   D    
C75   C81   A    
Cr2   O8    S    
C132  H83   S    
C128  H66   S    
C28   C124  S    
Cr2   O2    S    
Cr1   O19   S    
C122  O46   D    
N28   C112  S    
C88   H4    S    
Cr4   O22   S    
C94   N22   A    
C91   N19   A    
C132  H84   S    
C116  O40   D    
N29   H41   S    
C54   O24   A    
C131  H79   S    
C45   C54   S    
C32   C38   A    
C115  O39   D    
C70   C76   A    
C79   C115  S    
C22   C106  S    
C121  H55   S    
C96   N6    A    
N16   N22   A    
C11   N17   A    
C9    N15   A    
C2    O8    A    
C46   C50   S    
Cr6   O6    S    
C106  H22   S    
C80   C116  S    
Cr5   O23   S    
N3    N9    A    
C130  H75   S    
Cr4   O4    S    
Cr5   O5    S    
C53   O23   A    
Cr4   O10   S    
C4    C59   S    
Cr5   O11   S    
C110  H31   S    
C56   C62   A    
C17   C41   A    
C78   C84   A    
C15   C21   A    
C113  H44   S    
N30   H45   S    
C3    O2    A    
C9    C75   S    
C6    O5    A    
N31   H61   S    
