data_mof_unit_8590.cif
_audit_creation_date              2012-12-10T18:05:42-0500
_audit_creation_method            fapswitch 2.2
_symmetry_space_group_name_H-M    P1
_symmetry_Int_Tables_number       1
_space_group_crystal_system       triclinic
_cell_length_a                    11.038318
_cell_length_b                    10.898845
_cell_length_c                    9.689145
_cell_angle_alpha                 89.221895
_cell_angle_beta                  90.752513
_cell_angle_gamma                 94.737161
_cell_volume                      1161.47844207

loop_
_atom_site_label
_atom_site_type_symbol
_atom_type_description
_atom_site_fract_x
_atom_site_fract_y
_atom_site_fract_z
_atom_type_partial_charge
C1    C     C_R   0.510204 0.263418 0.500219 0.897414
C2    C     C_R   0.489306 0.736435 0.499719 0.901730
C3    C     C_R   0.871762 0.501566 0.504327 -0.075785
C4    C     C_R   0.128458 0.503339 0.495586 -0.091046
C5    C     C_R   0.940885 0.485556 0.626175 -0.007844
C6    C     C_R   0.059490 0.519947 0.373732 0.032432
C7    C     C_R   0.507144 0.063743 0.373758 0.365785
C8    C     C_R   0.490816 0.935952 0.625779 0.365484
C9    C     C_R   0.474633 0.937778 0.376348 0.261904
C10   C     C_R   0.523719 0.061734 0.623154 0.290631
C11   C     C_R   0.479018 0.870738 0.500861 -0.346394
C12   C     C_R   0.519241 0.128888 0.498788 -0.350228
C13   C     C_R   0.434001 0.410715 0.074285 0.416557
C14   C     C_R   0.565220 0.591036 0.925343 0.437624
C15   C     C_R   0.440208 0.405408 0.927349 0.197000
C16   C     C_R   0.565393 0.591853 0.074604 0.226055
C17   C     C_R   0.262534 0.501075 0.498499 0.756770
C18   C     C_R   0.737560 0.500660 0.501473 0.776329
C19   C     C_R   0.223542 0.656343 0.063436 -0.072596
C20   C     C_R   0.781217 0.349062 0.938636 -0.102701
C21   C     C_R   0.177431 0.641350 0.196422 -0.155311
C22   C     C_R   0.826780 0.363878 0.805773 -0.126984
C23   C     C_R   0.112911 0.530479 0.235837 0.066369
C24   C     C_R   0.888761 0.475567 0.764969 0.038067
C25   C     C_R   0.090606 0.434881 0.139352 0.357410
C26   C     C_R   0.910590 0.572932 0.859908 0.376115
C27   C     C_R   0.132862 0.454442 0.004684 -0.175607
C28   C     C_R   0.865562 0.554690 0.994647 -0.124280
C29   C     C_R   0.201888 0.562983 0.968070 -0.180423
C30   C     C_R   0.799849 0.444202 0.032303 -0.235668
C31   C     C_R   0.933523 0.520855 0.380361 -0.206404
C32   C     C_R   0.066743 0.486147 0.619472 -0.245643
Cu1   Cu    Cu3+1 0.500000 0.500020 0.640660 1.051115
Cu2   Cu    Cu3+1 0.500000 0.499980 0.359340 1.041828
H1    H     H_    0.237129 0.576740 0.865140 0.184220
H2    H     H_    0.763611 0.430850 0.134825 0.187869
H3    H     H_    0.272689 0.741626 0.031803 0.232874
H4    H     H_    0.733132 0.263181 0.970555 0.228652
H5    H     H_    0.190674 0.716055 0.268926 0.179711
H6    H     H_    0.814573 0.288441 0.734077 0.179039
H7    H     H_    0.109073 0.385750 0.928117 0.116564
H8    H     H_    0.880417 0.625423 0.070859 0.125496
H9    H     H_    0.883677 0.537490 0.287062 0.135449
H10   H     H_    0.116494 0.473549 0.713347 0.148411
N1    N     N_R   0.500030 0.500030 0.852070 -0.235120
N2    N     N_R   0.499970 0.499970 0.147930 -0.242215
O1    O     O_R   0.499990 0.319660 0.618740 -0.522711
O2    O     O_R   0.500010 0.680340 0.381260 -0.530945
O3    O     O_R   0.499990 0.319630 0.381170 -0.492489
O4    O     O_R   0.500010 0.680370 0.618830 -0.491926
O5    O     O_R   0.319650 0.500020 0.618780 -0.605564
O6    O     O_R   0.680350 0.499980 0.381220 -0.621103
O7    O     O_R   0.319640 0.500000 0.381210 -0.542116
O8    O     O_R   0.680360 0.500000 0.618790 -0.532547
N3    N     N_2   0.410009 0.289383 0.864606 -0.320414
H11   H     H_    0.440453 0.217898 0.922547 0.341576
C33   C     C_3   0.286315 0.258591 0.819573 -0.569620
H12   H     H_    0.229073 0.225622 0.907959 0.233187
H13   H     H_    0.284753 0.182806 0.744000 0.226002
H14   H     H_    0.248486 0.337383 0.768452 0.213406
N4    N     N_2   0.643025 0.679195 0.150096 -0.406442
H15   H     H_    0.713218 0.646502 0.205865 0.245014
C34   C     C_3   0.658616 0.808411 0.112942 -0.412572
H16   H     H_    0.747969 0.829710 0.064106 0.196344
H17   H     H_    0.659330 0.863819 0.207988 0.229556
H18   H     H_    0.584980 0.835405 0.042829 0.322322
N5    N     N_2   0.018060 0.323601 0.171986 -0.443728
H19   H     H_    0.985302 0.272506 0.088665 0.254553
C35   C     C_3   0.054797 0.248613 0.287528 -0.560622
H20   H     H_    0.979501 0.236778 0.362544 0.220636
H21   H     H_    0.137327 0.289926 0.341119 0.247047
H22   H     H_    0.074814 0.156372 0.250806 0.234771
N6    N     N_2   0.980551 0.684437 0.818823 -0.431619
H23   H     H_    0.981638 0.703916 0.714456 0.269058
C36   C     C_3   0.983167 0.794140 0.901774 -0.633573
H24   H     H_    0.892699 0.830865 0.900385 0.261201
H25   H     H_    0.049249 0.865828 0.857289 0.236469
H26   H     H_    0.013856 0.776128 0.008867 0.221266
Cl1   Cl    Cl    0.556204 0.129613 0.213886 -0.532138
Cl2   Cl    Cl    0.443993 0.869808 0.786219 -0.531974
Cl3   Cl    Cl    0.404909 0.872709 0.227397 -0.599831
Cl4   Cl    Cl    0.601298 0.123954 0.768715 -0.600598
Cl5   Cl    Cl    0.337647 0.299589 0.160608 -0.581450
Cl6   Cl    Cl    0.665152 0.695097 0.833333 -0.589080

loop_
_geom_bond_atom_site_label_1
_geom_bond_atom_site_label_2
_ccdc_geom_bond_type
N3    H11   S    
C34   H17   S    
C27   C29   A    
Cu1   N1    S    
N6    H23   S    
C25   N5    S    
C14   Cl6   S    
C17   O5    A    
C18   O6    A    
C20   C30   A    
C31   H9    S    
C19   C21   A    
C24   C26   A    
C13   N2    A    
C33   H13   S    
C26   N6    S    
C3    C18   S    
C35   H21   S    
C28   H8    S    
N4    C34   S    
C19   H3    S    
Cu2   N2    S    
C2    O4    A    
C5    C32   A    
C6    C31   A    
C34   H18   S    
N6    C36   S    
N4    H15   S    
C1    C12   S    
C2    C11   S    
C14   N1    A    
C21   C23   A    
C7    C12   A    
N5    H19   S    
C4    C6    A    
C16   N2    A    
C1    O1    A    
C33   H14   S    
C2    O2    A    
Cu1   O4    S    
C10   Cl4   S    
Cu1   O5    S    
N5    C35   S    
C15   N3    S    
C35   H22   S    
C36   H24   S    
C20   H4    S    
C27   H7    S    
C21   H5    S    
C22   H6    S    
Cu1   Cu2   S    
C32   H10   S    
C3    C31   A    
C9    C11   A    
C4    C32   A    
C10   C12   A    
C4    C17   S    
C20   C22   A    
C13   C15   A    
Cu1   O1    S    
C14   C16   A    
Cu2   O2    S    
C16   N4    S    
C15   N1    A    
C19   C29   A    
C17   O7    A    
C7    Cl1   S    
Cu1   O8    S    
C7    C9    A    
C29   H1    S    
Cu2   O3    S    
C26   C28   A    
C3    C5    A    
C25   C27   A    
C13   Cl5   S    
Cu2   O6    S    
C30   H2    S    
N3    C33   S    
C33   H12   S    
C5    C24   S    
C8    C11   A    
C6    C23   S    
C28   C30   A    
C22   C24   A    
C23   C25   A    
C35   H20   S    
C36   H26   S    
C18   O8    A    
C34   H16   S    
Cu2   O7    S    
C8    C10   A    
C36   H25   S    
C8    Cl2   S    
C1    O3    A    
C9    Cl3   S    
