data_mof_unit_52767.cif
_audit_creation_date              2012-12-11T14:22:58-0500
_audit_creation_method            fapswitch 2.2
_symmetry_space_group_name_H-M    P1
_symmetry_Int_Tables_number       1
_space_group_crystal_system       triclinic
_cell_length_a                    10.937685
_cell_length_b                    10.981047
_cell_length_c                    18.83423
_cell_angle_alpha                 90.495145
_cell_angle_beta                  89.997534
_cell_angle_gamma                 60.588462
_cell_volume                      1970.47539374

loop_
_atom_site_label
_atom_site_type_symbol
_atom_type_description
_atom_site_fract_x
_atom_site_fract_y
_atom_site_fract_z
_atom_type_partial_charge
C1    C     C_R   0.241363 0.643365 0.611196 0.529560
C2    C     C_R   0.559305 0.183749 0.715871 -0.159667
C3    C     C_R   0.570048 0.179531 0.787795 -0.174959
C4    C     C_R   0.655050 0.623053 0.600440 0.534095
C5    C     C_R   0.937642 0.115202 0.810030 -0.104456
C6    C     C_R   0.049618 0.095516 0.767026 -0.145389
C7    C     C_R   0.040801 0.089196 0.693720 -0.132270
C8    C     C_R   0.918172 0.107331 0.662622 -0.086566
C9    C     C_R   0.669704 0.169199 0.673276 -0.009402
C10   C     C_R   0.193963 0.659027 0.837511 -0.006489
C11   C     C_R   0.204065 0.541830 0.800435 0.022922
C12   C     C_3   0.653902 0.592200 0.803227 0.170259
C13   C     C_R   0.197976 0.543790 0.725000 0.021104
C14   C     C_R   0.226363 0.750199 0.727694 -0.133193
C15   C     C_R   0.215893 0.756031 0.800698 -0.095949
C16   C     C_R   0.629696 0.225632 0.601788 0.529741
C17   C     C_R   0.216930 0.424354 0.836797 -0.095813
C18   C     C_R   0.207512 0.318548 0.800640 -0.150137
C19   C     C_R   0.185805 0.327494 0.727791 -0.160334
C20   C     C_R   0.179923 0.438944 0.690225 -0.106549
C21   C     C_R   0.209601 0.650693 0.688014 -0.011773
C22   C     C_R   0.670956 0.652040 0.169544 -0.006710
C23   C     C_3   0.718589 0.690790 0.808286 0.063593
C24   C     C_R   0.787752 0.552985 0.210769 0.033973
C25   C     C_R   0.787516 0.576446 0.283972 0.016175
C26   C     C_R   0.534070 0.722463 0.276892 -0.138808
C27   C     C_R   0.542536 0.730814 0.203342 -0.166207
C28   C     C_R   0.217721 0.649863 0.403588 0.537717
C29   C     C_R   0.904887 0.431702 0.182065 -0.072224
C30   C     C_R   0.027827 0.358550 0.220594 -0.086325
C31   C     C_R   0.032984 0.395297 0.290636 -0.116121
C32   C     C_R   0.915638 0.507045 0.321551 -0.093765
C33   C     C_R   0.656699 0.654271 0.318311 -0.001046
C34   C     C_3   0.677450 0.653713 0.674679 0.023853
C35   C     C_R   0.657970 0.108975 0.182977 -0.002393
C36   C     C_R   0.570286 0.079912 0.227481 0.013507
C37   C     C_R   0.582032 0.091255 0.301138 0.025867
C38   C     C_R   0.698406 0.228002 0.278681 -0.152455
C39   C     C_R   0.711816 0.192074 0.208190 -0.174049
C40   C     C_R   0.642419 0.622649 0.392236 0.530407
C41   C     C_R   0.463447 0.052539 0.202449 -0.100522
C42   C     C_R   0.372889 0.039101 0.249902 -0.143892
C43   C     C_R   0.400622 0.029027 0.322103 -0.118746
C44   C     C_R   0.512168 0.043617 0.347031 -0.081793
C45   C     C_3   0.833191 0.610769 0.686832 -0.261033
C46   C     C_R   0.647634 0.166667 0.326389 0.014304
C47   C     C_R   0.072158 0.722330 0.195265 0.004307
C48   C     C_R   0.043121 0.836573 0.242523 -0.024336
C49   C     C_R   0.056526 0.812135 0.316019 0.012205
C50   C     C_R   0.182902 0.563005 0.291710 -0.142363
C51   C     C_R   0.149759 0.584988 0.220352 0.257595
C52   C     C_R   0.618290 0.225636 0.396678 0.529996
C53   C     C_R   0.016880 0.970304 0.220619 -0.108867
C54   C     C_R   0.004165 0.070598 0.270180 -0.148001
C55   C     C_R   0.993914 0.051564 0.341907 -0.105124
C56   C     C_3   0.638584 0.564500 0.723979 -0.170527
C57   C     C_R   0.010223 0.925270 0.364515 -0.073743
C58   C     C_R   0.137725 0.675078 0.339161 -0.051813
C59   C     C_R   0.705395 0.097672 0.894742 0.533913
C60   C     C_R   0.751335 0.708019 0.882914 0.549707
C61   C     C_R   0.121789 0.703811 0.906778 0.515794
C62   C     C_R   0.694397 0.053722 0.111663 0.542188
C63   C     C_R   0.697172 0.686482 0.097275 0.510500
C64   C     C_3   0.616631 0.833209 0.773117 -0.210488
C65   C     C_R   0.033641 0.744392 0.119933 0.557608
C66   C     C_3   0.586097 0.810081 0.695521 -0.241483
C67   C     C_R   0.695881 0.147225 0.821496 -0.022026
C68   C     C_3   0.857990 0.626244 0.765833 -0.281555
C69   C     C_3   0.348195 0.422308 0.162212 0.007121
C70   C     C_3   0.374015 0.521305 0.115413 -0.259151
C71   C     C_3   0.529449 0.467006 0.105003 -0.500968
C72   C     C_3   0.517673 0.612573 0.906890 0.016971
C73   C     C_3   0.568242 0.456236 0.916657 -0.294844
C74   C     C_3   0.713178 0.379612 0.952190 -0.438354
C75   C     C_R   0.811590 0.132650 0.780003 0.018913
C76   C     C_R   0.799703 0.136909 0.704577 0.019723
Cr1   Cr    Cr6+3 0.392940 0.397950 0.502230 0.991837
Cr2   Cr    Cr6+3 0.398400 0.708500 0.501260 0.990355
Cr3   Cr    Cr6+3 0.708640 0.393530 0.496460 0.987035
Cr4   Cr    Cr6+3 0.937880 0.938320 0.007620 0.957868
Cr5   Cr    Cr6+3 0.625560 0.937220 0.994510 0.972966
Cr6   Cr    Cr6+3 0.938080 0.625010 0.001190 0.997437
H1    H     H_    0.665652 0.900907 0.773816 0.122081
H2    H     H_    0.918943 0.094238 0.605665 0.125894
H3    H     H_    0.249755 0.824278 0.702384 0.141733
H4    H     H_    0.220346 0.840332 0.828527 0.152658
H5    H     H_    0.155349 0.442962 0.634618 0.136772
H6    H     H_    0.431108 0.770009 0.301377 0.152847
H7    H     H_    0.901996 0.389113 0.130490 0.125850
H8    H     H_    0.449318 0.795250 0.172714 0.120083
H9    H     H_    0.117595 0.269816 0.196653 0.124325
H10   H     H_    0.127501 0.336122 0.321275 0.117914
H11   H     H_    0.924210 0.534958 0.375861 0.129608
H12   H     H_    0.707871 0.451272 0.711891 0.106819
H13   H     H_    0.439479 0.049910 0.147383 0.157648
H14   H     H_    0.766059 0.228419 0.173572 0.123316
H15   H     H_    0.287193 0.025807 0.230184 0.104562
H16   H     H_    0.337430 0.007137 0.358537 0.119502
H17   H     H_    0.534655 0.029512 0.403257 0.125703
H18   H     H_    0.253163 0.457255 0.308893 0.146850
H19   H     H_    0.009160 0.002874 0.166616 0.164173
H20   H     H_    0.608701 0.876443 0.659474 0.114561
H21   H     H_    0.984698 0.169954 0.252202 0.110747
H22   H     H_    0.002298 0.911507 0.420910 0.114509
H23   H     H_    0.931076 0.521684 0.787463 0.159375
H24   H     H_    0.907871 0.693047 0.771513 0.128225
H25   H     H_    0.728697 0.489876 0.826040 0.126319
H26   H     H_    0.529498 0.587023 0.712892 0.160721
H27   H     H_    0.515779 0.888968 0.802940 0.166080
H28   H     H_    0.238310 0.411353 0.893122 0.129332
H29   H     H_    0.217846 0.229564 0.829608 0.103614
H30   H     H_    0.175782 0.246903 0.699746 0.111898
H31   H     H_    0.472779 0.842831 0.690319 0.134595
H32   H     H_    0.732793 0.300664 0.296129 0.149999
H33   H     H_    0.390238 0.320809 0.133770 0.179640
H34   H     H_    0.902432 0.500078 0.670423 0.151252
H35   H     H_    0.407415 0.401310 0.212846 0.132972
H36   H     H_    0.323956 0.531832 0.062806 0.186830
H37   H     H_    0.330013 0.626094 0.140740 0.170270
H38   H     H_    0.579382 0.461275 0.156950 0.157234
H39   H     H_    0.543772 0.540492 0.070737 0.139849
H40   H     H_    0.578877 0.361838 0.079945 0.172331
H41   H     H_    0.971642 0.135044 0.379546 0.124884
H42   H     H_    0.862497 0.676836 0.654359 0.120242
H43   H     H_    0.407043 0.670914 0.925385 0.135530
H44   H     H_    0.571795 0.648822 0.943335 0.183167
H45   H     H_    0.459736 0.204773 0.693905 0.164658
H46   H     H_    0.491711 0.444797 0.950848 0.127260
H47   H     H_    0.569386 0.407745 0.864766 0.184026
H48   H     H_    0.799017 0.341690 0.912652 0.140880
H49   H     H_    0.723633 0.288613 0.981733 0.173863
H50   H     H_    0.729148 0.446537 0.991204 0.162685
H51   H     H_    0.952156 0.120086 0.866212 0.143725
H52   H     H_    0.479791 0.192329 0.817075 0.157706
H53   H     H_    0.146218 0.079149 0.790852 0.093971
H54   H     H_    0.130460 0.067251 0.660717 0.098473
O1    O     O_R   0.507340 0.255690 0.581430 -0.530508
O2    O     O_R   0.837290 0.593240 0.915240 -0.546427
O3    O     O_R   0.065320 0.635310 0.931580 -0.515428
O4    O     O_R   0.280360 0.527380 0.578910 -0.513117
O5    O     O_R   0.068470 0.828620 0.091850 -0.567160
O6    O     O_R   0.799150 0.057200 0.079350 -0.535900
O7    O     O_R   0.585220 0.080180 0.076770 -0.548138
O8    O     O_R   0.627170 0.809480 0.067050 -0.519043
O9    O     O_R   0.816200 0.596410 0.076500 -0.535723
O10   O     O_R   0.045770 0.638240 0.081070 -0.438580
O11   O     O_3   0.833840 0.833520 0.001110 -0.277100
O12   O     O_R   0.524510 0.695820 0.424050 -0.507357
O13   O     O_R   0.260600 0.739610 0.584580 -0.533856
O14   O     O_R   0.532370 0.695050 0.573830 -0.509763
O15   O     O_R   0.744850 0.503430 0.576380 -0.527569
O16   O     O_R   0.699080 0.276500 0.571950 -0.511575
O17   O     O_R   0.498860 0.256520 0.419860 -0.531461
O18   O     O_R   0.272490 0.528150 0.429140 -0.510801
O19   O     O_R   0.252110 0.740440 0.423010 -0.521628
O20   O     O_3   0.203506 0.472006 0.173828 -0.554148
O21   O     O_3   0.518412 0.652784 0.835382 -0.586231
O22   O     O_R   0.736370 0.504260 0.414810 -0.530797
O23   O     O_R   0.691220 0.277270 0.422180 -0.514238
O24   O     O_3   0.499990 0.499990 0.499980 -0.236894
O25   O     O_R   0.089570 0.825450 0.930590 -0.527550
O26   O     O_R   0.818700 0.054260 0.929860 -0.516442
O27   O     O_R   0.606310 0.077010 0.915520 -0.530658
O28   O     O_R   0.646730 0.806540 0.917560 -0.510109

loop_
_geom_bond_atom_site_label_1
_geom_bond_atom_site_label_2
_ccdc_geom_bond_type
C1    C21   S    
C66   H31   S    
C74   H50   S    
C41   C42   A    
C66   H20   S    
C71   H40   S    
C35   C39   A    
C19   C20   A    
C43   H16   S    
C62   O7    A    
C75   C76   A    
C17   H28   S    
C34   C66   S    
Cr3   O22   S    
C29   H7    S    
Cr6   O11   S    
C7    C8    A    
C53   C54   A    
C56   H12   S    
C12   C23   S    
C26   C27   A    
C29   C30   A    
C71   H38   S    
C61   O25   A    
C14   C21   A    
C40   O22   A    
C36   C37   A    
C9    C16   S    
Cr1   O1    S    
C10   C15   A    
Cr3   O23   S    
C5    C6    A    
C38   H32   S    
C44   H17   S    
Cr2   O19   S    
C20   H5    S    
C46   C52   S    
C8    C76   A    
C49   C57   A    
C27   H8    S    
C18   C19   A    
C73   C74   S    
C57   H22   S    
C24   C29   A    
C56   H26   S    
Cr1   O17   S    
C22   C63   S    
Cr4   O11   S    
C69   H33   S    
C16   O1    A    
C53   H19   S    
Cr5   O11   S    
C28   O19   A    
C63   O8    A    
Cr1   O4    S    
C1    O13   A    
C70   C71   S    
C9    C76   A    
C12   O21   S    
C70   H37   S    
Cr2   O12   S    
C34   C56   S    
C72   C73   S    
C59   C67   S    
C2    H45   S    
C52   O23   A    
C32   H11   S    
C74   H49   S    
C28   O18   A    
Cr5   O27   S    
C36   C41   A    
C48   C53   A    
C68   H24   S    
C62   O6    A    
Cr6   O10   S    
C50   C51   A    
C55   H41   S    
Cr5   O8    S    
C45   H42   S    
C23   C60   S    
C39   H14   S    
C73   H47   S    
C51   O20   S    
C69   O20   S    
C40   O12   A    
C33   C40   S    
C54   H21   S    
C38   C39   A    
C24   C25   A    
C42   H15   S    
Cr3   O24   S    
C61   O3    A    
C47   C51   A    
C52   O17   A    
C19   H30   S    
C72   O21   S    
C72   H44   S    
C35   C36   A    
C50   C58   A    
C23   C68   S    
C5    C75   A    
C5    H51   S    
C43   C44   A    
C64   H1    S    
Cr6   O3    S    
Cr1   O18   S    
C65   O5    A    
C26   C33   A    
C47   C48   A    
C30   C31   A    
C45   C68   S    
C17   C18   A    
C13   C21   A    
C16   O16   A    
C34   C45   S    
C18   H29   S    
Cr4   O26   S    
C12   C56   S    
C1    O4    A    
C15   H4    S    
Cr2   O24   S    
C23   C64   S    
C31   H10   S    
Cr4   O6    S    
C22   C27   A    
C74   H48   S    
Cr5   O28   S    
C22   C24   A    
C6    H53   S    
C67   C75   A    
C42   C43   A    
Cr6   O9    S    
Cr2   O14   S    
Cr3   O15   S    
C4    O15   A    
C54   C55   A    
C11   C17   A    
C13   C20   A    
C8    H2    S    
C71   H39   S    
C31   C32   A    
C3    C67   A    
C14   H3    S    
C30   H9    S    
C12   H25   S    
C6    C7    A    
C28   C58   S    
C73   H46   S    
C4    O14   A    
C50   H18   S    
C72   H43   S    
C3    H52   S    
C37   C44   A    
C55   C57   A    
C2    C3    A    
C37   C46   A    
C7    H54   S    
Cr6   O2    S    
C59   O26   A    
C11   C13   A    
C45   H34   S    
C64   H27   S    
C41   H13   S    
C70   H36   S    
C48   C49   A    
C69   H35   S    
C60   O28   A    
C47   C65   S    
C35   C62   S    
C4    C34   S    
C69   C70   S    
Cr4   O25   S    
C38   C46   A    
C59   O27   A    
C10   C11   A    
C49   C58   A    
Cr1   O24   S    
C10   C61   S    
Cr5   O7    S    
C26   H6    S    
Cr4   O5    S    
C68   H23   S    
C25   C33   A    
C14   C15   A    
C65   O10   A    
C2    C9    A    
C63   O9    A    
Cr2   O13   S    
C64   C66   S    
Cr3   O16   S    
C25   C32   A    
C60   O2    A    
