data_mof_unit_15014.cif
_audit_creation_date              2013-03-05T16:36:14-0500
_audit_creation_method            fapswitch 2.2
_symmetry_space_group_name_H-M    P1
_symmetry_Int_Tables_number       1
_space_group_crystal_system       triclinic
_cell_length_a                    27.865837
_cell_length_b                    9.062549
_cell_length_c                    7.777989
_cell_angle_alpha                 90.014849
_cell_angle_beta                  90.212237
_cell_angle_gamma                 89.983953
_cell_volume                      1964.20482575

loop_
_atom_site_label
_atom_site_type_symbol
_atom_site_description
_atom_site_fract_x
_atom_site_fract_y
_atom_site_fract_z
_atom_type_partial_charge
O1    O     O_R   0.500000 0.288390 0.642760 -0.580529
O2    O     O_R   0.500000 0.711610 0.357240 -0.580534
O3    O     O_R   0.500000 0.711610 0.642760 -0.569869
O4    O     O_R   0.500000 0.288390 0.357240 -0.569856
C1    C     C_R   0.499961 0.220036 0.499984 0.836522
C2    C     C_R   0.500036 0.779964 0.500016 0.836608
O5    O     O_R   0.430260 0.500000 0.642770 -0.549281
O6    O     O_R   0.569740 0.500000 0.357230 -0.549295
O7    O     O_R   0.569740 0.500000 0.642770 -0.601752
O8    O     O_R   0.430260 0.500000 0.357230 -0.601772
C3    C     C_R   0.407292 0.498261 0.499533 0.830858
C4    C     C_R   0.592708 0.501765 0.500470 0.830782
Cu1   Cu    Cu3+1 0.500000 0.500000 0.669080 1.003150
Cu2   Cu    Cu3+1 0.500000 0.500000 0.330920 1.003159
C5    C     C_R   0.177627 0.372362 0.548909 0.544557
C6    C     C_R   0.822377 0.628056 0.451599 0.544555
C7    C     C_R   0.177911 0.628220 0.477830 0.547747
C8    C     C_R   0.822096 0.372144 0.522416 0.547721
O9    O     O_2   0.202135 0.248231 0.587958 -0.533240
O10   O     O_2   0.797868 0.752206 0.412637 -0.533215
O11   O     O_2   0.202685 0.752159 0.440985 -0.533680
O12   O     O_2   0.797324 0.248167 0.559111 -0.533676
N1    N     N_R   0.201934 0.500018 0.513744 -0.451788
N2    N     N_R   0.798070 0.500359 0.486581 -0.451785
C9    C     C_R   0.279643 0.588972 0.622902 -0.168548
C10   C     C_R   0.720391 0.411359 0.377208 -0.168613
C11   C     C_R   0.277698 0.408532 0.393856 -0.113748
C12   C     C_R   0.722273 0.591729 0.606327 -0.113755
C13   C     C_R   0.329813 0.592282 0.616681 0.182755
C14   C     C_R   0.670220 0.407944 0.383349 0.182717
C15   C     C_R   0.327750 0.407013 0.387490 0.155405
C16   C     C_R   0.672221 0.593160 0.612606 0.155409
C17   C     C_R   0.253507 0.498739 0.510813 0.252811
C18   C     C_R   0.746496 0.501595 0.489384 0.252808
C19   C     C_R   0.101779 0.500517 0.509178 -0.043970
C20   C     C_R   0.898226 0.499901 0.491305 -0.043987
C21   C     C_R   0.127254 0.369946 0.545494 -0.022128
C22   C     C_R   0.872749 0.630493 0.455100 -0.022120
C23   C     C_R   0.127537 0.631114 0.476651 -0.023025
C24   C     C_R   0.872469 0.369270 0.523666 -0.023009
C25   C     C_R   0.102099 0.239776 0.577237 -0.147199
C26   C     C_R   0.897903 0.760704 0.423564 -0.147165
C27   C     C_R   0.102657 0.761493 0.442426 -0.147331
C28   C     C_R   0.897351 0.238870 0.557767 -0.147309
C29   C     C_R   0.354421 0.500156 0.499222 -0.130933
C30   C     C_R   0.645580 0.499987 0.500808 -0.130844
H1    H     H_    0.257379 0.338518 0.307239 0.176631
H2    H     H_    0.742568 0.661749 0.693013 0.176647
H3    H     H_    0.260784 0.658775 0.713377 0.164680
H4    H     H_    0.739275 0.341611 0.286743 0.164697
H5    H     H_    0.120842 0.137739 0.605301 0.187277
H6    H     H_    0.879158 0.862767 0.395646 0.187237
H7    H     H_    0.121620 0.863695 0.417918 0.187445
H8    H     H_    0.878390 0.136634 0.582106 0.187398
C31   C     C_R   0.974341 0.366682 0.531497 0.044609
C32   C     C_R   0.025664 0.633738 0.468981 0.044595
C33   C     C_R   0.974619 0.633498 0.464028 0.044584
C34   C     C_R   0.025385 0.366947 0.536580 0.044574
C35   C     C_R   0.949296 0.500013 0.495548 0.068788
C36   C     C_R   0.050709 0.500416 0.504979 0.068802
C37   C     C_R   0.947139 0.237123 0.561154 -0.209579
C38   C     C_R   0.052868 0.763254 0.439104 -0.209615
C39   C     C_R   0.947687 0.762615 0.428140 -0.209918
C40   C     C_R   0.052315 0.237871 0.572685 -0.209960
H9    H     H_    0.962935 0.131287 0.587886 0.134187
H10   H     H_    0.037075 0.869056 0.412174 0.134270
H11   H     H_    0.963699 0.868229 0.402454 0.134473
H12   H     H_    0.036301 0.132303 0.598613 0.134559
C41   C     C_1   0.499983 0.065423 0.499979 -0.193057
C42   C     C_1   0.500013 0.934577 0.500021 -0.193097
N3    N     N_1   0.500000 0.500000 0.076820 -0.047466
N4    N     N_1   0.500000 0.500000 0.923180 -0.047473
N5    N     N_2   0.350048 0.306643 0.271938 -0.423824
H13   H     H_    0.376547 0.350463 0.195640 0.281191
C43   C     C_3   0.362359 0.165546 0.346809 -0.642935
H14   H     H_    0.389909 0.179660 0.449121 0.203954
H15   H     H_    0.377001 0.091707 0.245846 0.227831
H16   H     H_    0.329914 0.112675 0.402021 0.249365
N6    N     N_2   0.649889 0.693468 0.728150 -0.423833
H17   H     H_    0.623403 0.649574 0.804447 0.281213
C44   C     C_3   0.637542 0.834533 0.653273 -0.642877
H18   H     H_    0.610047 0.820327 0.550786 0.203956
H19   H     H_    0.669987 0.887574 0.598288 0.249317
H20   H     H_    0.622815 0.908269 0.754177 0.227784
N7    N     N_2   0.355311 0.689971 0.727610 -0.404707
H21   H     H_    0.338781 0.707098 0.844427 0.256894
C45   C     C_3   0.369423 0.827190 0.647317 -0.639803
H22   H     H_    0.337128 0.893295 0.613710 0.230245
H23   H     H_    0.390636 0.806058 0.529195 0.214244
H24   H     H_    0.392051 0.891786 0.737879 0.228061
N8    N     N_2   0.644761 0.310202 0.272364 -0.404697
H25   H     H_    0.661331 0.293056 0.155623 0.256907
C46   C     C_3   0.630646 0.172987 0.352662 -0.639711
H26   H     H_    0.662945 0.107174 0.386990 0.230281
H27   H     H_    0.608197 0.108086 0.261837 0.227990
H28   H     H_    0.609254 0.194132 0.470343 0.214261

loop_
_geom_bond_atom_site_label_1
_geom_bond_atom_site_label_2
_geom_bond_distance
_ccdc_geom_bond_type
O5    Cu1   1.953354 S    
C45   H22   1.111359 S    
C46   H26   1.111342 S    
C31   C35   1.422523 A    
Cu2   N3    1.976386 S    
C19   C23   1.407821 A    
C20   C35   1.423350 A    
C44   H18   1.111092 S    
N7    H21   1.031900 S    
C11   C17   1.397885 A    
O5    C3    1.282883 A    
C7    N1    1.369078 A    
C21   C25   1.394938 A    
O1    C1    1.271458 A    
C40   H12   1.075224 S    
C19   C21   1.407895 A    
C22   C26   1.394946 A    
C10   H4    1.083454 S    
C15   N5    1.422900 S    
C34   C36   1.422448 A    
C32   C33   1.422790 A    
C7    C23   1.403939 A    
C8    C24   1.403915 A    
C5    C21   1.404007 A    
O7    Cu1   1.954859 S    
C27   H7    1.083755 S    
N1    C17   1.437436 S    
C1    C41   1.401189 S    
C8    N2    1.369094 A    
C13   N7    1.424240 S    
O3    Cu1   1.928675 S    
C6    O10   1.349953 S    
O3    C2    1.271523 A    
C5    N1    1.368927 A    
C12   C18   1.397877 A    
C6    N2    1.368940 A    
Cu1   Cu2   2.630206 S    
C34   C40   1.417201 A    
N5    C43   1.445870 S    
O2    C2    1.271458 A    
C44   H19   1.111116 S    
C10   C18   1.398025 A    
C33   C39   1.417207 A    
C9    H3    1.083457 S    
N7    C45   1.446922 S    
N5    H13   1.028922 S    
C9    C13   1.399378 A    
C39   H11   1.075220 S    
C38   H10   1.075221 S    
C11   C15   1.395864 A    
C20   C24   1.407825 A    
C4    C30   1.473402 S    
O8    Cu2   1.954862 S    
N8    H25   1.031898 S    
N6    C44   1.445876 S    
C14   N8    1.424257 S    
C23   C27   1.394974 A    
C43   H16   1.111140 S    
N2    C18   1.437439 S    
C32   C36   1.422521 A    
C13   C29   1.416275 A    
C19   C36   1.423357 A    
C5    O9    1.349944 S    
C43   H14   1.111078 S    
C28   H8    1.083760 S    
N8    C46   1.446939 S    
C12   C16   1.395847 A    
O6    C4    1.282905 A    
C9    C17   1.398019 A    
C43   H15   1.110352 S    
C10   C14   1.399392 A    
C46   H28   1.110741 S    
C45   H23   1.110886 S    
C32   C38   1.417145 A    
C3    C29   1.473394 S    
O1    Cu1   1.928570 S    
C44   H20   1.110346 S    
C11   H1    1.083618 S    
C2    C42   1.401188 S    
C12   H2    1.083619 S    
O6    Cu2   1.953351 S    
C8    O12   1.349964 S    
C16   C30   1.419664 A    
C14   C30   1.416276 A    
O4    C1    1.271523 A    
Cu1   N4    1.976386 S    
C28   C37   1.387639 A    
C20   C22   1.407903 A    
N3    N4    1.195011 T    
C16   N6    1.422903 S    
C31   C34   1.422781 A    
C31   C37   1.417144 A    
O4    Cu2   1.928676 S    
C41   C42   1.185800 T    
O2    Cu2   1.928569 S    
O7    C4    1.280687 A    
C7    O11   1.349954 S    
C33   C35   1.422453 A    
O8    C3    1.280703 A    
N6    H17   1.028922 S    
C37   H9    1.075234 S    
C24   C28   1.394983 A    
C46   H27   1.110419 S    
C15   C29   1.419627 A    
C45   H24   1.110486 S    
C6    C22   1.404012 A    
C25   C40   1.387700 A    
C26   C39   1.387705 A    
C25   H5    1.083748 S    
C27   C38   1.387653 A    
C26   H6    1.083756 S    
