data_mof_unit_11565.cif
_audit_creation_date              2012-12-11T15:54:03-0500
_audit_creation_method            fapswitch 2.2
_symmetry_space_group_name_H-M    P1
_symmetry_Int_Tables_number       1
_space_group_crystal_system       triclinic
_cell_length_a                    10.691312
_cell_length_b                    10.685196
_cell_length_c                    17.03685
_cell_angle_alpha                 80.607954
_cell_angle_beta                  99.452405
_cell_angle_gamma                 118.935535
_cell_volume                      1672.25691803

loop_
_atom_site_label
_atom_site_type_symbol
_atom_type_description
_atom_site_fract_x
_atom_site_fract_y
_atom_site_fract_z
_atom_type_partial_charge
C1    C     C_R   0.384466 0.284106 0.631947 0.532533
C2    C     C_1   0.333293 0.186936 0.781537 -0.029691
C3    C     C_1   0.335429 0.663749 0.277755 -0.049861
C4    C     C_R   0.413823 0.621556 0.601997 0.547074
C5    C     C_1   0.323077 0.672940 0.206996 -0.050408
C6    C     C_R   0.872985 0.687348 0.168595 0.020370
C7    C     C_R   0.924153 0.609380 0.226210 0.030981
C8    C     C_R   0.911689 0.602525 0.305584 0.024178
C9    C     C_R   0.828598 0.780417 0.274977 -0.155664
C10   C     C_R   0.838991 0.784699 0.193955 -0.157795
C11   C     C_3   0.897796 0.457822 0.231738 -0.270107
C12   C     C_R   0.518594 0.721026 0.735764 -0.053820
C13   C     C_3   0.882582 0.448811 0.319627 -0.267566
C14   C     C_R   0.849333 0.676370 0.330016 0.023395
C15   C     C_R   0.305526 0.131632 0.168752 0.017487
C16   C     C_R   0.780913 0.620866 0.626355 0.557398
C17   C     C_R   0.187086 0.114659 0.202128 0.041301
C18   C     C_R   0.192935 0.123956 0.281537 0.029678
C19   C     C_R   0.429969 0.141358 0.301557 -0.154608
C20   C     C_R   0.422969 0.131923 0.220055 -0.160772
C21   C     C_3   0.096363 0.187853 0.177195 -0.272964
C22   C     C_3   0.102457 0.199992 0.264970 -0.265707
C23   C     C_R   0.498144 0.731233 0.814043 0.237254
C24   C     C_R   0.319778 0.151271 0.330988 0.020573
C25   C     C_R   0.947762 0.725075 0.851691 0.562091
C26   C     C_R   0.317650 0.704605 0.900085 0.561063
C27   C     C_R   0.286381 0.118424 0.858365 0.548104
C28   C     C_R   0.350084 0.223860 0.401025 0.563536
C29   C     C_R   0.894476 0.694162 0.086629 0.568309
C30   C     C_R   0.313028 0.700393 0.123851 0.552603
C31   C     C_R   0.283465 0.103808 0.086634 0.549214
C32   C     C_R   0.364950 0.654329 0.360805 0.564198
C33   C     C_R   0.775596 0.624819 0.401294 0.565857
C34   C     C_3   0.097146 0.494429 0.773806 -0.249490
C35   C     C_R   0.357982 0.651551 0.839765 0.022935
C36   C     C_R   0.253596 0.540703 0.795800 -0.058618
C37   C     C_R   0.274925 0.527951 0.720367 -0.026100
C38   C     C_1   0.654029 0.820687 0.704739 0.234420
C39   C     C_3   0.669038 0.960147 0.848198 0.030300
C40   C     C_3   0.740867 0.036623 0.923706 -0.338416
C41   C     C_1   0.044121 0.334339 0.667177 0.226319
C42   C     C_1   0.098607 0.585609 0.628401 0.229738
C43   C     C_3   0.120269 0.481974 0.690184 -0.021329
C44   C     C_R   0.401658 0.625335 0.686008 -0.063579
C45   C     C_1   0.850821 0.668709 0.702825 -0.021186
C46   C     C_1   0.897881 0.703406 0.769465 -0.031104
C47   C     C_1   0.364658 0.233752 0.714365 -0.033529
Cr1   Cr    Cr6+3 0.608440 0.389080 0.519680 1.035704
Cr2   Cr    Cr6+3 0.288640 0.400090 0.490760 1.034160
Cr3   Cr    Cr6+3 0.602940 0.710800 0.489510 1.047231
Cr4   Cr    Cr6+3 0.052530 0.947560 0.964210 1.023566
Cr5   Cr    Cr6+3 0.059970 0.626800 0.992920 1.004673
Cr6   Cr    Cr6+3 0.373320 0.938440 0.995370 0.999782
H1    H     H_    0.796091 0.387717 0.197075 0.139263
H2    H     H_    0.070206 0.581261 0.777074 0.134639
H3    H     H_    0.029055 0.390404 0.807363 0.138188
H4    H     H_    0.787787 0.845920 0.292344 0.140292
H5    H     H_    0.812745 0.857451 0.151197 0.126260
H6    H     H_    0.994175 0.451179 0.221103 0.147724
H7    H     H_    0.584719 0.990912 0.820023 0.139687
H8    H     H_    0.754250 0.001133 0.807515 0.157149
H9    H     H_    0.829717 0.012531 0.950634 0.166254
H10   H     H_    0.785814 0.154554 0.908624 0.075355
H11   H     H_    0.662644 0.001594 0.968312 0.172359
H12   H     H_    0.771865 0.371561 0.334665 0.156829
H13   H     H_    0.969645 0.435775 0.359617 0.153473
H14   H     H_    0.526928 0.155308 0.339263 0.134381
H15   H     H_    0.510873 0.130488 0.197082 0.133621
H16   H     H_    0.987219 0.114971 0.150752 0.137894
H17   H     H_    0.152977 0.293395 0.141877 0.140664
H18   H     H_    0.160834 0.313842 0.278899 0.160401
H19   H     H_    0.996389 0.134851 0.289145 0.136827
N1    N     N_1   0.761541 0.903191 0.679602 -0.253962
N2    N     N_1   0.984158 0.218186 0.648965 -0.252787
N3    N     N_1   0.082795 0.667300 0.579685 -0.275081
O1    O     O_R   0.754020 0.497590 0.609930 -0.510400
O2    O     O_R   0.406180 0.826930 0.920660 -0.498423
O3    O     O_R   0.358620 0.062870 0.901950 -0.508213
O4    O     O_R   0.481420 0.271390 0.600630 -0.485409
O5    O     O_R   0.163910 0.085460 0.050210 -0.524634
O6    O     O_R   0.935200 0.815170 0.045770 -0.498700
O7    O     O_R   0.916120 0.596690 0.069430 -0.514630
O8    O     O_R   0.192310 0.631200 0.086170 -0.507609
O9    O     O_R   0.406770 0.819480 0.096420 -0.515053
O10   O     O_R   0.359170 0.055960 0.064880 -0.505566
O11   O     O_3   0.161940 0.837600 0.984160 -0.270867
O12   O     O_R   0.295080 0.533620 0.397890 -0.507807
O13   O     O_R   0.263810 0.254550 0.589590 -0.480044
O14   O     O_R   0.300820 0.531200 0.560890 -0.497334
O15   O     O_R   0.491480 0.744020 0.564270 -0.485830
O16   O     O_R   0.726290 0.693800 0.583010 -0.494279
O17   O     O_R   0.747830 0.500190 0.434090 -0.513182
O18   O     O_R   0.475680 0.273800 0.437630 -0.499581
O19   O     O_R   0.257620 0.257160 0.413750 -0.517477
O20   O     O_3   0.613929 0.809730 0.867839 -0.532072
O21   O     O_R   0.485280 0.746620 0.388440 -0.505932
O22   O     O_R   0.720550 0.696220 0.420010 -0.505904
O23   O     O_3   0.500010 0.499990 0.499980 -0.301947
O24   O     O_R   0.163320 0.092900 0.874450 -0.508538
O25   O     O_R   0.934650 0.822080 0.882840 -0.454715
O26   O     O_R   0.915520 0.604140 0.893670 -0.514194
O27   O     O_R   0.191760 0.638110 0.923230 -0.524807

loop_
_geom_bond_atom_site_label_1
_geom_bond_atom_site_label_2
_ccdc_geom_bond_type
C34   H3    S    
C8    C13   S    
C31   O10   A    
Cr2   O12   S    
C35   C36   A    
C27   O3    A    
Cr3   O21   S    
C14   C33   S    
C7    C8    A    
C13   H12   S    
C45   C46   T    
C7    C11   S    
C12   C23   A    
Cr5   O27   S    
C42   N3    T    
C40   H10   S    
Cr6   O9    S    
C18   C24   A    
Cr1   O4    S    
C36   C37   A    
C10   H5    S    
C5    C30   S    
C40   H9    S    
C28   O19   A    
C30   O8    A    
Cr1   O1    S    
Cr4   O5    S    
C41   N2    T    
Cr3   O15   S    
C19   C20   A    
C19   H14   S    
Cr6   O11   S    
Cr2   O19   S    
C9    C10   A    
Cr4   O6    S    
C9    H4    S    
C1    O13   A    
Cr2   O23   S    
C34   H2    S    
C18   C22   S    
C21   C22   S    
C12   C38   S    
C41   C43   S    
Cr2   O13   S    
C11   H6    S    
Cr4   O11   S    
C22   H19   S    
C4    O15   A    
C13   H13   S    
Cr4   O24   S    
C15   C20   A    
C39   H8    S    
Cr5   O26   S    
Cr3   O23   S    
C26   O2    A    
Cr1   O18   S    
C31   O5    A    
C33   O17   A    
C39   C40   S    
C1    C47   S    
C4    C44   S    
C32   O12   A    
C17   C21   S    
C21   H16   S    
C28   O18   A    
C37   C43   S    
Cr5   O8    S    
Cr6   O2    S    
C9    C14   A    
C29   O6    A    
Cr3   O16   S    
C25   O25   A    
C27   O24   A    
C17   C18   A    
Cr5   O7    S    
C39   O20   S    
C2    C27   S    
C11   H1    S    
C32   O21   A    
C23   C35   A    
C1    O4    A    
C42   C43   S    
C22   H18   S    
C4    O14   A    
Cr4   O25   S    
C15   C17   A    
Cr3   O22   S    
C8    C14   A    
C16   O1    A    
C20   H15   S    
C34   C43   S    
C24   C28   S    
Cr2   O14   S    
C3    C5    T    
C16   C45   S    
C6    C10   A    
C15   C31   S    
C6    C7    A    
C2    C47   T    
Cr1   O23   S    
C40   H11   S    
C21   H17   S    
C37   C44   A    
Cr5   O11   S    
Cr6   O3    S    
C29   O7    A    
C12   C44   A    
C26   O27   A    
C11   C13   S    
C25   O26   A    
C39   H7    S    
C34   C36   S    
C23   O20   S    
C19   C24   A    
C33   O22   A    
C30   O9    A    
C3    C32   S    
C26   C35   S    
C6    C29   S    
C16   O16   A    
Cr1   O17   S    
Cr6   O10   S    
C25   C46   S    
C38   N1    T    
