data_mof_unit_60282.cif
_audit_creation_date              2012-12-10T17:10:05-0500
_audit_creation_method            fapswitch 2.2
_symmetry_space_group_name_H-M    P1
_symmetry_Int_Tables_number       1
_space_group_crystal_system       triclinic
_cell_length_a                    37.192645
_cell_length_b                    30.283031
_cell_length_c                    21.447274
_cell_angle_alpha                 89.853223
_cell_angle_beta                  54.720349
_cell_angle_gamma                 89.836672
_cell_volume                      19719.6416555

loop_
_atom_site_label
_atom_site_type_symbol
_atom_type_description
_atom_site_fract_x
_atom_site_fract_y
_atom_site_fract_z
_atom_type_partial_charge
C1    C     C_R   0.085662 0.499890 0.415384 0.787495
C2    C     C_R   0.914575 0.500039 0.585636 0.803254
C3    C     C_R   0.585528 0.000047 0.414790 0.793569
C4    C     C_R   0.414477 0.000112 0.585250 0.793699
C5    C     C_3   0.999360 0.499325 0.689148 -0.100533
C6    C     C_3   0.000951 0.500718 0.310531 -0.102711
C7    C     C_3   0.499394 0.999323 0.689151 -0.102157
C8    C     C_3   0.500613 0.999585 0.310848 -0.101330
C9    C     C_R   0.343815 0.464900 0.127605 0.094912
C10   C     C_R   0.657286 0.468603 0.877984 0.097414
C11   C     C_R   0.843436 0.966134 0.123979 0.096727
C12   C     C_R   0.156709 0.966276 0.876201 0.096964
C13   C     C_R   0.366797 0.499389 0.133962 -0.105017
C14   C     C_R   0.633803 0.499919 0.865806 -0.109776
C15   C     C_R   0.866474 0.998748 0.134448 -0.107953
C16   C     C_R   0.133539 0.998817 0.865529 -0.107700
C17   C     C_R   0.344269 0.533541 0.187306 0.077266
C18   C     C_R   0.656297 0.532392 0.808603 0.079237
C19   C     C_R   0.843638 0.030617 0.192382 0.079686
C20   C     C_R   0.156250 0.030662 0.807409 0.079783
C21   C     C_R   0.298006 0.531464 0.240366 0.044423
C22   C     C_R   0.702911 0.531195 0.757764 0.045676
C23   C     C_R   0.797444 0.027542 0.245388 0.044529
C24   C     C_R   0.202477 0.027683 0.754530 0.044373
C25   C     C_R   0.274355 0.499511 0.229239 -0.036438
C26   C     C_R   0.726504 0.502617 0.774893 -0.032767
C27   C     C_R   0.773864 0.998636 0.229210 -0.035413
C28   C     C_R   0.226157 0.998853 0.770927 -0.035469
C29   C     C_R   0.297388 0.467400 0.169923 0.056457
C30   C     C_R   0.703414 0.473473 0.838794 0.054174
C31   C     C_R   0.797010 0.969366 0.165532 0.054900
C32   C     C_R   0.203111 0.969593 0.834736 0.054799
C33   C     C_R   0.274761 0.559913 0.304601 -0.047969
C34   C     C_R   0.726716 0.558158 0.691287 -0.052996
C35   C     C_R   0.774209 0.052165 0.314241 -0.047096
C36   C     C_R   0.225653 0.052334 0.685604 -0.047151
C37   C     C_R   0.228502 0.559346 0.353025 0.064113
C38   C     C_R   0.773038 0.557296 0.643717 0.070884
C39   C     C_R   0.727958 0.051305 0.362562 0.066328
C40   C     C_R   0.271912 0.051550 0.637391 0.066323
C41   C     C_R   0.204238 0.530760 0.337574 0.060189
C42   C     C_R   0.796794 0.528557 0.660102 0.062349
C43   C     C_R   0.703774 0.026896 0.341783 0.061240
C44   C     C_R   0.296167 0.027146 0.658294 0.061242
C45   C     C_R   0.999790 0.499849 0.620427 0.801305
C46   C     C_R   0.000578 0.500143 0.379203 0.801963
C47   C     C_R   0.499819 0.999848 0.620411 0.800924
C48   C     C_R   0.500189 0.999941 0.379583 0.801592
C49   C     C_R   0.227594 0.499537 0.277343 0.022370
C50   C     C_R   0.773300 0.502847 0.728008 0.017238
C51   C     C_R   0.727089 0.999133 0.276363 0.021478
C52   C     C_R   0.272932 0.999393 0.723838 0.021364
C53   C     C_R   0.204298 0.467788 0.265347 0.068432
C54   C     C_R   0.796585 0.477052 0.749160 0.074448
C55   C     C_R   0.703746 0.971986 0.257356 0.071942
C56   C     C_R   0.296358 0.972284 0.743021 0.071932
C57   C     C_R   0.227531 0.438365 0.203805 -0.239396
C58   C     C_R   0.773056 0.451816 0.816258 -0.238497
C59   C     C_R   0.727170 0.945225 0.192111 -0.244017
C60   C     C_R   0.273019 0.945572 0.808428 -0.244142
C61   C     C_R   0.273036 0.438321 0.155810 -0.027090
C62   C     C_R   0.727430 0.449622 0.860590 -0.027746
C63   C     C_R   0.772795 0.943841 0.146321 -0.025783
C64   C     C_R   0.227401 0.944158 0.854170 -0.025675
C65   C     C_R   0.157384 0.531878 0.380808 -0.093604
C66   C     C_R   0.843413 0.524365 0.610587 -0.062633
C67   C     C_R   0.657007 0.028677 0.384887 -0.095512
C68   C     C_R   0.342932 0.028899 0.615169 -0.095511
C69   C     C_R   0.134462 0.499445 0.369129 -0.180949
C70   C     C_R   0.866143 0.500421 0.634064 -0.164049
C71   C     C_R   0.634128 0.000277 0.366911 -0.171817
C72   C     C_R   0.365885 0.000480 0.633258 -0.171640
C73   C     C_R   0.158089 0.466164 0.313911 -0.079537
C74   C     C_R   0.842993 0.477518 0.703765 -0.070239
C75   C     C_R   0.657383 0.972365 0.302982 -0.070611
C76   C     C_R   0.342718 0.972635 0.697378 -0.070414
C77   C     C_R   0.000036 0.414718 0.999181 0.840823
C78   C     C_R   0.500025 0.914750 0.999364 0.842054
C79   C     C_R   0.999992 0.499968 0.879892 0.807690
C80   C     C_R   0.999926 0.500395 0.120152 0.821811
C81   C     C_R   0.499980 0.999933 0.879924 0.808658
C82   C     C_R   0.500020 0.000002 0.120077 0.837890
C83   C     C_R   0.999968 0.585483 0.999975 0.803378
C84   C     C_R   0.499970 0.085469 0.999965 0.820552
C85   C     C_3   0.994386 0.458195 0.736101 -0.026727
C86   C     C_3   0.967416 0.475973 0.303233 -0.011564
C87   C     C_3   0.489637 0.959061 0.740884 -0.028702
C88   C     C_3   0.510589 0.959326 0.259208 -0.024397
C89   C     C_R   0.499987 0.414445 0.000125 0.778778
C90   C     C_R   0.000017 0.914463 0.000050 0.779374
C91   C     C_R   0.414720 0.500070 0.085432 0.791792
C92   C     C_R   0.585483 0.500002 0.914382 0.792330
C93   C     C_R   0.914603 0.999830 0.085572 0.793303
C94   C     C_R   0.085400 0.999850 0.914421 0.793397
C95   C     C_R   0.500033 0.585512 0.999866 0.777040
C96   C     C_R   0.000047 0.085470 0.999865 0.780107
C97   C     C_R   0.527174 0.657049 0.014540 -0.059899
C98   C     C_R   0.473949 0.657369 0.982888 -0.055885
C99   C     C_R   0.028801 0.156808 0.011099 -0.061069
C100  C     C_R   0.972870 0.157243 0.985682 -0.056096
C101  C     C_R   0.500309 0.634116 0.999260 -0.197427
C102  C     C_R   0.000478 0.134009 0.999122 -0.196185
C103  C     C_R   0.478127 0.703807 0.973446 0.062351
C104  C     C_R   0.523357 0.703525 0.023427 0.060382
C105  C     C_R   0.977060 0.203638 0.975703 0.062724
C106  C     C_R   0.025814 0.203393 0.018713 0.060649
C107  C     C_R   0.500747 0.727178 0.998495 -0.038185
C108  C     C_R   0.001566 0.227024 0.996963 -0.038119
C109  C     C_R   0.460462 0.727281 0.939731 0.069900
C110  C     C_R   0.541280 0.726715 0.056685 0.099711
C111  C     C_R   0.957607 0.227053 0.945034 0.070134
C112  C     C_R   0.046333 0.226764 0.047246 0.100522
C113  C     C_R   0.958729 0.273388 0.942361 0.135257
C114  C     C_R   0.045806 0.273151 0.048675 0.114158
C115  C     C_R   0.461594 0.773618 0.937276 0.134100
C116  C     C_R   0.540153 0.773105 0.059349 0.112249
C117  C     C_R   0.980092 0.297263 0.969093 0.101319
C118  C     C_R   0.023415 0.297307 0.023798 0.061178
C119  C     C_R   0.481179 0.797440 0.967341 0.100754
C120  C     C_R   0.520442 0.797389 0.029554 0.061850
C121  C     C_3   0.960773 0.483164 0.811032 -0.238797
C122  C     C_3   0.005268 0.458763 0.223293 -0.231958
C123  C     C_3   0.459096 0.987782 0.812675 -0.245152
C124  C     C_3   0.540970 0.988095 0.187357 -0.241432
C125  C     C_R   0.001706 0.273888 0.996633 -0.105768
C126  C     C_R   0.500793 0.774031 0.998500 -0.105597
C127  C     C_R   0.980864 0.343978 0.968160 0.080046
C128  C     C_R   0.021145 0.344226 0.026352 0.102454
C129  C     C_R   0.482158 0.844132 0.966197 0.078888
C130  C     C_R   0.518923 0.844355 0.030676 0.098093
C131  C     C_R   0.000322 0.366562 0.998390 -0.128748
C132  C     C_R   0.500164 0.866656 0.998984 -0.127569
C133  C     C_R   0.531928 0.342944 0.933682 -0.072151
C134  C     C_R   0.468527 0.342940 0.067547 -0.072801
C135  C     C_R   0.032329 0.843013 0.933720 -0.072429
C136  C     C_R   0.967738 0.843015 0.066586 -0.072933
C137  C     C_R   0.500070 0.365819 0.000414 -0.143858
C138  C     C_R   0.000044 0.865865 0.000150 -0.143346
C139  C     C_R   0.470401 0.296156 0.070217 0.009942
C140  C     C_R   0.529839 0.296258 0.930821 0.009615
C141  C     C_R   0.969519 0.796249 0.069431 0.009418
C142  C     C_R   0.030415 0.796296 0.930774 0.009272
C143  C     C_R   0.500039 0.272985 0.000430 0.013681
C144  C     C_R   0.999939 0.773050 0.000077 0.011897
C145  C     C_R   0.443721 0.271506 0.139560 -0.079875
C146  C     C_R   0.556451 0.271847 0.861332 -0.080021
C147  C     C_R   0.942002 0.771662 0.138569 -0.079071
C148  C     C_R   0.057832 0.771804 0.861563 -0.079314
C149  C     C_R   0.941715 0.725272 0.137097 0.092645
C150  C     C_R   0.058021 0.725405 0.862922 0.094300
C151  C     C_R   0.443391 0.225115 0.138031 0.096202
C152  C     C_R   0.556614 0.225445 0.862502 0.095935
C153  C     C_R   0.970119 0.702715 0.068234 0.116708
C154  C     C_R   0.029632 0.702773 0.931761 0.114451
C155  C     C_R   0.470948 0.202611 0.068817 0.115602
C156  C     C_R   0.528967 0.202757 0.931571 0.115435
C157  C     C_3   0.999873 0.499472 0.811975 -0.043180
C158  C     C_3   0.999621 0.500678 0.188431 -0.051428
C159  C     C_3   0.499794 0.999429 0.812111 -0.039479
C160  C     C_3   0.500205 0.999624 0.187894 -0.042577
C161  C     C_R   0.999895 0.726326 0.000024 -0.023654
C162  C     C_R   0.499974 0.226264 0.000271 -0.024472
C163  C     C_R   0.969935 0.656418 0.066894 -0.200404
C164  C     C_R   0.029812 0.656470 0.933038 -0.180937
C165  C     C_R   0.470696 0.156320 0.067415 -0.181307
C166  C     C_R   0.529141 0.156451 0.932715 -0.181012
C167  C     C_R   0.999896 0.633564 0.999967 -0.104803
C168  C     C_R   0.499912 0.133523 0.000016 -0.104081
C169  C     C_3   0.033378 0.473681 0.738032 -0.281953
C170  C     C_3   0.961092 0.517467 0.268037 -0.250057
C171  C     C_3   0.530092 0.969891 0.741497 -0.280196
C172  C     C_3   0.470072 0.970049 0.258592 -0.272704
C173  C     C_3   0.037421 0.515113 0.692223 0.141364
C174  C     C_3   0.995322 0.541640 0.274398 0.136066
C175  C     C_3   0.538995 0.010527 0.690820 0.145634
C176  C     C_3   0.460946 0.010682 0.309164 0.143293
C177  C     C_3   0.004818 0.540341 0.765558 0.171705
C178  C     C_3   0.032794 0.525430 0.195576 0.155297
C179  C     C_3   0.509526 0.039405 0.760929 0.172249
C180  C     C_3   0.490254 0.039605 0.238967 0.165825
C181  C     C_3   0.966401 0.524563 0.763476 -0.033249
C182  C     C_3   0.038687 0.484350 0.230643 -0.037668
C183  C     C_3   0.469550 0.028234 0.760337 -0.037678
C184  C     C_3   0.530296 0.028542 0.239594 -0.039362
Cu1   Cu    Cu3+1 1.000000 0.544460 0.500000 1.020040
Cu2   Cu    Cu3+1 0.500000 0.044460 0.500000 1.028649
Cu3   Cu    Cu3+1 0.000000 0.455520 0.500000 1.021631
Cu4   Cu    Cu3+1 0.500000 0.955520 0.500000 1.018155
Cu5   Cu    Cu3+1 0.955530 0.500030 0.044440 0.973319
Cu6   Cu    Cu3+1 0.044470 0.500030 0.955560 0.984267
Cu7   Cu    Cu3+1 0.455530 0.000030 0.044440 0.965491
Cu8   Cu    Cu3+1 0.544470 0.000030 0.955560 0.975141
Cu9   Cu    Cu3+1 0.500020 0.499960 0.062730 1.011727
Cu10  Cu    Cu3+1 0.499980 0.499960 0.937270 1.009029
Cu11  Cu    Cu3+1 0.000020 0.999960 0.062730 1.008846
Cu12  Cu    Cu3+1 0.999980 0.999960 0.937270 1.009248
H1    H     H_    0.929226 0.469668 0.860582 0.170094
H2    H     H_    0.008960 0.424497 0.202176 0.150347
H3    H     H_    0.426153 0.978074 0.863478 0.168793
H4    H     H_    0.573971 0.978453 0.136589 0.169580
H5    H     H_    0.210246 0.415424 0.191122 0.163022
H6    H     H_    0.790173 0.433001 0.834741 0.160096
H7    H     H_    0.710002 0.925102 0.175403 0.159607
H8    H     H_    0.290249 0.925505 0.825290 0.159760
H9    H     H_    0.947296 0.637633 0.118274 0.182393
H10   H     H_    0.052449 0.637728 0.881634 0.181790
H11   H     H_    0.448623 0.137486 0.119047 0.182915
H12   H     H_    0.551221 0.137726 0.880991 0.182936
H13   H     H_    0.060954 0.452947 0.727878 0.158059
H14   H     H_    0.929283 0.531187 0.283126 0.169195
H15   H     H_    0.555043 0.946090 0.734107 0.154579
H16   H     H_    0.445244 0.946186 0.266075 0.155889
O1    O     O_R   0.064870 0.537550 0.435160 -0.578349
O2    O     O_R   0.935130 0.537550 0.564840 -0.579401
O3    O     O_R   0.564870 0.037550 0.435160 -0.577725
O4    O     O_R   0.435130 0.037550 0.564840 -0.577762
O5    O     O_R   0.435150 0.499980 0.117890 -0.584728
O6    O     O_R   0.564850 0.499980 0.882110 -0.586167
O7    O     O_R   0.935150 0.999980 0.117890 -0.586356
O8    O     O_R   0.064850 0.999980 0.882110 -0.586551
O9    O     O_R   0.435090 0.499970 0.011940 -0.567400
O10   O     O_R   0.564910 0.499970 0.988060 -0.564064
O11   O     O_R   0.935090 0.999970 0.011940 -0.565884
O12   O     O_R   0.064910 0.999970 0.988060 -0.565599
O13   O     O_R   0.500060 0.564850 0.052930 -0.577926
O14   O     O_R   0.499940 0.564850 0.947070 -0.578550
O15   O     O_R   0.000060 0.064850 0.052930 -0.578028
O16   O     O_R   0.999940 0.064850 0.947070 -0.578316
O17   O     O_R   0.064850 0.462440 0.435150 -0.577670
O18   O     O_R   0.935150 0.462440 0.564850 -0.570959
O19   O     O_R   0.564850 0.962440 0.435150 -0.574777
O20   O     O_R   0.435150 0.962440 0.564850 -0.574972
O21   O     O_R   0.999990 0.537540 0.591580 -0.569987
O22   O     O_R   0.000010 0.537540 0.408420 -0.566589
O23   O     O_R   0.499990 0.037540 0.591580 -0.570725
O24   O     O_R   0.500010 0.037540 0.408420 -0.570959
O25   O     O_R   0.999980 0.462440 0.591580 -0.583342
O26   O     O_R   0.000020 0.462440 0.408420 -0.582150
O27   O     O_R   0.499980 0.962440 0.591580 -0.583608
O28   O     O_R   0.500020 0.962440 0.408420 -0.582644
O29   O     O_R   0.962450 0.435150 0.037500 -0.598478
O30   O     O_R   0.037550 0.435150 0.962500 -0.569161
O31   O     O_R   0.462450 0.935150 0.037500 -0.600250
O32   O     O_R   0.537550 0.935150 0.962500 -0.570840
O33   O     O_R   0.962450 0.500030 0.945950 -0.585816
O34   O     O_R   0.037550 0.500030 0.054050 -0.558544
O35   O     O_R   0.462450 0.000030 0.945950 -0.587928
O36   O     O_R   0.537550 0.000030 0.054050 -0.579617
O37   O     O_R   0.037540 0.500060 0.870890 -0.597572
O38   O     O_R   0.962460 0.500060 0.129110 -0.591981
O39   O     O_R   0.537540 0.000060 0.870890 -0.597706
O40   O     O_R   0.462460 0.000060 0.129110 -0.595555
O41   O     O_R   0.962440 0.564920 0.037550 -0.579739
O42   O     O_R   0.037560 0.564920 0.962450 -0.587549
O43   O     O_R   0.462440 0.064920 0.037550 -0.582652
O44   O     O_R   0.537560 0.064920 0.962450 -0.583752
O45   O     O_R   0.499970 0.435080 0.053010 -0.573711
O46   O     O_R   0.500030 0.435080 0.946990 -0.573808
O47   O     O_R   0.999970 0.935080 0.053010 -0.574885
O48   O     O_R   0.000030 0.935080 0.946990 -0.574257
N1    N     N_3   0.206398 0.586697 0.420153 -0.584959
H17   H     H_    0.216620 0.577662 0.454737 0.229791
H18   H     H_    0.214680 0.619720 0.403705 0.237286
N2    N     N_3   0.795999 0.587554 0.580439 -0.576085
H19   H     H_    0.787437 0.581001 0.542729 0.233558
H20   H     H_    0.786612 0.619838 0.600915 0.234706
N3    N     N_3   0.705744 0.073830 0.434754 -0.584750
H21   H     H_    0.716067 0.060507 0.467018 0.228995
H22   H     H_    0.713915 0.107351 0.425013 0.238226
N4    N     N_3   0.294075 0.074154 0.565181 -0.584774
H23   H     H_    0.283876 0.060847 0.532839 0.228973
H24   H     H_    0.285733 0.107660 0.574884 0.237813
C185  C     C_1   0.132092 0.566119 0.437313 0.357063
N5    N     N_1   0.111779 0.593411 0.482212 -0.234430
C186  C     C_1   0.868540 0.540553 0.532485 0.336040
N6    N     N_1   0.888637 0.553139 0.470082 -0.310144
C187  C     C_1   0.631800 0.060858 0.445525 0.358571
N7    N     N_1   0.611589 0.086681 0.493435 -0.233266
C188  C     C_1   0.368078 0.061027 0.554332 0.358073
N8    N     N_1   0.388244 0.086805 0.506256 -0.233580
C189  C     C_1   0.135065 0.429803 0.307055 0.297405
N9    N     N_1   0.116887 0.400591 0.301975 -0.252554
C190  C     C_1   0.867296 0.455118 0.728704 0.250939
N10   N     N_1   0.886689 0.437397 0.748524 -0.277846
C191  C     C_1   0.633342 0.946008 0.281818 0.251491
N11   N     N_1   0.614249 0.925095 0.264874 -0.265703
C192  C     C_1   0.366854 0.946297 0.718656 0.251276
N12   N     N_1   0.386024 0.925401 0.735684 -0.266541
C193  C     C_1   0.292788 0.409732 0.089736 0.306160
N13   N     N_1   0.308355 0.386861 0.036984 -0.246707
C194  C     C_1   0.706789 0.425004 0.931255 0.303884
N14   N     N_1   0.690470 0.405328 0.987736 -0.246602
C195  C     C_1   0.793013 0.918148 0.076915 0.301680
N15   N     N_1   0.808969 0.897603 0.021467 -0.248679
C196  C     C_1   0.207252 0.918528 0.923744 0.301449
N16   N     N_1   0.191349 0.898034 0.979328 -0.250444
C197  C     C_1   0.561027 0.632614 0.014162 0.319989
N17   N     N_1   0.588006 0.612993 0.013510 -0.260705
C198  C     C_1   0.440477 0.633295 0.981956 0.320789
N18   N     N_1   0.413831 0.613986 0.981424 -0.263101
C199  C     C_1   0.062913 0.131912 0.009258 0.317618
N19   N     N_1   0.090054 0.111916 0.007538 -0.262244
C200  C     C_1   0.938156 0.133137 0.988576 0.318929
N20   N     N_1   0.910526 0.113780 0.991145 -0.263211
N21   N     N_3   0.443850 0.703927 0.903056 -0.581358
H25   H     H_    0.462629 0.712037 0.845038 0.229629
H26   H     H_    0.410986 0.712711 0.928364 0.228947
N22   N     N_3   0.558100 0.702958 0.092899 -0.582731
H27   H     H_    0.539463 0.710816 0.150977 0.230279
H28   H     H_    0.591004 0.711536 0.067339 0.230569
N23   N     N_3   0.939034 0.203627 0.911700 -0.580893
H29   H     H_    0.956356 0.211659 0.853786 0.229908
H30   H     H_    0.905945 0.212433 0.939633 0.229419
N24   N     N_3   0.065462 0.203289 0.079812 -0.582691
H31   H     H_    0.048880 0.211711 0.137407 0.229468
H32   H     H_    0.098751 0.211505 0.050469 0.230628
N25   N     N_3   0.937324 0.296081 0.913200 -0.539768
H33   H     H_    0.903899 0.287910 0.946201 0.223208
H34   H     H_    0.951854 0.286921 0.856444 0.232463
N26   N     N_3   0.069042 0.295363 0.074446 -0.625728
H35   H     H_    0.102342 0.286638 0.039563 0.231347
H36   H     H_    0.055691 0.286524 0.130973 0.228059
N27   N     N_3   0.442070 0.796370 0.904776 -0.538975
H37   H     H_    0.408714 0.788185 0.935212 0.223317
H38   H     H_    0.458144 0.787282 0.847578 0.232015
N28   N     N_3   0.559629 0.795173 0.092185 -0.621866
H39   H     H_    0.592985 0.786861 0.061718 0.229878
H40   H     H_    0.543486 0.785806 0.149316 0.234636
N29   N     N_3   0.963140 0.368804 0.934365 -0.537596
H41   H     H_    0.936414 0.387646 0.976434 0.244360
H42   H     H_    0.987473 0.389690 0.892053 0.203338
N30   N     N_3   0.038159 0.370805 0.059250 -0.581963
H43   H     H_    0.072479 0.368478 0.026457 0.266913
H44   H     H_    0.023298 0.361815 0.116226 0.239050
N31   N     N_3   0.466156 0.869026 0.929618 -0.537921
H45   H     H_    0.439282 0.888259 0.970292 0.242658
H46   H     H_    0.491216 0.889584 0.887881 0.202870
N32   N     N_3   0.535185 0.871088 0.064703 -0.582239
H47   H     H_    0.569229 0.867137 0.035156 0.262182
H48   H     H_    0.518181 0.863868 0.122879 0.248395
C201  C     C_1   0.568564 0.368192 0.871795 0.247887
N33   N     N_1   0.597633 0.388670 0.823082 -0.265901
C202  C     C_1   0.432936 0.368461 0.130739 0.246806
N34   N     N_1   0.404780 0.389196 0.180609 -0.265710
C203  C     C_1   0.068870 0.868427 0.871995 0.245259
N35   N     N_1   0.097819 0.889056 0.823359 -0.268361
C204  C     C_1   0.931329 0.868520 0.128436 0.245773
N36   N     N_1   0.902490 0.889228 0.177173 -0.267827
C205  C     C_1   0.988258 0.412489 0.721495 0.318352
N37   N     N_1   0.983402 0.376433 0.710058 -0.261737
C206  C     C_1   0.931174 0.448701 0.363219 0.275107
N38   N     N_1   0.902579 0.427249 0.410644 -0.267639
C207  C     C_1   0.478609 0.914280 0.731279 0.317871
N39   N     N_1   0.469973 0.878915 0.723767 -0.255346
C208  C     C_1   0.521863 0.914558 0.268849 0.304229
N40   N     N_1   0.530690 0.879201 0.276385 -0.263425
C209  C     C_1   0.418691 0.292085 0.214346 0.252434
N41   N     N_1   0.398701 0.307993 0.274447 -0.246299
C210  C     C_1   0.581419 0.292829 0.786796 0.253676
N42   N     N_1   0.601345 0.309110 0.726934 -0.244314
C211  C     C_1   0.916026 0.792340 0.213243 0.251008
N43   N     N_1   0.895278 0.808344 0.273248 -0.248623
C212  C     C_1   0.083776 0.792637 0.786943 0.252731
N44   N     N_1   0.104497 0.808772 0.726985 -0.247630
N45   N     N_3   0.912946 0.700510 0.206244 -0.606489
H49   H     H_    0.920819 0.707622 0.244715 0.232904
H50   H     H_    0.880449 0.710283 0.230254 0.238217
N46   N     N_3   0.086666 0.700715 0.793694 -0.605455
H51   H     H_    0.119199 0.710263 0.769568 0.235565
H52   H     H_    0.078721 0.708128 0.755354 0.237715
N47   N     N_3   0.415472 0.200290 0.207440 -0.603456
H53   H     H_    0.424314 0.207319 0.244614 0.238380
H54   H     H_    0.382810 0.210068 0.233009 0.235838
N48   N     N_3   0.584454 0.200820 0.792905 -0.603093
H55   H     H_    0.617143 0.210329 0.767423 0.236143
H56   H     H_    0.575643 0.208349 0.755784 0.238499
N49   N     N_3   0.078645 0.533145 0.627510 -0.565840
H57   H     H_    0.098653 0.539579 0.646017 0.225495
H58   H     H_    0.094179 0.508229 0.586434 0.210920
N50   N     N_3   0.991512 0.587073 0.299720 -0.561224
H59   H     H_    0.988402 0.607119 0.263343 0.210463
H60   H     H_    0.961946 0.589804 0.353822 0.257235
N51   N     N_3   0.582173 0.023419 0.624538 -0.568651
H61   H     H_    0.602639 0.027495 0.642761 0.226287
H62   H     H_    0.594743 0.996778 0.586649 0.211573
N52   N     N_3   0.417702 0.023496 0.375421 -0.568347
H63   H     H_    0.397195 0.027459 0.357217 0.226208
H64   H     H_    0.405302 0.996860 0.413424 0.211387
N53   N     N_3   0.010640 0.585186 0.782681 -0.582663
H65   H     H_    0.015514 0.605562 0.739025 0.243944
H66   H     H_    0.039834 0.585762 0.779238 0.217199
N54   N     N_3   0.068505 0.552776 0.135982 -0.555086
H67   H     H_    0.084066 0.567120 0.158775 0.233582
H68   H     H_    0.054281 0.578502 0.124600 0.213762
N55   N     N_3   0.520502 0.083273 0.772854 -0.585456
H69   H     H_    0.527643 0.102939 0.726907 0.245268
H70   H     H_    0.549606 0.080474 0.769434 0.220379
N56   N     N_3   0.479035 0.083435 0.226914 -0.586761
H71   H     H_    0.471789 0.103110 0.272800 0.246136
H72   H     H_    0.449945 0.080557 0.230348 0.220021
C213  C     C_1   0.930086 0.552231 0.777020 0.281669
N57   N     N_1   0.901442 0.574003 0.787605 -0.261038
C214  C     C_1   0.082053 0.467763 0.206036 0.276747
N58   N     N_1   0.116583 0.454947 0.185374 -0.270776
C215  C     C_1   0.436719 0.060069 0.770616 0.281890
N59   N     N_1   0.410830 0.085148 0.778645 -0.259303
C216  C     C_1   0.562940 0.060464 0.229253 0.282015
N60   N     N_1   0.588683 0.085611 0.221175 -0.259457
N61   N     N_3   0.366629 0.426145 0.082213 -0.557563
H73   H     H_    0.400491 0.426760 0.055874 0.226432
H74   H     H_    0.355235 0.399209 0.119582 0.225239
N62   N     N_3   0.635452 0.430414 0.925994 -0.552028
H75   H     H_    0.602483 0.428035 0.946029 0.225677
H76   H     H_    0.650220 0.402481 0.891587 0.222630
N63   N     N_3   0.866116 0.928467 0.075123 -0.553438
H77   H     H_    0.899583 0.927645 0.052158 0.226902
H78   H     H_    0.853282 0.900278 0.109563 0.223374
N64   N     N_3   0.134196 0.928579 0.925150 -0.553786
H79   H     H_    0.100756 0.927664 0.947948 0.226681
H80   H     H_    0.147229 0.900402 0.890810 0.222959
N65   N     N_3   0.368233 0.571526 0.184797 -0.574325
H81   H     H_    0.389517 0.562167 0.199434 0.250510
H82   H     H_    0.386553 0.584660 0.129582 0.218599
N66   N     N_3   0.631876 0.567988 0.804962 -0.572293
H83   H     H_    0.612420 0.555720 0.788291 0.254269
H84   H     H_    0.611829 0.582876 0.858625 0.217957
N67   N     N_3   0.866975 0.067745 0.194498 -0.572604
H85   H     H_    0.888077 0.056965 0.208728 0.253632
H86   H     H_    0.885353 0.082931 0.140865 0.219306
N68   N     N_3   0.132731 0.067655 0.804928 -0.572627
H87   H     H_    0.111780 0.056725 0.790582 0.253890
H88   H     H_    0.114184 0.082880 0.858455 0.218937
C217  C     C_1   0.297357 0.588077 0.326377 0.296937
N69   N     N_1   0.315088 0.610557 0.344227 -0.265797
C218  C     C_1   0.704857 0.585626 0.666954 0.298586
N70   N     N_1   0.687738 0.607574 0.647025 -0.263541
C219  C     C_1   0.796892 0.075966 0.340675 0.294695
N71   N     N_1   0.814713 0.094943 0.362215 -0.264891
C220  C     C_1   0.202926 0.076111 0.658984 0.294328
N72   N     N_1   0.185073 0.095069 0.637293 -0.265713

loop_
_geom_bond_atom_site_label_1
_geom_bond_atom_site_label_2
_ccdc_geom_bond_type
Cu1   O21   S    
N67   H85   S    
Cu12  O16   S    
C133  C137  A    
C209  N41   T    
C55   C59   A    
Cu7   O35   S    
C81   O35   A    
C154  C161  A    
C152  N48   S    
C194  N14   T    
C90   O48   A    
C199  N19   T    
C4    O20   A    
N50   H60   S    
C96   C102  S    
C26   C50   A    
C39   N3    S    
C21   C33   A    
C151  N47   S    
Cu1   O2    S    
C204  N36   T    
C9    C13   A    
C123  C183  S    
C157  C169  S    
C54   C74   A    
C11   C15   A    
C135  C142  A    
C152  C156  A    
N22   H28   S    
Cu8   O44   S    
C84   O44   A    
C76   C192  S    
C85   C121  S    
N28   H39   S    
C151  C155  A    
C116  N28   S    
N64   H80   S    
C99   C199  S    
C181  C213  S    
C17   N65   S    
C13   C91   S    
C127  N29   S    
C66   C186  S    
C81   O39   A    
C41   C49   A    
N46   H51   S    
C47   O23   A    
C155  C162  A    
C25   C29   A    
C27   C31   A    
N27   H37   S    
C28   C32   A    
N54   H68   S    
C141  C144  A    
N31   H46   S    
C115  N27   S    
C6    C174  S    
N24   H31   S    
C219  N71   T    
C85   C169  S    
C153  C161  A    
Cu5   O38   S    
C91   O5    A    
N52   H64   S    
C79   C157  S    
C136  C141  A    
C84   C168  S    
C31   C63   A    
C82   C160  S    
C10   C30   A    
C208  N40   T    
C156  C166  A    
C68   C72   A    
C87   C171  S    
C45   O25   A    
C160  C172  S    
C93   O11   A    
C50   C54   A    
C178  C182  S    
Cu9   O10   S    
C19   N67   S    
C74   C190  S    
C2    O2    A    
Cu5   O29   S    
N53   H65   S    
N4    H24   S    
N51   H61   S    
C110  C116  A    
C170  C174  S    
C124  H4    S    
C177  N53   S    
C16   C94   S    
Cu11  O47   S    
C182  C214  S    
C41   C65   A    
C57   C61   A    
C3    C71   S    
C40   N4    S    
C59   C63   A    
C78   O31   A    
C7    C183  S    
C60   C64   A    
C158  C178  S    
Cu9   O13   S    
C164  H10   S    
N45   H49   S    
C104  C110  A    
C66   C70   A    
C123  C159  S    
C155  C165  A    
C49   C53   A    
C124  C160  S    
C51   C55   A    
C82   O36   A    
C129  N31   S    
N68   H88   S    
C141  C147  A    
Cu11  Cu12  S    
Cu3   O17   S    
C119  C126  A    
C58   H6    S    
Cu9   Cu10  S    
C10   N62   S    
C210  N42   T    
Cu4   O27   S    
C18   N66   S    
C103  C107  A    
N27   H38   S    
N61   H73   S    
C215  N59   T    
C3    O3    A    
C104  C107  A    
C180  C184  S    
N50   H59   S    
C149  N45   S    
N65   H81   S    
C4    O4    A    
C206  N38   T    
C140  C143  A    
C88   C124  S    
Cu11  O7    S    
C213  N57   T    
C111  C113  A    
Cu9   O5    S    
N67   H86   S    
C176  N52   S    
C24   C36   A    
C6    C182  S    
C77   O29   A    
C96   O16   A    
C123  H3    S    
N62   H75   S    
C148  C150  A    
C124  C184  S    
N1    H17   S    
Cu1   Cu3   S    
C109  N21   S    
C63   C195  S    
C88   C172  S    
C77   C131  S    
C78   C132  S    
N48   H55   S    
C160  C180  S    
C149  C153  A    
C139  C143  A    
C60   H8    S    
C180  N56   S    
N2    H19   S    
N21   H26   S    
C25   C49   A    
N63   H78   S    
Cu4   O19   S    
C5    C85   S    
C44   C52   A    
C80   O38   A    
C187  N7    T    
C94   O12   A    
N31   H45   S    
N29   H42   S    
C1    O17   A    
C98   C198  S    
C90   C138  S    
C27   C51   A    
C185  N5    T    
Cu2   O24   S    
C22   C34   A    
C29   C61   A    
Cu6   O34   S    
C83   O42   A    
C65   C185  S    
C97   C104  A    
C12   C16   A    
N30   H43   S    
C32   C64   A    
C10   C14   A    
C3    O19   A    
C134  C139  A    
C158  C170  S    
C83   C167  S    
C116  C120  A    
C8    C88   S    
N26   H36   S    
C95   O13   A    
C70   C74   A    
C195  N15   T    
C59   H7    S    
C80   C158  S    
C170  H14   S    
C212  N44   T    
C14   C92   S    
Cu2   O3    S    
C193  N13   T    
C11   N63   S    
C178  N54   S    
C122  H2    S    
C165  H11   S    
C42   C50   A    
C113  C117  A    
N66   H83   S    
C26   C30   A    
N32   H48   S    
N23   H30   S    
C128  N30   S    
N56   H72   S    
C35   C219  S    
C128  C131  A    
Cu3   O26   S    
N53   H66   S    
C73   C189  S    
C99   C106  A    
C21   C25   A    
C86   C170  S    
C5    C173  S    
C89   O46   A    
C24   C28   A    
Cu5   O41   S    
N3    H21   S    
C8    C176  S    
C12   N64   S    
C175  C179  S    
C115  C119  A    
Cu8   O36   S    
C110  N22   S    
C93   O7    A    
Cu4   O20   S    
C87   C123  S    
C34   C218  S    
C106  C108  A    
C177  C181  S    
C147  C211  S    
C119  C129  A    
Cu11  O15   S    
C80   O34   A    
C37   C41   A    
C130  N32   S    
C2    O18   A    
C40   C44   A    
C43   C67   A    
C57   H5    S    
C190  N10   T    
C169  C173  S    
N28   H40   S    
C117  C125  A    
C95   C101  S    
C58   C62   A    
C175  N51   S    
C144  C161  A    
C113  N25   S    
C186  N6    T    
N23   H29   S    
C134  C137  A    
N46   H52   S    
C207  N39   T    
C166  C168  A    
C15   C19   A    
C205  N37   T    
C159  C171  S    
C56   C76   A    
C79   O33   A    
C147  C149  A    
C45   O21   A    
C183  C215  S    
Cu11  O12   S    
C120  C126  A    
N24   H32   S    
C98   C103  A    
C127  C131  A    
C197  N17   T    
N25   H34   S    
C7    C87   S    
C86   C122  S    
Cu9   O45   S    
C188  N8    T    
C69   C73   A    
C130  C132  A    
C118  C125  A    
C67   C187  S    
C174  C178  S    
C72   C76   A    
C129  C132  A    
C111  N23   S    
Cu1   O22   S    
C105  C111  A    
C18   C22   A    
C166  H12   S    
C121  H1    S    
C90   O47   A    
C5    C181  S    
C48   O28   A    
C112  N24   S    
C53   C73   A    
C86   C206  S    
C97   C197  S    
C140  C146  A    
C196  N16   T    
C68   C188  S    
C53   C57   A    
C78   O32   A    
C5    C45   S    
Cu6   O37   S    
Cu7   O43   S    
Cu7   Cu8   S    
C87   C207  S    
C7    C47   S    
C35   C39   A    
C198  N18   T    
C8    C48   S    
C191  N11   T    
C192  N12   T    
C114  C118  A    
C148  C212  S    
C75   C191  S    
C84   O43   A    
C94   O8    A    
C92   O6    A    
C117  C127  A    
Cu10  O9    S    
N64   H79   S    
C153  C163  A    
Cu6   O30   S    
C23   C35   A    
C30   C62   A    
C1    O1    A    
C120  C130  A    
C114  N26   S    
Cu2   Cu4   S    
C46   O22   A    
C4    C72   S    
C121  C181  S    
C154  C164  A    
C85   C205  S    
C164  C167  A    
C159  C179  S    
N54   H67   S    
C6    C86   S    
N47   H53   S    
C15   C93   S    
N55   H69   S    
C13   C17   A    
C98   C101  A    
C47   O27   A    
C103  C109  A    
Cu7   O31   S    
Cu10  O14   S    
C100  C200  S    
N62   H76   S    
N52   H63   S    
C9    N61   S    
C136  C204  S    
N3    H22   S    
C43   C51   A    
C65   C69   A    
C64   C196  S    
C67   C71   A    
Cu8   O32   S    
Cu5   Cu6   S    
C37   N1    S    
Cu12  O11   S    
C33   C217  S    
C56   C60   A    
C99   C102  A    
C133  C140  A    
N2    H20   S    
N21   H25   S    
C22   C26   A    
Cu6   O42   S    
N4    H23   S    
Cu3   O25   S    
C2    C70   S    
C156  C162  A    
C17   C21   A    
C135  C138  A    
C202  N34   T    
C81   C159  S    
C28   C52   A    
N29   H41   S    
C14   C18   A    
C19   C23   A    
C214  N58   T    
C220  N72   T    
Cu10  O6    S    
C36   C220  S    
C106  C112  A    
C201  N33   T    
C100  C105  A    
C83   O41   A    
Cu4   O28   S    
N30   H44   S    
C38   C42   A    
C146  C210  S    
N45   H50   S    
Cu12  O48   S    
N68   H87   S    
Cu3   O18   S    
C20   C24   A    
Cu1   O1    S    
N47   H54   S    
C7    C175  S    
C216  N60   T    
C23   C27   A    
C108  C125  A    
N61   H74   S    
C143  C162  A    
C150  N46   S    
C16   C20   A    
C8    C184  S    
C1    C69   S    
C133  C201  S    
N65   H82   S    
C200  N20   T    
C121  C157  S    
C12   C32   A    
C184  C216  S    
C79   O37   A    
C118  C128  A    
Cu12  O8    S    
C179  C183  S    
C122  C158  S    
C105  C108  A    
C88   C208  S    
N49   H58   S    
Cu5   O33   S    
C77   O30   A    
C135  C203  S    
C96   O15   A    
C142  C148  A    
C36   C40   A    
C89   O45   A    
C136  C138  A    
N1    H18   S    
C145  C209  S    
C39   C43   A    
C189  N9    T    
C171  C175  S    
C163  H9    S    
Cu2   O4    S    
Cu10  O46   S    
C163  C167  A    
N51   H62   S    
C38   N2    S    
C171  H15   S    
C176  C180  S    
N63   H77   S    
C173  C177  S    
C169  H13   S    
C100  C102  A    
Cu7   O40   S    
C157  C177  S    
C174  N50   S    
N49   H57   S    
C145  C151  A    
C146  C152  A    
C112  C114  A    
C217  N69   T    
C165  C168  A    
C44   C68   A    
C91   O9    A    
N22   H27   S    
C33   C37   A    
Cu2   O23   S    
C54   C58   A    
C139  C145  A    
C6    C46   S    
C173  N49   S    
C34   C38   A    
C20   N68   S    
C134  C202  S    
C107  C126  A    
C172  H16   S    
C179  N55   S    
C82   O40   A    
C9    C29   A    
Cu8   O39   S    
C211  N43   T    
C89   C137  S    
C62   C194  S    
N26   H35   S    
C92   O10   A    
C95   O14   A    
C55   C75   A    
C71   C75   A    
N55   H70   S    
C61   C193  S    
N66   H84   S    
C48   O24   A    
N48   H56   S    
C142  C144  A    
C46   O26   A    
N25   H33   S    
C109  C115  A    
C11   C31   A    
C218  N70   T    
C172  C176  S    
C122  C182  S    
N32   H47   S    
C150  C154  A    
C42   C66   A    
N56   H71   S    
C203  N35   T    
C97   C101  A    
C52   C56   A    
