data_mof_unit_59858.cif
_audit_creation_date              2012-12-10T18:07:48-0500
_audit_creation_method            fapswitch 2.2
_symmetry_space_group_name_H-M    P1
_symmetry_Int_Tables_number       1
_space_group_crystal_system       triclinic
_cell_length_a                    10.637131
_cell_length_b                    12.744415
_cell_length_c                    13.923101
_cell_angle_alpha                 98.291722
_cell_angle_beta                  90.730757
_cell_angle_gamma                 92.46115
_cell_volume                      1865.67543706

loop_
_atom_site_label
_atom_site_type_symbol
_atom_type_description
_atom_site_fract_x
_atom_site_fract_y
_atom_site_fract_z
_atom_type_partial_charge
C1    C     C_R   0.498801 0.483270 0.315887 0.821671
C2    C     C_R   0.501197 0.516731 0.684113 0.821671
C3    C     C_2   0.461469 0.028563 0.475645 -0.262514
C4    C     C_2   0.538532 0.971437 0.524355 -0.262501
C5    C     C_1   0.526708 0.854516 0.518420 0.191824
C6    C     C_1   0.473292 0.145484 0.481580 0.191835
C7    C     C_R   0.259105 0.500774 0.497015 0.789775
C8    C     C_R   0.740894 0.499226 0.502984 0.789770
C9    C     C_3   0.036921 0.413972 0.440457 -0.236760
C10   C     C_3   0.963077 0.586032 0.559543 -0.236674
C11   C     C_3   0.953901 0.500879 0.410247 0.098677
C12   C     C_3   0.046095 0.499123 0.589751 0.098706
C13   C     C_3   0.877180 0.497189 0.502307 -0.100655
C14   C     C_3   0.122818 0.502813 0.497692 -0.100678
C15   C     C_3   0.959222 0.410960 0.533132 0.111211
C16   C     C_3   0.040775 0.589044 0.466866 0.111256
C17   C     C_1   0.502833 0.526722 0.787284 -0.213615
C18   C     C_1   0.497146 0.473283 0.212717 -0.213611
C19   C     C_2   0.507294 0.544634 0.978840 0.069941
C20   C     C_2   0.492624 0.455382 0.021161 0.069965
C21   C     C_1   0.495212 0.464539 0.125760 -0.036226
C22   C     C_1   0.504741 0.535474 0.874241 -0.036220
Cu1   Cu    Cu3+1 0.491940 0.395330 0.493960 0.949288
Cu2   Cu    Cu3+1 0.508060 0.604670 0.506040 0.949296
H1    H     H_    0.613605 0.012870 0.570310 0.158862
H2    H     H_    0.386395 0.987129 0.429689 0.158855
N1    N     N_1   0.479830 0.238040 0.484880 -0.164117
N2    N     N_1   0.520170 0.761960 0.515120 -0.164114
O1    O     O_R   0.492210 0.399110 0.356330 -0.571063
O2    O     O_R   0.507790 0.600890 0.643670 -0.571067
O3    O     O_R   0.505820 0.575890 0.366540 -0.572821
O4    O     O_R   0.494180 0.424110 0.633460 -0.572821
O5    O     O_R   0.310050 0.411620 0.494870 -0.578628
O6    O     O_R   0.689950 0.588380 0.505130 -0.578608
O7    O     O_R   0.323660 0.588400 0.505080 -0.588696
O8    O     O_R   0.676340 0.411600 0.494920 -0.588697
C23   C     C_3   0.891921 0.493991 0.309603 -0.403680
C24   C     C_3   0.989594 0.488964 0.229503 -0.347180
C25   C     C_3   0.926056 0.471923 0.129346 -0.849704
H3    H     H_    0.864792 0.398194 0.119602 0.255786
H4    H     H_    0.868532 0.540526 0.119697 0.252355
H5    H     H_    0.999341 0.463774 0.073167 0.241302
H6    H     H_    0.048145 0.564019 0.237674 0.217434
H7    H     H_    0.052259 0.422346 0.234660 0.215927
H8    H     H_    0.829329 0.420985 0.297457 0.196654
H9    H     H_    0.832355 0.563023 0.307436 0.189501
C26   C     C_3   0.108071 0.505969 0.690392 -0.403701
C27   C     C_3   0.010393 0.511063 0.770490 -0.347200
C28   C     C_3   0.073938 0.527810 0.870640 -0.849719
H10   H     H_    0.131220 0.459035 0.880189 0.252318
H11   H     H_    0.135440 0.601405 0.880473 0.255814
H12   H     H_    0.000666 0.536043 0.926828 0.241310
H13   H     H_    0.947940 0.577843 0.765431 0.215922
H14   H     H_    0.951623 0.436121 0.762221 0.217425
H15   H     H_    0.167560 0.436888 0.692548 0.189574
H16   H     H_    0.170734 0.578932 0.702546 0.196604
H17   H     H_    0.070376 0.344349 0.391800 0.139815
H18   H     H_    0.929622 0.655652 0.608204 0.139756
C29   C     C_3   0.906629 0.307783 0.564791 -0.385321
C30   C     C_3   0.011183 0.234871 0.586186 -0.345504
C31   C     C_3   0.956474 0.127368 0.605475 -0.862522
H19   H     H_    0.893180 0.137724 0.668670 0.253368
H20   H     H_    0.902792 0.086706 0.540702 0.254367
H21   H     H_    0.034029 0.076578 0.621622 0.244597
H22   H     H_    0.075129 0.221918 0.523479 0.226542
H23   H     H_    0.067013 0.271878 0.651021 0.221753
H24   H     H_    0.848126 0.326881 0.629917 0.186664
H25   H     H_    0.845029 0.265829 0.505038 0.216109
C32   C     C_3   0.093363 0.692206 0.435174 -0.385380
C33   C     C_3   0.988813 0.765176 0.413903 -0.345428
C34   C     C_3   0.043566 0.872509 0.394204 -0.862562
H26   H     H_    0.097659 0.913251 0.458738 0.254374
H27   H     H_    0.106485 0.861881 0.330792 0.253365
H28   H     H_    0.966007 0.923362 0.378199 0.244572
H29   H     H_    0.932621 0.728076 0.349292 0.221812
H30   H     H_    0.925203 0.778394 0.476798 0.226433
H31   H     H_    0.155074 0.734136 0.494867 0.216075
H32   H     H_    0.151747 0.673079 0.369987 0.186716
C35   C     C_3   0.473251 0.346125 0.960254 -0.388554
C36   C     C_3   0.457705 0.253895 0.019850 -0.337012
C37   C     C_3   0.439050 0.147638 0.953925 -0.860586
H33   H     H_    0.353606 0.147382 0.907160 0.256052
H34   H     H_    0.522241 0.132343 0.907376 0.253558
H35   H     H_    0.427167 0.082847 0.998942 0.243685
H36   H     H_    0.542917 0.251294 0.066403 0.225151
H37   H     H_    0.374557 0.265709 0.067161 0.224324
H38   H     H_    0.387769 0.346371 0.913420 0.198362
H39   H     H_    0.555575 0.331892 0.912397 0.200595
C38   C     C_3   0.526718 0.653886 0.039748 -0.388565
C39   C     C_3   0.542082 0.746135 0.980157 -0.337012
C40   C     C_3   0.560814 0.852383 0.046086 -0.860561
H40   H     H_    0.477718 0.867648 0.092743 0.253563
H41   H     H_    0.646359 0.852649 0.092745 0.256051
H42   H     H_    0.572560 0.917188 0.001071 0.243684
H43   H     H_    0.625137 0.734354 0.932743 0.224344
H44   H     H_    0.456772 0.748723 0.933706 0.225116
H45   H     H_    0.444480 0.668092 0.087701 0.200604
H46   H     H_    0.612291 0.653648 0.086486 0.198348

loop_
_geom_bond_atom_site_label_1
_geom_bond_atom_site_label_2
_ccdc_geom_bond_type
C8    C13   S    
C18   C21   T    
C32   H31   S    
C19   C20   D    
C3    C6    S    
C35   H38   S    
C37   H33   S    
C39   H43   S    
C25   H4    S    
C27   H14   S    
C1    C18   S    
C23   C24   S    
Cu1   O1    S    
C10   H18   S    
C24   C25   S    
C1    O3    A    
C2    O4    A    
C8    O8    A    
C31   H20   S    
C36   H37   S    
C29   H24   S    
C7    C14   S    
C6    N1    T    
Cu1   O5    S    
Cu1   Cu2   S    
C33   C34   S    
Cu1   N1    S    
C30   H23   S    
C29   C30   S    
C2    C17   S    
C7    O5    A    
C32   H32   S    
C32   C33   S    
C7    O7    A    
C12   C26   S    
C35   H39   S    
C37   H34   S    
C4    H1    S    
C25   H5    S    
C27   H13   S    
Cu2   O7    S    
C19   C22   S    
C25   H3    S    
C34   H27   S    
C4    C5    S    
C28   H11   S    
Cu2   O6    S    
C38   H45   S    
C30   C31   S    
C31   H21   S    
C9    C14   S    
C24   H7    S    
C36   H36   S    
C19   C38   S    
C29   H25   S    
C40   H41   S    
C5    N2    T    
C11   C16   S    
C26   C27   S    
C12   C15   S    
C28   H12   S    
C1    O1    A    
C8    O6    A    
C9    C11   S    
C10   C12   S    
C27   C28   S    
C12   C14   S    
C30   H22   S    
Cu1   O8    S    
C13   C15   S    
C33   H30   S    
C14   C16   S    
C23   H8    S    
C3    C4    D    
C38   C39   S    
C40   H40   S    
C37   H35   S    
C26   H15   S    
C20   C35   S    
C15   C29   S    
C3    H2    S    
C16   C32   S    
Cu2   N2    S    
C36   C37   S    
C10   C13   S    
C34   H28   S    
C11   C23   S    
C39   H44   S    
C17   C22   T    
C38   H46   S    
C2    O2    A    
Cu1   O4    S    
C9    C15   S    
Cu2   O3    S    
C24   H6    S    
C10   C16   S    
C40   H42   S    
C11   C13   S    
C39   C40   S    
C9    H17   S    
C31   H19   S    
Cu2   O2    S    
C35   C36   S    
C34   H26   S    
C20   C21   S    
C28   H10   S    
C33   H29   S    
C23   H9    S    
C26   H16   S    
