data_mof_unit_52328.cif
_audit_creation_date              2013-03-05T15:46:46-0500
_audit_creation_method            fapswitch 2.2
_symmetry_space_group_name_H-M    P1
_symmetry_Int_Tables_number       1
_space_group_crystal_system       triclinic
_cell_length_a                    10.157423
_cell_length_b                    10.82881
_cell_length_c                    12.430663
_cell_angle_alpha                 89.805925
_cell_angle_beta                  109.019376
_cell_angle_gamma                 95.264137
_cell_volume                      1286.67883986

loop_
_atom_site_label
_atom_site_type_symbol
_atom_site_description
_atom_site_fract_x
_atom_site_fract_y
_atom_site_fract_z
_atom_type_partial_charge
O1    O     O_R   0.936910 0.692950 0.509080 -0.617120
O2    O     O_R   0.138320 0.658600 0.480130 -0.584997
C1    C     C_R   0.051697 0.732286 0.492962 0.906336
O3    O     O_R   0.002900 0.525670 0.675280 -0.571898
O4    O     O_R   0.204310 0.491320 0.646330 -0.630755
C2    C     C_R   0.132959 0.504859 0.713842 0.882828
Zn1   Zn    Zn3+2 0.865520 0.522940 0.519330 1.003375
Zn2   Zn    Zn3+2 0.134480 0.477060 0.480670 1.000867
O5    O     O_R   0.861680 0.341400 0.519870 -0.582135
O6    O     O_R   0.063090 0.307050 0.490920 -0.616964
O7    O     O_R   0.795690 0.508680 0.353670 -0.629464
O8    O     O_R   0.997100 0.474330 0.324720 -0.581128
C3    C     C_R   0.952840 0.267346 0.513799 0.877395
C4    C     C_R   0.866516 0.490954 0.286667 0.918360
C5    C     C_R   0.763064 0.390056 0.980756 0.302285
H1    H     H_    0.956671 0.403577 0.120187 0.204576
C6    C     C_R   0.791967 0.477434 0.166016 -0.104660
C7    C     C_R   0.147074 0.559426 0.910438 -0.197165
C8    C     C_R   0.222202 0.575097 0.026374 0.352249
C9    C     C_R   0.359674 0.541933 0.065975 -0.276867
C10   C     C_R   0.420869 0.488663 0.991488 0.059407
C11   C     C_R   0.334863 0.454056 0.880550 0.074157
C12   C     C_R   0.564228 0.467787 0.023375 0.064484
C13   C     C_R   0.616599 0.401539 0.949156 -0.016203
C14   C     C_R   0.519615 0.343057 0.850576 -0.047428
C15   C     C_R   0.380879 0.370219 0.817133 -0.205788
C16   C     C_R   0.657235 0.512165 0.127570 -0.235092
C17   C     C_R   0.847612 0.421562 0.091971 -0.186026
C18   C     C_R   0.203695 0.501965 0.836861 -0.149851
H2    H     H_    0.626124 0.570397 0.183264 0.168434
H3    H     H_    0.044916 0.593418 0.877182 0.216622
H4    H     H_    0.414920 0.556055 0.155635 0.175503
H5    H     H_    0.307204 0.322111 0.743057 0.174203
H6    H     H_    0.967131 0.890945 0.604667 0.190224
C19   C     C_2   0.084889 0.864096 0.494912 -0.200167
C20   C     C_2   0.031420 0.933697 0.557127 -0.246654
C21   C     C_2   0.936983 0.134984 0.535417 -0.218830
C22   C     C_2   0.049639 0.067826 0.559869 -0.022059
H7    H     H_    0.568211 0.416722 0.430940 0.163125
H8    H     H_    0.432193 0.581752 0.570546 0.166575
N1    N     N_2   0.313640 0.446500 0.454900 -0.170801
C23   C     C_2   0.431804 0.510194 0.509524 -0.078362
H9    H     H_    0.682547 0.620971 0.601988 0.182245
N2    N     N_2   0.686360 0.553430 0.545150 -0.167818
C24   C     C_2   0.568451 0.488835 0.491418 -0.089738
H10   H     H_    0.317309 0.379410 0.397610 0.180381
C25   C     C_1   0.797935 0.077374 0.522777 0.220487
N3    N     N_1   0.686938 0.031475 0.512706 -0.165463
C26   C     C_1   0.164567 0.914170 0.424076 0.255646
N4    N     N_1   0.228027 0.953702 0.367341 -0.139377
C27   C     C_1   0.556497 0.246126 0.789105 0.282288
N5    N     N_1   0.587923 0.168441 0.741208 -0.134289
N6    N     N_R   0.828464 0.353865 0.900731 0.195250
O9    O     O_R   0.801259 0.407495 0.803043 -0.400335
O10   O     O_R   0.933629 0.286619 0.933041 -0.396302
N7    N     N_R   0.161434 0.629260 0.102760 0.205788
O11   O     O_R   0.038500 0.670074 0.064056 -0.395483
O12   O     O_R   0.227833 0.637486 0.211821 -0.397945
C28   C     C_1   0.192132 0.121389 0.579546 0.244229
N8    N     N_1   0.304984 0.162766 0.591180 -0.210154

loop_
_geom_bond_atom_site_label_1
_geom_bond_atom_site_label_2
_geom_bond_distance
_ccdc_geom_bond_type
C8    N7    1.441813 S    
H1    C17   1.083505 S    
O4    Zn2   1.948735 S    
N1    H10   1.030605 S    
C14   C27   1.445733 S    
C13   C14   1.406100 A    
C19   C26   1.450905 S    
C21   C22   1.362052 D    
C11   C18   1.411560 A    
C12   C16   1.387220 A    
C21   C25   1.450173 S    
N1    C23   1.302866 D    
C15   H5    1.077909 S    
C3    C21   1.461437 S    
C8    C9    1.401401 A    
H7    C24   1.085096 S    
Zn2   O8    1.983885 S    
H8    C23   1.085041 S    
O2    C1    1.287432 A    
C28   N8    1.154902 T    
C7    C18   1.402442 A    
O1    Zn1   1.935207 S    
C10   C11   1.401273 A    
Zn2   N1    2.003744 S    
C16   H2    1.076529 S    
Zn1   O7    1.948735 S    
C4    C6    1.443976 S    
C5    C17   1.393108 A    
C19   C20   1.346822 D    
O3    Zn1   1.983884 S    
C5    N6    1.437200 S    
C20   C22   1.446361 S    
C5    C13   1.426802 A    
N7    O12   1.301758 A    
C26   N4    1.157466 T    
H6    C20   1.088186 S    
C10   C12   1.418529 A    
H9    N2    1.030613 S    
C9    H4    1.076212 S    
O4    C2    1.291432 A    
O7    C4    1.290376 A    
N7    O11   1.301651 A    
N6    O10   1.301450 A    
C1    C19   1.434634 S    
C27   N5    1.157844 T    
C6    C16   1.381902 A    
C25   N3    1.157347 T    
C2    C18   1.464026 S    
C9    C10   1.421611 A    
O3    C2    1.291097 A    
C7    C8    1.396124 A    
C11   C15   1.409606 A    
Zn1   O5    1.962701 S    
O5    C3    1.299369 A    
C7    H3    1.082856 S    
C12   C13   1.429392 A    
C14   C15   1.392337 A    
Zn1   N2    2.003840 S    
C6    C17   1.392232 A    
C23   C24   1.514432 S    
Zn2   O6    1.935209 S    
O2    Zn2   1.962699 S    
N2    C24   1.303005 D    
C22   C28   1.451651 S    
N6    O9    1.301610 A    
O8    C4    1.284442 A    
O1    C1    1.281229 A    
O6    C3    1.279929 A    
