data_mof_unit_20970.cif
_audit_creation_date              2012-12-10T20:33:28-0500
_audit_creation_method            fapswitch 2.2
_symmetry_space_group_name_H-M    P1
_symmetry_Int_Tables_number       1
_space_group_crystal_system       triclinic
_cell_length_a                    14.121134
_cell_length_b                    10.660914
_cell_length_c                    9.960788
_cell_angle_alpha                 89.5407
_cell_angle_beta                  89.12601
_cell_angle_gamma                 89.224542
_cell_volume                      1499.18129305

loop_
_atom_site_label
_atom_site_type_symbol
_atom_type_description
_atom_site_fract_x
_atom_site_fract_y
_atom_site_fract_z
_atom_type_partial_charge
C1    C     C_R   0.506655 0.260302 0.501033 0.891203
C2    C     C_1   0.772108 0.500092 0.497466 -0.200326
C3    C     C_R   0.500949 0.061892 0.620549 0.160895
C4    C     C_R   0.528734 0.128909 0.506807 -0.178882
C5    C     C_R   0.581606 0.066261 0.404909 0.104486
C6    C     C_R   0.574659 0.934082 0.396909 0.169501
C7    C     C_R   0.522046 0.871346 0.499605 -0.158096
C8    C     C_R   0.496608 0.935197 0.615525 0.038811
C9    C     C_3   0.409802 0.928915 0.702674 -0.478437
C10   C     C_3   0.415601 0.071209 0.711565 -0.042464
C11   C     C_R   0.431182 0.560811 0.072156 0.197620
C12   C     C_R   0.329416 0.500376 0.500787 0.892362
C13   C     C_R   0.577043 0.455991 0.069279 -0.053256
C14   C     C_R   0.573981 0.448067 0.926201 -0.078577
C15   C     C_R   0.430868 0.561170 0.930943 0.067992
C16   C     C_3   0.324504 0.546644 0.930519 0.024945
C17   C     C_3   0.326668 0.546232 0.085673 -0.305792
C18   C     C_R   0.504306 0.739814 0.499116 0.914198
C19   C     C_R   0.670601 0.499922 0.499095 0.870710
C20   C     C_1   0.227902 0.500996 0.501822 -0.155269
C21   C     C_1   0.142581 0.501256 0.501305 0.026042
C22   C     C_1   0.042670 0.501150 0.499921 0.020581
C23   C     C_1   0.957356 0.500840 0.498604 0.020254
C24   C     C_1   0.857433 0.500390 0.497484 0.001498
H1    H     H_    0.308020 0.454922 0.133472 0.119302
H2    H     H_    0.346933 0.896712 0.647257 0.183028
H3    H     H_    0.423630 0.877708 0.798214 0.222319
H4    H     H_    0.354819 0.122263 0.665582 0.168832
N1    N     N_R   0.499420 0.499140 0.142800 -0.142854
N2    N     N_R   0.499420 0.499180 0.857150 -0.149539
O1    O     O_R   0.500010 0.316790 0.614690 -0.571105
O2    O     O_R   0.500000 0.316760 0.385350 -0.607706
O3    O     O_R   0.373720 0.500020 0.614700 -0.588269
O4    O     O_R   0.373710 0.499980 0.385350 -0.590669
O5    O     O_R   0.500000 0.683240 0.614650 -0.616482
O6    O     O_R   0.499990 0.683210 0.385310 -0.577564
O7    O     O_R   0.626290 0.500020 0.614650 -0.596758
O8    O     O_R   0.626280 0.499980 0.385300 -0.636106
Zn1   Zn    Zn3+2 0.500010 0.500020 0.653130 0.964675
Zn2   Zn    Zn3+2 0.499990 0.499980 0.346870 0.958479
C25   C     C_3   0.645937 0.137597 0.310376 -0.708511
H5    H     H_    0.657818 0.234509 0.344753 0.254717
H6    H     H_    0.717571 0.093452 0.308201 0.229907
H7    H     H_    0.615666 0.138979 0.208150 0.265478
C26   C     C_2   0.292769 0.421426 0.878428 0.506222
H8    H     H_    0.329229 0.336479 0.909678 0.017301
O9    O     O_2   0.224363 0.413456 0.805649 -0.573108
C27   C     C_2   0.277161 0.655082 0.154669 0.465945
H9    H     H_    0.200372 0.659646 0.156530 0.058323
O10   O     O_2   0.321656 0.737337 0.209274 -0.563900
C28   C     C_3   0.620195 0.861707 0.281406 -0.838817
H10   H     H_    0.664228 0.783178 0.321316 0.225359
H11   H     H_    0.564484 0.824604 0.215741 0.265673
H12   H     H_    0.666796 0.918231 0.215300 0.233425
C29   C     C_3   0.440431 0.116237 0.852229 -0.762906
H13   H     H_    0.501243 0.062034 0.893830 0.255117
H14   H     H_    0.459818 0.216480 0.848334 0.263928
H15   H     H_    0.378249 0.105026 0.920581 0.225170
C30   C     C_2   0.669171 0.432531 0.133112 0.403127
H16   H     H_    0.704988 0.509350 0.180315 0.088382
O11   O     O_2   0.710763 0.332215 0.120478 -0.606235
C31   C     C_2   0.653012 0.386112 0.853044 0.594952
H17   H     H_    0.724040 0.423029 0.859364 0.033381
O12   O     O_2   0.640435 0.289838 0.790945 -0.561979
C32   C     C_3   0.274540 0.660875 0.864928 -0.772377
H18   H     H_    0.287135 0.661986 0.754869 0.253386
H19   H     H_    0.197000 0.657114 0.884616 0.239260
H20   H     H_    0.301259 0.750315 0.905231 0.219201

loop_
_geom_bond_atom_site_label_1
_geom_bond_atom_site_label_2
_ccdc_geom_bond_type
C16   C26   S    
C9    H2    S    
O5    Zn1   S    
C23   C24   S    
C30   H16   S    
C31   H17   S    
C13   C30   S    
C19   O8    A    
C13   C14   A    
C6    C28   S    
C18   O5    A    
C17   C27   S    
O6    Zn2   S    
C29   H13   S    
C28   H12   S    
C17   H1    S    
C12   C20   S    
C27   O10   D    
C25   H5    S    
C2    C19   S    
C7    C8    A    
O7    Zn1   S    
C3    C10   S    
C21   C22   S    
O8    Zn2   S    
C10   C29   S    
C25   H6    S    
C9    H3    S    
O3    Zn1   S    
C18   O6    A    
C14   N2    A    
O4    Zn2   S    
C4    C5    A    
N1    Zn2   S    
C13   N1    A    
C27   H9    S    
O1    Zn1   S    
N2    Zn1   S    
C3    C8    A    
C6    C7    A    
O2    Zn2   S    
C29   H14   S    
C2    C24   T    
C5    C6    A    
C25   H7    S    
C30   O11   D    
C1    C4    S    
C32   H20   S    
C12   O4    A    
C15   C16   S    
C14   C31   S    
C1    O1    A    
C7    C18   S    
C20   C21   T    
C11   N1    A    
C15   N2    A    
C29   H15   S    
C32   H18   S    
C9    C10   S    
C26   O9    D    
C10   H4    S    
C5    C25   S    
C22   C23   T    
C16   C17   S    
C31   O12   D    
C16   C32   S    
C19   O7    A    
C28   H11   S    
C12   O3    A    
C26   H8    S    
C11   C15   A    
C1    O2    A    
C11   C17   S    
C3    C4    A    
C28   H10   S    
C8    C9    S    
C32   H19   S    
