data_mof_unit_33974.cif
_audit_creation_date              2012-10-26T19:35:16-0400
_audit_creation_method            fapswitch 2.2
_symmetry_space_group_name_H-M    P1
_symmetry_Int_Tables_number       1
_space_group_crystal_system       triclinic
_cell_length_a                    10.908423
_cell_length_b                    10.837073
_cell_length_c                    9.616815
_cell_angle_alpha                 88.696986
_cell_angle_beta                  89.972832
_cell_angle_gamma                 91.794093
_cell_volume                      1136.00348012

loop_
_atom_site_label
_atom_site_type_symbol
_atom_type_description
_atom_site_fract_x
_atom_site_fract_y
_atom_site_fract_z
_atom_type_partial_charge
C1    C     C_R   0.502036 0.262692 0.500883 0.607898
C2    C     C_R   0.564188 0.938732 0.391977 -0.113441
C3    C     C_R   0.508451 0.870477 0.500820 -0.007171
C4    C     C_R   0.262698 0.507558 0.500359 0.551305
C5    C     C_R   0.468743 0.932412 0.616874 0.004685
C6    C     C_3   0.351880 0.916992 0.696776 -0.293735
C7    C     C_3   0.348126 0.057367 0.695712 -0.095320
C8    C     C_R   0.585430 0.568572 0.070368 0.205948
C9    C     C_R   0.422187 0.424616 0.077414 -0.033195
C10   C     C_R   0.419609 0.424607 0.926664 0.378989
C11   C     C_R   0.587382 0.565655 0.924149 0.001244
C12   C     C_R   0.060849 0.513689 0.627509 -0.009211
C13   C     C_3   0.620249 0.699324 0.905124 -0.085433
C14   C     C_3   0.613228 0.706920 0.065096 0.490854
C15   C     C_R   0.501082 0.737260 0.499290 0.566883
C16   C     C_R   0.737072 0.488519 0.500217 0.548952
C17   C     C_R   0.111548 0.552855 0.754561 -0.057333
C18   C     C_R   0.052674 0.522025 0.880359 0.289392
C19   C     C_R   0.947400 0.445265 0.878019 -0.099111
C20   C     C_R   0.886428 0.425504 0.753156 -0.156413
C21   C     C_R   0.937519 0.471631 0.627063 0.007738
C22   C     C_2   0.236726 0.104138 0.620008 0.238042
C23   C     C_R   0.128221 0.512595 0.501863 -0.024500
C24   C     C_3   0.249882 0.283735 0.931025 -0.147529
C25   C     C_2   0.744847 0.715676 0.839267 0.235772
C26   C     C_3   0.769689 0.856989 0.104758 -0.072775
C27   C     C_3   0.397717 0.748865 0.081393 -0.138931
C28   C     C_3   0.101950 0.685026 0.016917 -0.097616
C29   C     C_2   0.879652 0.468395 0.238604 0.268350
C30   C     C_3   0.538835 0.125389 0.162055 -0.114055
C31   C     C_R   0.065671 0.496261 0.376610 -0.125659
C32   C     C_R   0.938781 0.480932 0.374479 0.005411
C33   C     C_R   0.871822 0.474094 0.500420 -0.018453
C34   C     C_R   0.466954 0.059244 0.616108 0.007514
C35   C     C_R   0.509914 0.129433 0.501722 0.053796
C36   C     C_R   0.562883 0.068055 0.389055 0.230099
Cu1   Cu    Cu3+1 0.499990 0.499980 0.640670 1.019686
Cu2   Cu    Cu3+1 0.500010 0.500020 0.359330 1.020495
H1    H     H_    0.115654 0.494058 0.279330 0.182272
H2    H     H_    0.278151 0.869627 0.636021 0.125595
H3    H     H_    0.146887 0.087335 0.666322 0.097947
H4    H     H_    0.197058 0.343823 0.999125 0.157575
H5    H     H_    0.293930 0.209585 0.992964 0.068641
H6    H     H_    0.182473 0.239365 0.860379 0.134234
H7    H     H_    0.821540 0.665075 0.879678 0.143827
H8    H     H_    0.796654 0.899165 0.204602 0.147502
H9    H     H_    0.702701 0.917160 0.051423 0.131803
H10   H     H_    0.853460 0.856956 0.039753 0.105583
H11   H     H_    0.386939 0.702935 0.980255 0.087654
H12   H     H_    0.366495 0.876627 0.802341 0.110046
H13   H     H_    0.342809 0.833257 0.076449 0.105721
H14   H     H_    0.357897 0.688257 0.165201 0.184458
H15   H     H_    0.168591 0.732200 0.944816 0.065363
H16   H     H_    0.009093 0.720535 0.997085 0.155610
H17   H     H_    0.127478 0.709635 0.124627 0.140056
H18   H     H_    0.824242 0.386408 0.215736 0.110068
H19   H     H_    0.576549 0.187275 0.077963 0.132055
H20   H     H_    0.444692 0.155513 0.186098 0.132727
H21   H     H_    0.533884 0.030282 0.121818 0.140451
H22   H     H_    0.360452 0.095328 0.800903 0.121299
H23   H     H_    0.360563 0.366466 0.139658 0.123882
H24   H     H_    0.549821 0.753566 0.850517 0.149530
H25   H     H_    0.195559 0.608008 0.758027 0.135019
H26   H     H_    0.908984 0.404817 0.972198 0.145987
H27   H     H_    0.801948 0.370528 0.755914 0.141713
H28   H     H_    0.606924 0.892051 0.308766 0.202245
N1    N     N_R   0.500790 0.500930 0.147930 -0.288630
N2    N     N_R   0.500790 0.500890 0.852020 -0.248649
O1    O     O_R   0.500000 0.319640 0.618810 -0.476519
O2    O     O_3   0.337609 0.351668 0.849992 -0.517290
O3    O     O_2   0.760329 0.785932 0.739402 -0.517768
O4    O     O_3   0.727109 0.733613 0.130903 -0.511489
O5    O     O_3   0.519781 0.784583 0.114691 -0.594010
O6    O     O_3   0.103894 0.555394 0.005976 -0.575019
O7    O     O_2   0.886676 0.553707 0.154410 -0.483655
O8    O     O_3   0.616790 0.133870 0.278880 -0.572242
O9    O     O_R   0.500010 0.319680 0.381230 -0.475418
O10   O     O_R   0.319640 0.499980 0.618820 -0.462753
O11   O     O_R   0.319650 0.500020 0.381230 -0.528787
O12   O     O_R   0.499990 0.680320 0.618770 -0.508281
O13   O     O_R   0.500000 0.680360 0.381190 -0.469880
O14   O     O_R   0.680350 0.499980 0.618770 -0.505586
O15   O     O_R   0.680360 0.500020 0.381180 -0.474997
O16   O     O_2   0.244773 0.159998 0.508571 -0.511062

loop_
_geom_bond_atom_site_label_1
_geom_bond_atom_site_label_2
_ccdc_geom_bond_type
C30   H19   S    
Cu1   O1    S    
Cu2   O15   S    
C26   O4    S    
C35   C36   A    
C28   O6    S    
C24   O2    S    
C15   O13   A    
C11   N2    A    
C12   C23   A    
C9    H23   S    
C18   C19   A    
C29   C32   S    
C5    C6    S    
C22   H3    S    
C21   C33   A    
Cu2   O11   S    
Cu1   N2    S    
C24   H4    S    
C34   C35   A    
C36   O8    S    
C13   H24   S    
C31   C32   A    
C12   C17   A    
C25   O3    D    
C9    C10   A    
C26   H10   S    
C18   O6    S    
C13   C14   S    
C30   H21   S    
C13   C25   S    
C28   H17   S    
C27   H13   S    
Cu1   O12   S    
C14   O5    S    
C20   H27   S    
Cu2   N1    S    
C4    O11   A    
C4    C23   S    
C28   H16   S    
C3    C5    A    
C12   C21   A    
C16   O15   A    
C1    O1    A    
C23   C31   A    
C9    N1    A    
C4    O10   A    
Cu1   Cu2   S    
C16   C33   S    
C30   O8    S    
C15   O12   A    
C19   H26   S    
C5    C34   A    
C16   O14   A    
C17   C18   A    
C6    H12   S    
C26   H9    S    
C10   O2    S    
Cu2   O9    S    
Cu2   O13   S    
C24   H6    S    
C7    C34   S    
C6    H2    S    
Cu1   O14   S    
C25   H7    S    
C7    H22   S    
C3    C15   S    
C27   H14   S    
C1    C35   S    
C2    C36   A    
C8    C14   S    
C14   O4    S    
C2    H28   S    
C28   H15   S    
C6    C7    S    
C29   O7    D    
C29   H18   S    
C10   N2    A    
C7    C22   S    
Cu1   O10   S    
C32   C33   A    
C19   C20   A    
C2    C3    A    
C17   H25   S    
C11   C13   S    
C8    C11   A    
C30   H20   S    
C31   H1    S    
C26   H8    S    
C20   C21   A    
C8    N1    A    
C24   H5    S    
C1    O9    A    
C27   O5    S    
C27   H11   S    
C22   O16   D    
