data_mof_unit_24771.cif
_audit_creation_date              2012-12-10T17:50:16-0500
_audit_creation_method            fapswitch 2.2
_symmetry_space_group_name_H-M    P1
_symmetry_Int_Tables_number       1
_space_group_crystal_system       triclinic
_cell_length_a                    10.599139
_cell_length_b                    14.826223
_cell_length_c                    14.854428
_cell_angle_alpha                 64.22699
_cell_angle_beta                  104.862865
_cell_angle_gamma                 102.50283
_cell_volume                      2016.93761228

loop_
_atom_site_label
_atom_site_type_symbol
_atom_type_description
_atom_site_fract_x
_atom_site_fract_y
_atom_site_fract_z
_atom_type_partial_charge
C1    C     C_R   0.479781 0.119568 0.312619 0.851978
C2    C     C_R   0.520219 0.880432 0.687381 0.851978
C3    C     C_R   0.528110 0.286759 0.175155 0.318341
C4    C     C_R   0.471890 0.713241 0.824845 0.318341
C5    C     C_R   0.484467 0.360156 0.077796 0.024347
C6    C     C_R   0.515533 0.639844 0.922204 0.024347
C7    C     C_R   0.408276 0.325688 0.002732 0.111297
C8    C     C_R   0.591724 0.674312 0.997268 0.111297
C9    C     C_R   0.514562 0.465872 0.051763 0.071382
C10   C     C_R   0.485438 0.534128 0.948237 0.071382
C11   C     C_R   0.434150 0.494251 0.873707 -0.112874
C12   C     C_R   0.565850 0.505749 0.126293 -0.112874
C13   C     C_R   0.388485 0.392572 0.900889 -0.205730
C14   C     C_R   0.611515 0.607428 0.099111 -0.205730
C15   C     C_R   0.755073 0.302316 0.631847 -0.299238
C16   C     C_R   0.244927 0.697683 0.368153 -0.299238
C17   C     C_R   0.703608 0.211848 0.621838 0.023405
C18   C     C_R   0.296392 0.788152 0.378162 0.023406
C19   C     C_R   0.508893 0.282393 0.514987 0.493941
C20   C     C_R   0.491108 0.717607 0.485013 0.493941
C21   C     C_R   0.549043 0.371350 0.534675 -0.086136
C22   C     C_R   0.450957 0.628649 0.465324 -0.086137
C23   C     C_R   0.259791 0.000388 0.499863 0.807936
C24   C     C_R   0.740209 0.999612 0.500137 0.807936
C25   C     C_R   0.680388 0.383511 0.584761 0.113340
C26   C     C_R   0.319612 0.616489 0.415239 0.113341
C27   C     C_R   0.469875 0.451965 0.499974 0.083066
C28   C     C_R   0.530125 0.548035 0.500026 0.083066
C29   C     C_R   0.667822 0.560906 0.530668 -0.154715
C30   C     C_R   0.332178 0.439094 0.469332 -0.154716
C31   C     C_R   0.739292 0.478780 0.579971 -0.163397
C32   C     C_R   0.260708 0.521220 0.420029 -0.163397
C33   C     C_3   0.012489 0.011631 0.407688 -0.187409
C34   C     C_3   0.987511 0.988369 0.592312 -0.187409
C35   C     C_3   0.958830 0.087716 0.429511 -0.133849
C36   C     C_3   0.041170 0.912284 0.570489 -0.133849
C37   C     C_3   0.877103 0.999167 0.499904 0.010531
C38   C     C_3   0.122897 0.000832 0.500096 0.010531
C39   C     C_3   0.928437 0.923004 0.478063 -0.118695
C40   C     C_3   0.071563 0.076996 0.521937 -0.118695
C41   C     C_R   0.463745 0.187721 0.204654 -0.097377
C42   C     C_R   0.536255 0.812279 0.795346 -0.097377
C43   C     C_R   0.356793 0.223966 0.030042 -0.182449
C44   C     C_R   0.643206 0.776034 0.969958 -0.182449
C45   C     C_R   0.378588 0.156548 0.131493 -0.252695
C46   C     C_R   0.621412 0.843452 0.868507 -0.252695
Cu1   Cu    Cu3+1 0.465750 0.918270 0.475680 1.012416
Cu2   Cu    Cu3+1 0.534250 0.081730 0.524320 1.012416
H1    H     H_    0.854321 0.309872 0.673268 0.150174
H2    H     H_    0.145679 0.690128 0.326732 0.150174
H3    H     H_    0.723083 0.634476 0.515634 0.182088
H4    H     H_    0.276917 0.365524 0.484366 0.182088
H5    H     H_    0.026061 0.021217 0.332230 0.139454
H6    H     H_    0.973939 0.978783 0.667770 0.139454
H7    H     H_    0.867239 0.859857 0.460169 0.163625
H8    H     H_    0.132761 0.140143 0.539831 0.163625
H9    H     H_    0.669569 0.920167 0.847519 0.165424
H10   H     H_    0.330431 0.079833 0.152481 0.165424
H11   H     H_    0.295910 0.197480 0.973518 0.143670
H12   H     H_    0.704090 0.802520 0.026482 0.143670
H13   H     H_    0.429029 0.540571 0.793583 0.213505
H14   H     H_    0.570971 0.459429 0.206417 0.213505
N1    N     N_R   0.585750 0.204560 0.560800 -0.196327
N2    N     N_R   0.414250 0.795440 0.439200 -0.196326
O1    O     O_R   0.454850 0.022100 0.338110 -0.614109
O2    O     O_R   0.545150 0.977900 0.661890 -0.614110
O3    O     O_R   0.512700 0.160150 0.379180 -0.479510
O4    O     O_R   0.487300 0.839850 0.620820 -0.479510
O5    O     O_R   0.287930 0.931000 0.479440 -0.587075
O6    O     O_R   0.712070 0.069000 0.520560 -0.587076
O7    O     O_R   0.345780 0.069050 0.520520 -0.548163
O8    O     O_R   0.654220 0.930950 0.479480 -0.548163
H15   H     H_    0.921900 0.159385 0.371852 0.189242
H16   H     H_    0.078100 0.840615 0.628148 0.189242
Cl1   Cl    Cl    0.619509 0.718441 0.587708 -0.639945
Cl2   Cl    Cl    0.380491 0.281559 0.412292 -0.639944
H17   H     H_    0.237583 0.850118 0.343685 0.135348
H18   H     H_    0.762417 0.149882 0.656315 0.135348
H19   H     H_    0.340550 0.365770 0.841739 0.147767
H20   H     H_    0.659450 0.634230 0.158261 0.147767
Cl3   Cl    Cl    0.315620 0.692335 0.751911 -0.648701
Cl4   Cl    Cl    0.684380 0.307665 0.248089 -0.648701
H21   H     H_    0.843415 0.491135 0.609127 0.156116
H22   H     H_    0.156585 0.508865 0.390873 0.156116

loop_
_geom_bond_atom_site_label_1
_geom_bond_atom_site_label_2
_ccdc_geom_bond_type
C25   C31   A    
C30   C32   A    
C13   H19   S    
C26   C32   A    
C34   C37   S    
C23   O5    A    
C24   O6    A    
C33   C39   S    
C34   C40   S    
C28   C29   A    
C19   C21   A    
C16   H2    S    
C2    O4    A    
C15   C25   A    
C31   H21   S    
C42   C46   A    
Cu1   O5    S    
C30   H4    S    
C33   C35   S    
C39   H7    S    
C4    Cl3   S    
C19   N1    A    
C40   H8    S    
C1    O1    A    
C14   H20   S    
C9    C10   A    
C43   H11   S    
C21   C27   A    
C22   C28   A    
C27   C30   A    
C33   H5    S    
C19   Cl2   S    
C44   C46   A    
C16   C26   A    
C32   H22   S    
C45   H10   S    
C23   O7    A    
C4    C6    A    
Cu2   O6    S    
Cu1   N2    S    
C5    C7    A    
Cu2   N1    S    
C6    C8    A    
C11   H13   S    
C20   Cl1   S    
C20   N2    A    
C5    C9    A    
C37   C39   S    
C12   H14   S    
Cu1   Cu2   S    
C3    Cl4   S    
C24   C37   S    
C44   H12   S    
C43   C45   A    
C36   H16   S    
C1    C41   S    
C20   C22   A    
C34   H6    S    
C7    C43   A    
C46   H9    S    
Cu2   O7    S    
Cu1   O4    S    
C24   O8    A    
C29   H3    S    
C15   C17   A    
C21   C25   A    
C35   H15   S    
C8    C14   A    
C35   C37   S    
C36   C39   S    
C8    C44   A    
C12   C14   A    
C3    C5    A    
C6    C10   A    
C2    O2    A    
C23   C38   S    
C33   C38   S    
C36   C38   S    
C35   C40   S    
C29   C31   A    
C17   N1    A    
C38   C40   S    
C11   C13   A    
C18   N2    A    
C4    C42   A    
C2    C42   S    
C18   H17   S    
C17   H18   S    
C1    O3    A    
C34   C36   S    
C15   H1    S    
Cu2   O3    S    
C9    C12   A    
Cu1   O8    S    
C3    C41   A    
C10   C11   A    
C7    C13   A    
C16   C18   A    
C22   C26   A    
C27   C28   A    
C41   C45   A    
Cu2   O2    S    
Cu1   O1    S    
