data_mof_unit_41903.cif
_audit_creation_date              2012-12-11T14:49:46-0500
_audit_creation_method            fapswitch 2.2
_symmetry_space_group_name_H-M    P1
_symmetry_Int_Tables_number       1
_space_group_crystal_system       triclinic
_cell_length_a                    10.946129
_cell_length_b                    10.945943
_cell_length_c                    18.918444
_cell_angle_alpha                 90.000125
_cell_angle_beta                  90.000384
_cell_angle_gamma                 120.000996
_cell_volume                      1963.02319343

loop_
_atom_site_label
_atom_site_type_symbol
_atom_type_description
_atom_site_fract_x
_atom_site_fract_y
_atom_site_fract_z
_atom_type_partial_charge
C1    C     C_R   0.529991 0.467274 0.646092 0.604272
C2    C     C_R   0.463130 0.530307 0.355238 0.610985
C3    C     C_R   0.469701 0.932833 0.144767 0.611222
C4    C     C_R   0.067165 0.536867 0.355235 0.610924
C5    C     C_R   0.421819 0.058184 0.531142 0.384769
C6    C     C_R   0.636425 0.577837 0.968910 0.384758
C7    C     C_R   0.941839 0.363611 0.531144 0.384879
C8    C     C_R   0.422163 0.058587 0.968908 0.384768
C9    C     C_R   0.636387 0.578140 0.531137 0.384793
C10   C     C_R   0.941405 0.363570 0.968909 0.384753
C11   C     C_R   0.961890 0.379465 0.041474 0.412470
C12   C     C_R   0.937262 0.470000 0.853915 0.604623
C13   C     C_R   0.620520 0.582677 0.458566 0.412338
C14   C     C_R   0.417570 0.038100 0.041473 0.412507
C15   C     C_R   0.962203 0.379463 0.458570 0.412407
C16   C     C_R   0.620532 0.582426 0.041475 0.412481
C17   C     C_R   0.417275 0.037778 0.458572 0.412301
C18   C     C_R   0.482122 0.967324 0.429665 -0.054774
C19   C     C_R   0.485217 0.517863 0.070345 -0.053830
C20   C     C_R   0.032609 0.514782 0.429656 -0.054707
C21   C     C_R   0.482133 0.967345 0.070344 -0.053841
C22   C     C_R   0.485196 0.517900 0.429669 -0.054612
C23   C     C_R   0.532724 0.062711 0.646092 0.604202
C24   C     C_R   0.032653 0.514786 0.070344 -0.053844
C25   C     C_R   0.991778 0.483956 0.925065 -0.053716
C26   C     C_R   0.515993 0.507869 0.574955 -0.054431
C27   C     C_R   0.492181 0.008222 0.925064 -0.053720
C28   C     C_R   0.991854 0.484021 0.574947 -0.054562
C29   C     C_R   0.516044 0.507824 0.925065 -0.053706
C30   C     C_R   0.492139 0.008118 0.574954 -0.054592
C31   C     C_R   0.546256 0.912057 0.474014 0.360710
C32   C     C_R   0.365848 0.453991 0.025970 0.360972
C33   C     C_R   0.087781 0.634206 0.473994 0.360889
C34   C     C_R   0.530000 0.467265 0.853914 0.604630
C35   C     C_R   0.546018 0.911855 0.025970 0.360978
C36   C     C_R   0.365784 0.453864 0.474026 0.360755
C37   C     C_R   0.088160 0.634162 0.025970 0.360982
C38   C     C_R   0.070039 0.618689 0.953925 0.394209
C39   C     C_R   0.381248 0.451192 0.546070 0.393853
C40   C     C_R   0.548663 0.929973 0.953926 0.394218
C41   C     C_R   0.069703 0.618762 0.546038 0.393859
C42   C     C_R   0.381317 0.451349 0.953926 0.394210
C43   C     C_R   0.548893 0.930138 0.546059 0.393759
C44   C     C_R   0.937290 0.470015 0.646092 0.604223
C45   C     C_R   0.532739 0.062739 0.853914 0.604612
C46   C     C_R   0.463138 0.530295 0.144768 0.611230
C47   C     C_R   0.469691 0.932811 0.355240 0.610915
C48   C     C_R   0.067161 0.536863 0.144768 0.611220
Cr1   Cr    Cr6+3 0.776430 0.541680 0.750000 1.245945
Cr2   Cr    Cr6+3 0.765250 0.223570 0.750000 1.245943
Cr3   Cr    Cr6+3 0.458320 0.234750 0.750000 1.245930
Cr4   Cr    Cr6+3 0.541680 0.776430 0.250000 1.246658
Cr5   Cr    Cr6+3 0.223570 0.765250 0.250000 1.246672
Cr6   Cr    Cr6+3 0.234750 0.458320 0.250000 1.246669
F1    F     F_    0.364574 0.133695 0.557533 -0.508599
F2    F     F_    0.911247 0.263477 0.416601 -0.499589
F3    F     F_    0.736472 0.647082 0.083484 -0.500265
F4    F     F_    0.352335 0.088800 0.416595 -0.499676
F5    F     F_    0.606614 0.839522 0.447847 -0.531551
F6    F     F_    0.232976 0.393826 0.052116 -0.532259
F7    F     F_    0.160284 0.767139 0.447826 -0.531232
F8    F     F_    0.606175 0.839129 0.052115 -0.532257
F9    F     F_    0.232859 0.393637 0.447865 -0.531742
F10   F     F_    0.160915 0.767043 0.052116 -0.532304
F11   F     F_    0.124042 0.735968 0.912668 -0.512910
F12   F     F_    0.769186 0.634708 0.942559 -0.509488
F13   F     F_    0.263940 0.387720 0.587305 -0.512424
F14   F     F_    0.611947 0.875980 0.912668 -0.512890
F15   F     F_    0.123393 0.736096 0.587248 -0.512172
F16   F     F_    0.264041 0.388064 0.912668 -0.512896
F17   F     F_    0.612446 0.876388 0.587282 -0.512359
F18   F     F_    0.866452 0.230837 0.557547 -0.508373
F19   F     F_    0.365291 0.134478 0.942557 -0.509477
F20   F     F_    0.769145 0.635355 0.557524 -0.508618
F21   F     F_    0.865509 0.230804 0.942557 -0.509483
F22   F     F_    0.910602 0.263523 0.083482 -0.500270
F23   F     F_    0.736493 0.647535 0.416579 -0.499756
F24   F     F_    0.352899 0.089367 0.083479 -0.500245
O1    O     O_R   0.916700 0.566820 0.669930 -0.405596
O2    O     O_R   0.566820 0.916700 0.330070 -0.428306
O3    O     O_R   0.083300 0.650120 0.169930 -0.428365
O4    O     O_R   0.349880 0.433180 0.330070 -0.428335
O5    O     O_R   0.649840 0.534790 0.674920 -0.453097
O6    O     O_R   0.884950 0.350160 0.825080 -0.453105
O7    O     O_R   0.465210 0.115050 0.674920 -0.453097
O8    O     O_R   0.649840 0.534790 0.825080 -0.453113
O9    O     O_R   0.884950 0.350160 0.674920 -0.453105
O10   O     O_R   0.465210 0.115050 0.825080 -0.453113
O11   O     O_R   0.534790 0.649840 0.174920 -0.435086
O12   O     O_R   0.650120 0.083300 0.830070 -0.405577
O13   O     O_R   0.350160 0.884950 0.325080 -0.435105
O14   O     O_R   0.115050 0.465210 0.174920 -0.435100
O15   O     O_R   0.534790 0.649840 0.325080 -0.435093
O16   O     O_R   0.350160 0.884950 0.174920 -0.435064
O17   O     O_R   0.115050 0.465210 0.325080 -0.435005
O18   O     O_3   0.666667 0.333333 0.750000 -0.388298
O19   O     O_3   0.333333 0.666667 0.250000 -0.391241
O20   O     O_R   0.433180 0.349880 0.669930 -0.405644
O21   O     O_R   0.916700 0.566820 0.830070 -0.405596
O22   O     O_R   0.650120 0.083300 0.669930 -0.405642
O23   O     O_R   0.433180 0.349880 0.830070 -0.405579
O24   O     O_R   0.566820 0.916700 0.169930 -0.428376
O25   O     O_R   0.083300 0.650120 0.330070 -0.428319
O26   O     O_R   0.349880 0.433180 0.169930 -0.428370

loop_
_geom_bond_atom_site_label_1
_geom_bond_atom_site_label_2
_ccdc_geom_bond_type
C29   C42   A    
Cr4   O19   S    
C18   C47   S    
Cr3   O7    S    
C19   C46   S    
Cr2   O6    S    
C46   O11   A    
Cr4   O24   S    
C31   C43   A    
C14   C21   A    
Cr6   O26   S    
C11   F22   S    
C26   C39   A    
C5    C17   A    
C4    O25   A    
C11   C24   A    
C42   F16   S    
C48   O3    A    
C12   O6    A    
Cr5   O3    S    
C34   O8    A    
C31   F5    S    
C9    C13   A    
C12   O21   A    
Cr2   O12   S    
Cr5   O13   S    
C43   F17   S    
Cr6   O19   S    
C35   F8    S    
C36   F9    S    
C2    O15   A    
Cr3   O18   S    
C27   C45   S    
Cr3   O20   S    
C7    C15   A    
C23   O22   A    
Cr4   O11   S    
C47   O13   A    
C47   O2    A    
C19   C32   A    
C9    C26   A    
C24   C37   A    
C36   C39   A    
C15   C20   A    
C13   F23   S    
C34   O23   A    
C24   C48   S    
C23   C30   S    
C45   O10   A    
C7    F18   S    
Cr5   O19   S    
C46   O26   A    
C29   C34   S    
C28   C44   S    
C7    C28   A    
Cr1   O1    S    
C1    O20   A    
Cr6   O14   S    
C37   C38   A    
C25   C38   A    
Cr1   O21   S    
C4    O17   A    
C10   F21   S    
C38   F11   S    
C27   C40   A    
C17   C18   A    
Cr4   O15   S    
C45   O12   A    
Cr6   O17   S    
Cr2   O9    S    
C20   C33   A    
C3    O24   A    
C40   F14   S    
C1    C26   S    
C30   C43   A    
C2    O4    A    
Cr3   O23   S    
C9    F20   S    
C32   F6    S    
C44   O9    A    
Cr6   O4    S    
C37   F10   S    
C10   C25   A    
C41   F15   S    
C5    C30   A    
C8    C14   A    
Cr5   O16   S    
C39   F13   S    
Cr1   O8    S    
C5    F1    S    
C44   O1    A    
Cr3   O10   S    
C21   C35   A    
C1    O5    A    
C22   C36   A    
C17   F4    S    
Cr2   O22   S    
C12   C25   S    
C33   C41   A    
C15   F2    S    
Cr1   O5    S    
C35   C40   A    
C23   O7    A    
C2    C22   S    
Cr2   O18   S    
Cr5   O25   S    
C16   C19   A    
C8    F19   S    
C13   C22   A    
C3    O16   A    
C16   F3    S    
C14   F24   S    
Cr1   O18   S    
C3    C21   S    
C10   C11   A    
C6    C16   A    
C4    C20   S    
C6    F12   S    
C6    C29   A    
C33   F7    S    
C48   O14   A    
C8    C27   A    
C32   C42   A    
C18   C31   A    
Cr4   O2    S    
C28   C41   A    
