data_mof_unit_28865.cif
_audit_creation_date              2012-12-10T18:54:25-0500
_audit_creation_method            fapswitch 2.2
_symmetry_space_group_name_H-M    P1
_symmetry_Int_Tables_number       1
_space_group_crystal_system       triclinic
_cell_length_a                    10.590049
_cell_length_b                    9.950499
_cell_length_c                    23.322066
_cell_angle_alpha                 90.9668
_cell_angle_beta                  92.215533
_cell_angle_gamma                 88.782396
_cell_volume                      2454.88381605

loop_
_atom_site_label
_atom_site_type_symbol
_atom_type_description
_atom_site_fract_x
_atom_site_fract_y
_atom_site_fract_z
_atom_type_partial_charge
C1    C     C_R   0.259085 0.501824 0.497098 0.933383
C2    C     C_R   0.738459 0.498748 0.493212 0.953615
C3    C     C_R   0.617702 0.402422 0.245212 -0.107767
C4    C     C_R   0.426423 0.594284 0.762011 -0.109726
C5    C     C_R   0.609429 0.412606 0.304459 -0.258827
C6    C     C_R   0.424945 0.595563 0.702373 -0.240861
C7    C     C_R   0.515080 0.494681 0.328216 -0.016217
C8    C     C_R   0.496878 0.499749 0.672505 -0.034256
C9    C     C_R   0.431468 0.569150 0.292863 -0.258631
C10   C     C_R   0.566518 0.400052 0.702256 -0.216175
C11   C     C_R   0.440206 0.559686 0.233850 -0.104344
C12   C     C_R   0.568205 0.399116 0.761662 -0.114745
C13   C     C_R   0.532047 0.475036 0.209943 0.309317
C14   C     C_R   0.499064 0.496721 0.791465 0.319553
C15   C     C_R   0.066466 0.393160 0.459375 0.335531
C16   C     C_R   0.927175 0.623348 0.475625 0.327958
C17   C     C_R   0.934786 0.385144 0.460386 0.324393
C18   C     C_R   0.054517 0.627916 0.490530 0.327952
C19   C     C_R   0.869484 0.499353 0.479640 -0.414119
C20   C     C_R   0.124720 0.506318 0.485589 -0.409413
C21   C     C_R   0.572696 0.073868 0.540066 0.295263
C22   C     C_R   0.420624 0.928133 0.463594 0.307328
C23   C     C_R   0.433829 0.069911 0.458673 0.381140
C24   C     C_R   0.570620 0.928116 0.540651 0.307283
C25   C     C_R   0.502504 0.498798 0.389713 0.784613
C26   C     C_R   0.498419 0.500613 0.610398 0.848059
C27   C     C_R   0.607794 0.544300 0.881408 0.518536
C28   C     C_R   0.434059 0.407741 0.119849 0.517881
C29   C     C_R   0.405873 0.440981 0.879777 0.532465
C30   C     C_R   0.634124 0.514904 0.121741 0.523079
C31   C     C_R   0.411149 0.431753 0.939436 -0.054245
C32   C     C_R   0.630967 0.519710 0.061925 -0.042746
C33   C     C_R   0.517859 0.480366 0.970562 -0.085570
C34   C     C_R   0.524416 0.470916 0.030755 -0.081638
C35   C     C_R   0.617965 0.537954 0.941549 -0.108803
C36   C     C_R   0.424439 0.413088 0.059724 -0.112615
C37   C     C_R   0.312697 0.373972 0.968218 -0.267151
C38   C     C_R   0.730318 0.575497 0.033054 -0.299074
C39   C     C_R   0.317156 0.366164 0.027972 0.482038
C40   C     C_R   0.724148 0.587136 0.973407 0.487167
H1    H     H_    0.231304 0.334285 0.944548 0.203602
H2    H     H_    0.813494 0.611256 0.056610 0.189378
H3    H     H_    0.689035 0.337229 0.226717 0.146104
H4    H     H_    0.371981 0.668905 0.785347 0.136461
H5    H     H_    0.675719 0.356107 0.331720 0.170127
H6    H     H_    0.367422 0.670159 0.679672 0.140645
H7    H     H_    0.356988 0.630661 0.310428 0.113632
H8    H     H_    0.620707 0.324160 0.679587 0.183248
H9    H     H_    0.374159 0.616099 0.206463 0.134603
H10   H     H_    0.623375 0.323068 0.784684 0.137091
N1    N     N_R   0.503326 0.496006 0.852440 -0.365272
N2    N     N_R   0.535555 0.461983 0.149123 -0.359509
N3    N     N_R   0.500000 0.857200 0.500000 -0.181915
N4    N     N_R   0.500000 0.142800 0.500000 -0.189865
O1    O     O_R   0.316770 0.614620 0.500000 -0.551671
O2    O     O_R   0.683230 0.385380 0.500000 -0.565701
O3    O     O_R   0.683230 0.614620 0.500000 -0.550072
O4    O     O_R   0.316770 0.385380 0.500000 -0.567176
O5    O     O_R   0.499970 0.614690 0.416160 -0.646860
O6    O     O_R   0.500030 0.385310 0.583840 -0.566516
O7    O     O_R   0.500030 0.614690 0.583840 -0.596525
O8    O     O_R   0.499970 0.385310 0.416160 -0.596158
O9    O     O_2   0.700814 0.597775 0.851704 -0.514771
O10   O     O_2   0.342703 0.350478 0.149332 -0.523104
O11   O     O_2   0.304923 0.394261 0.849052 -0.556391
O12   O     O_2   0.733103 0.565880 0.152505 -0.585695
Zn1   Zn    Zn3+2 0.500000 0.653120 0.500000 1.013514
Zn2   Zn    Zn3+2 0.500000 0.346880 0.500000 1.032839
O13   O     O_3   0.219459 0.305204 0.054644 -0.564966
C41   C     C_3   0.116148 0.396948 0.057536 0.123302
H11   H     H_    0.074754 0.417771 0.013890 0.143791
H12   H     H_    0.145067 0.493386 0.078752 0.142887
C42   C     C_3   0.014455 0.336190 0.092795 -0.739371
H13   H     H_    0.052746 0.314880 0.136795 0.273047
H14   H     H_    0.932939 0.407504 0.095815 0.219269
H15   H     H_    0.981399 0.241174 0.072169 0.244082
O14   O     O_3   0.826205 0.638476 0.946353 -0.568170
C43   C     C_3   0.824112 0.779814 0.953140 0.122815
H16   H     H_    0.841240 0.809674 0.998956 0.123940
H17   H     H_    0.732012 0.824135 0.937146 0.145325
C44   C     C_3   0.928342 0.837780 0.918564 -0.748436
H18   H     H_    0.913000 0.811411 0.872386 0.275058
H19   H     H_    0.927928 0.948954 0.923664 0.199139
H20   H     H_    0.021781 0.796757 0.933886 0.248668
O15   O     O_3   0.134754 0.303683 0.426011 -0.578806
C45   C     C_3   0.164402 0.366402 0.374056 0.186563
H21   H     H_    0.265917 0.348531 0.367166 0.199143
H22   H     H_    0.149981 0.477990 0.373591 0.067470
C46   C     C_3   0.088042 0.305969 0.323712 -0.862059
H23   H     H_    0.985858 0.328707 0.328432 0.265467
H24   H     H_    0.118006 0.349738 0.283035 0.228025
H25   H     H_    0.103564 0.195539 0.321537 0.256966
O16   O     O_3   0.869753 0.727069 0.444459 -0.596800
C47   C     C_3   0.850257 0.680927 0.386709 0.155716
H26   H     H_    0.781091 0.598221 0.383806 0.151242
H27   H     H_    0.940853 0.644455 0.368477 0.127231
C48   C     C_3   0.796521 0.792362 0.348856 -0.863716
H28   H     H_    0.866890 0.872596 0.345688 0.251139
H29   H     H_    0.775217 0.751500 0.305012 0.238977
H30   H     H_    0.707355 0.833251 0.366412 0.254691
O17   O     O_3   0.867548 0.290078 0.428683 -0.612565
C49   C     C_3   0.907967 0.158209 0.441843 0.218878
H31   H     H_    0.942186 0.147539 0.487316 0.126193
H32   H     H_    0.983633 0.123866 0.413071 0.205732
C50   C     C_3   0.796165 0.068860 0.430438 -0.940058
H33   H     H_    0.772232 0.065152 0.383742 0.243523
H34   H     H_    0.817462 0.967356 0.447046 0.280834
H35   H     H_    0.713703 0.111711 0.452138 0.260439
O18   O     O_3   0.112930 0.750145 0.499145 -0.522711
C51   C     C_3   0.062728 0.818013 0.547117 0.167734
H36   H     H_    0.063158 0.751446 0.585134 0.107148
H37   H     H_    0.964645 0.855126 0.537122 0.157066
C52   C     C_3   0.143836 0.938605 0.562650 -0.795049
H38   H     H_    0.141515 0.010062 0.526520 0.272313
H39   H     H_    0.107322 0.990761 0.601238 0.183806
H40   H     H_    0.243098 0.905069 0.572097 0.252011
O19   O     O_3   0.643228 0.149890 0.580015 -0.575674
C53   C     C_3   0.769983 0.102552 0.587179 0.153902
H41   H     H_    0.805507 0.050349 0.548425 0.136245
H42   H     H_    0.778969 0.032662 0.623516 0.171499
C54   C     C_3   0.855775 0.219405 0.602872 -0.869404
H43   H     H_    0.853721 0.293324 0.568048 0.263667
H44   H     H_    0.825300 0.270010 0.642924 0.250998
H45   H     H_    0.954515 0.181850 0.609752 0.205447
O20   O     O_3   0.304375 0.874585 0.448824 -0.531952
C55   C     C_3   0.296370 0.824764 0.392053 0.277990
H46   H     H_    0.282586 0.714861 0.393817 0.148483
H47   H     H_    0.380635 0.841908 0.366504 0.092466
C56   C     C_3   0.178976 0.884835 0.361951 -0.883302
H48   H     H_    0.181959 0.995972 0.364013 0.285637
H49   H     H_    0.173329 0.850500 0.316398 0.197971
H50   H     H_    0.093259 0.852702 0.383514 0.283786
O21   O     O_3   0.386825 0.131961 0.409549 -0.547970
C57   C     C_3   0.475450 0.108632 0.365896 0.083354
H51   H     H_    0.515358 0.004336 0.365109 0.083650
H52   H     H_    0.557348 0.175094 0.372540 0.180794
C58   C     C_3   0.414667 0.134839 0.306762 -0.782602
H53   H     H_    0.385247 0.241691 0.302565 0.259196
H54   H     H_    0.484146 0.111136 0.273395 0.218467
H55   H     H_    0.331475 0.070501 0.298851 0.249455
O22   O     O_3   0.636886 0.857102 0.582892 -0.581704
C59   C     C_3   0.577537 0.877210 0.635890 0.097832
H56   H     H_    0.481312 0.834915 0.633857 0.152594
H57   H     H_    0.567319 0.985156 0.648182 0.151634
C60   C     C_3   0.657247 0.808995 0.683236 -0.787273
H58   H     H_    0.749264 0.859472 0.689622 0.229195
H59   H     H_    0.607055 0.814884 0.724154 0.223778
H60   H     H_    0.676001 0.702033 0.671731 0.271247

loop_
_geom_bond_atom_site_label_1
_geom_bond_atom_site_label_2
_ccdc_geom_bond_type
C38   C40   A    
O16   C47   S    
C8    C26   S    
C42   H13   S    
C18   O18   S    
C44   H20   S    
C57   C58   S    
C48   H28   S    
C2    O3    A    
O14   C43   S    
C50   H34   S    
C3    H3    S    
C16   O16   S    
C55   H46   S    
C6    C8    A    
C26   O7    A    
C38   H2    S    
O13   C41   S    
O15   C45   S    
C21   N4    A    
C43   H17   S    
N4    Zn2   S    
C11   C13   A    
C49   C50   S    
C15   C17   A    
C17   O17   S    
C53   H41   S    
C54   H45   S    
C21   O19   S    
C60   H59   S    
C51   H36   S    
O22   C59   S    
C31   C33   A    
C41   H11   S    
C32   C38   A    
C46   H24   S    
C18   C20   A    
C3    C13   A    
C15   O15   S    
C56   H50   S    
O5    Zn1   S    
C58   H53   S    
C4    C14   A    
C42   H14   S    
C59   C60   S    
C49   H31   S    
O3    Zn1   S    
C48   H29   S    
C27   N1    A    
C60   H58   S    
C22   N3    A    
C51   H37   S    
C15   C20   A    
C50   H35   S    
C23   O21   S    
C45   H22   S    
O17   C49   S    
C4    C6    A    
C5    C7    A    
C45   H21   S    
C17   C19   A    
C22   O20   S    
C57   H52   S    
C4    H4    S    
C47   C48   S    
C27   C35   A    
C24   N3    A    
O2    Zn2   S    
C5    H5    S    
C44   H18   S    
C31   C37   A    
C53   C54   S    
C32   C34   A    
C49   H32   S    
C11   H9    S    
C13   N2    S    
C58   H54   S    
O7    Zn1   S    
C12   H10   S    
C14   N1    S    
C24   O22   S    
C29   C31   A    
C41   C42   S    
C33   C34   A    
C39   O13   S    
C16   C18   A    
C46   H25   S    
C47   H27   S    
C9    C11   A    
C51   C52   S    
O6    Zn2   S    
C54   H43   S    
C30   O12   S    
C10   C12   A    
C29   O11   S    
C28   O10   S    
O4    Zn2   S    
C12   C14   A    
C9    H7    S    
C10   H8    S    
O21   C57   S    
C42   H15   S    
C59   H57   S    
C55   C56   S    
C48   H30   S    
C60   H60   S    
C23   N4    A    
C52   H38   S    
C29   N1    A    
C7    C9    A    
C30   N2    A    
C1    C20   S    
C55   H47   S    
C6    H6    S    
C2    C19   S    
C43   H16   S    
C36   C39   A    
C3    C5    A    
C45   C46   S    
C44   H19   S    
O1    Zn1   S    
C57   H51   S    
C50   H33   S    
C7    C25   S    
O8    Zn2   S    
C52   H40   S    
C35   C40   A    
C56   H48   S    
C37   C39   A    
C2    O2    A    
O19   C53   S    
C30   C32   A    
C28   N2    A    
C43   C44   S    
O20   C55   S    
C16   C19   A    
C58   H55   S    
C33   C35   A    
C1    O1    A    
C34   C36   A    
C25   O8    A    
C40   O14   S    
C37   H1    S    
C47   H26   S    
N3    Zn1   S    
C53   H42   S    
C54   H44   S    
C28   C36   A    
C8    C10   A    
C21   C24   A    
O18   C51   S    
C59   H56   S    
C22   C23   A    
C27   O9    S    
C41   H12   S    
C25   O5    A    
C56   H49   S    
C46   H23   S    
C1    O4    A    
C26   O6    A    
C52   H39   S    
