data_mof_unit_61556.cif
_audit_creation_date              2012-12-10T19:42:53-0500
_audit_creation_method            fapswitch 2.2
_symmetry_space_group_name_H-M    P1
_symmetry_Int_Tables_number       1
_space_group_crystal_system       triclinic
_cell_length_a                    31.536079
_cell_length_b                    30.831823
_cell_length_c                    22.500179
_cell_angle_alpha                 90.732298
_cell_angle_beta                  45.217228
_cell_angle_gamma                 90.070599
_cell_volume                      15525.8970046

loop_
_atom_site_label
_atom_site_type_symbol
_atom_type_description
_atom_site_fract_x
_atom_site_fract_y
_atom_site_fract_z
_atom_type_partial_charge
C1    C     C_R   0.192634 0.189666 0.496981 0.894957
C2    C     C_R   0.846690 0.157803 0.489448 -0.077233
C3    C     C_R   0.937709 0.941427 0.499879 0.988764
C4    C     C_R   0.061147 0.059273 0.501427 0.855750
C5    C     C_R   0.944798 0.065541 0.500012 0.839860
C6    C     C_R   0.557620 0.562965 0.501623 0.847308
C7    C     C_R   0.441338 0.562449 0.499229 0.855588
C8    C     C_R   0.168854 0.249625 0.660440 0.887989
C9    C     C_R   0.830853 0.249250 0.339520 0.886787
C10   C     C_R   0.668781 0.749526 0.660430 0.885752
C11   C     C_R   0.330815 0.749301 0.339518 0.888455
C12   C     C_R   0.507364 0.206941 0.952740 0.403848
C13   C     C_R   0.655844 0.655922 0.510177 -0.054498
C14   C     C_R   0.460960 0.205782 0.040676 0.411527
C15   C     C_R   0.011914 0.706363 0.952736 0.404017
C16   C     C_R   0.965486 0.705044 0.040594 0.409548
C17   C     C_R   0.541464 0.245573 0.913351 -0.262203
C18   C     C_R   0.449027 0.243854 0.087985 -0.251699
C19   C     C_R   0.042757 0.745885 0.913320 -0.260620
C20   C     C_R   0.950391 0.743920 0.087870 -0.251022
C21   C     C_R   0.528895 0.282969 0.960338 0.384064
C22   C     C_R   0.481397 0.282392 0.048310 0.379013
C23   C     C_R   0.027435 0.783986 0.960143 0.383886
C24   C     C_R   0.342927 0.655470 0.491924 -0.076431
C25   C     C_R   0.979973 0.783189 0.048128 0.378067
C26   C     C_1   0.586893 0.249361 0.824174 0.126422
C27   C     C_1   0.405732 0.245222 0.177073 0.085686
C28   C     C_1   0.087389 0.749500 0.824138 0.132124
C29   C     C_1   0.906533 0.745433 0.176977 0.087591
C30   C     C_1   0.371302 0.246998 0.251556 -0.203747
C31   C     C_1   0.624947 0.251034 0.749351 -0.198197
C32   C     C_1   0.871648 0.747224 0.251514 -0.204753
C33   C     C_1   0.124998 0.751059 0.749320 -0.187150
C34   C     C_3   0.391309 0.158147 0.156385 -0.239829
C35   C     C_R   0.188734 0.115411 0.458435 -0.200740
C36   C     C_3   0.568443 0.158378 0.834710 -0.232587
C37   C     C_3   0.899896 0.656662 0.156142 -0.234392
C38   C     C_3   0.077869 0.657488 0.836670 -0.232108
C39   C     C_3   0.443420 0.264947 0.438166 -0.215938
C40   C     C_3   0.578063 0.259895 0.521931 -0.202304
C41   C     C_3   0.917741 0.763901 0.496962 -0.206348
C42   C     C_3   0.081014 0.760772 0.515084 -0.204708
C43   C     C_3   0.535933 0.365219 0.341924 -0.222273
C44   C     C_3   0.468942 0.358167 0.624804 -0.213256
C45   C     C_3   0.029617 0.853006 0.382785 -0.214844
C46   C     C_R   0.840185 0.113765 0.486320 -0.218161
C47   C     C_3   0.968403 0.856778 0.627224 -0.187435
C48   C     C_3   0.265592 0.457343 0.696958 -0.283546
C49   C     C_3   0.739240 0.447791 0.320177 -0.285886
C50   C     C_3   0.756736 0.963862 0.656767 -0.304297
C51   C     C_3   0.236795 0.938208 0.320996 -0.277121
C52   C     C_3   0.209273 0.395873 0.634040 -0.724171
C53   C     C_3   0.780938 0.399166 0.402902 -0.717722
C54   C     C_3   0.728410 0.907153 0.562881 -0.703182
C55   C     C_3   0.276091 0.901790 0.415453 -0.706931
C56   C     C_3   0.339274 0.416825 0.403398 -0.324902
C57   C     C_R   0.677048 0.613837 0.482725 -0.205390
C58   C     C_3   0.641161 0.415436 0.631265 -0.301296
C59   C     C_3   0.884507 0.906889 0.344058 -0.346656
C60   C     C_3   0.134218 0.932839 0.636644 -0.325253
C61   C     C_3   0.539372 0.357675 0.936018 -0.186518
C62   C     C_3   0.483231 0.328016 0.128703 -0.284377
C63   C     C_3   0.032645 0.858279 0.936002 -0.181250
C64   C     C_3   0.977972 0.831427 0.129284 -0.288915
C65   C     C_3   0.190222 0.043870 0.408420 -0.798677
C66   C     C_3   0.852699 0.039653 0.504806 -0.781934
C67   C     C_3   0.672132 0.540828 0.446737 -0.775934
C68   C     C_R   0.327807 0.611808 0.503375 -0.199917
C69   C     C_3   0.349042 0.535562 0.504267 -0.898076
C70   C     C_3   0.054071 0.155586 0.469193 -0.664334
C71   C     C_3   0.894336 0.163277 0.617184 -0.667262
C72   C     C_3   0.577518 0.663023 0.433769 -0.654475
C73   C     C_3   0.421409 0.662942 0.570854 -0.656635
C74   C     C_3   0.954932 0.164427 0.704261 -0.360490
C75   C     C_3   0.009053 0.214111 0.401633 -0.386861
C76   C     C_3   0.464808 0.693154 0.665505 -0.392748
C77   C     C_3   0.534383 0.684348 0.338055 -0.377320
C78   C     C_3   0.100312 0.260185 0.465387 -0.261859
C79   C     C_R   0.156670 0.083448 0.459066 0.120903
C80   C     C_3   0.808044 0.249880 0.660742 -0.281817
C81   C     C_3   0.637801 0.759723 0.415468 -0.282654
C82   C     C_3   0.358089 0.762048 0.590054 -0.273047
C83   C     C_3   0.167136 0.244166 0.838314 -0.263329
C84   C     C_3   0.830759 0.258680 0.162380 -0.277536
C85   C     C_3   0.666891 0.751875 0.838546 -0.271176
C86   C     C_3   0.330293 0.750841 0.162139 -0.278043
C87   C     C_R   0.872001 0.084564 0.490879 0.152052
C88   C     C_R   0.645009 0.583828 0.480237 0.126359
C89   C     C_R   0.810172 0.190042 0.498012 0.929160
C90   C     C_R   0.362313 0.581243 0.500516 0.188006
C91   C     C_R   0.094972 0.089323 0.507910 -0.098902
C92   C     C_R   0.911566 0.098872 0.496955 -0.078904
C93   C     C_R   0.590008 0.594907 0.508152 -0.086302
C94   C     C_R   0.408721 0.594288 0.492897 -0.094210
C95   C     C_R   0.066713 0.127472 0.558747 -0.082122
C96   C     C_R   0.925569 0.144059 0.482756 -0.140780
C97   C     C_R   0.565791 0.636426 0.547423 -0.099900
C98   C     C_R   0.430882 0.636086 0.459363 -0.110048
C99   C     C_3   0.037508 0.163084 0.551901 0.582561
C100  C     C_R   0.690925 0.689811 0.500445 0.918691
C101  C     C_3   0.922633 0.180713 0.532488 0.546041
C102  C     C_3   0.552381 0.674380 0.520438 0.557167
C103  C     C_3   0.445614 0.673607 0.485258 0.556384
C104  C     C_3   0.074598 0.198060 0.544844 0.339320
C105  C     C_3   0.879808 0.207677 0.539581 0.360879
C106  C     C_3   0.591537 0.705081 0.514491 0.362697
C107  C     C_3   0.406031 0.704862 0.492245 0.367030
C108  C     C_R   0.014234 0.247079 0.044426 -0.291040
C109  C     C_R   0.983511 0.253831 0.955784 -0.294929
C110  C     C_R   0.514045 0.750234 0.044513 -0.293268
C111  C     C_R   0.308400 0.689702 0.500837 0.924508
C112  C     C_R   0.483153 0.750446 0.955675 -0.295377
C113  C     C_R   0.953860 0.250083 0.087559 -0.065655
C114  C     C_R   0.043901 0.250355 0.912624 -0.065076
C115  C     C_R   0.453630 0.749879 0.087549 -0.065133
C116  C     C_R   0.543620 0.750333 0.912613 -0.065097
C117  C     C_R   0.329846 0.249418 0.339634 0.886469
C118  C     C_R   0.669402 0.250583 0.660634 0.902216
C119  C     C_R   0.829888 0.749458 0.339634 0.898202
C120  C     C_R   0.169350 0.750635 0.660626 0.896154
C121  C     C_R   0.937306 0.253951 0.042962 0.549960
C122  C     C_R   0.100358 0.160393 0.552002 -0.135355
C123  C     C_R   0.060420 0.247189 0.957348 0.547869
C124  C     C_R   0.436965 0.750354 0.042847 0.550103
C125  C     C_R   0.560194 0.750551 0.957440 0.549052
C126  C     C_1   0.912088 0.249081 0.176379 -0.028182
C127  C     C_1   0.085866 0.249985 0.823673 -0.029722
C128  C     C_1   0.411936 0.749150 0.176378 -0.029391
C129  C     C_1   0.585626 0.749707 0.823654 -0.029110
C130  C     C_1   0.123024 0.249673 0.748897 -0.202785
C131  C     C_1   0.875608 0.248750 0.251073 -0.199909
C132  C     C_1   0.622844 0.749389 0.748877 -0.201518
C133  C     C_R   0.888460 0.171917 0.487802 -0.069919
C134  C     C_1   0.375511 0.748893 0.251071 -0.202344
C135  C     C_R   0.317137 0.376724 0.542834 -0.158395
C136  C     C_R   0.672367 0.382063 0.486549 -0.138868
C137  C     C_R   0.825431 0.881862 0.515479 -0.142963
C138  C     C_R   0.167420 0.884150 0.497566 -0.108873
C139  C     C_R   0.346989 0.340560 0.493364 -0.251895
C140  C     C_R   0.651882 0.340777 0.508860 -0.272535
C141  C     C_R   0.848096 0.840782 0.490292 -0.256897
C142  C     C_R   0.150104 0.841667 0.513677 -0.264277
C143  C     C_R   0.406265 0.332668 0.454440 0.396877
C144  C     C_R   0.601425 0.666762 0.541928 -0.121722
C145  C     C_R   0.599036 0.330378 0.529026 0.414514
C146  C     C_R   0.900120 0.830302 0.472522 0.402505
C147  C     C_R   0.098547 0.830595 0.530767 0.411197
C148  C     C_R   0.435809 0.365370 0.458923 0.431789
C149  C     C_R   0.570298 0.363112 0.522377 0.434192
C150  C     C_R   0.928809 0.863596 0.477466 0.407403
C151  C     C_R   0.069631 0.863027 0.524221 0.402405
C152  C     C_R   0.406015 0.405192 0.501578 -0.292967
C153  C     C_R   0.594426 0.405589 0.497123 -0.266569
C154  C     C_R   0.905896 0.906702 0.499165 -0.281805
C155  C     C_R   0.395428 0.666320 0.465471 -0.105772
C156  C     C_R   0.093423 0.905586 0.498626 -0.268617
C157  C     C_R   0.344058 0.407681 0.551421 -0.173435
C158  C     C_R   0.647332 0.412545 0.476304 -0.208110
C159  C     C_R   0.850506 0.913619 0.525208 -0.182404
C160  C     C_R   0.143197 0.914006 0.484797 -0.210028
C161  C     C_3   0.303577 0.441344 0.562497 0.303882
C162  C     C_3   0.687660 0.445936 0.464877 0.321168
C163  C     C_3   0.823228 0.946450 0.509815 0.312583
C164  C     C_3   0.185796 0.948041 0.465462 0.294338
C165  C     C_R   0.313003 0.309418 0.493437 0.966132
C166  C     C_R   0.160579 0.154675 0.501737 -0.027090
C167  C     C_R   0.687320 0.309524 0.505856 0.945689
C168  C     C_R   0.813098 0.809340 0.493264 0.963116
C169  C     C_R   0.187090 0.809711 0.506519 0.945133
C170  C     C_3   0.274665 0.405939 0.553377 0.660020
C171  C     C_3   0.713907 0.410570 0.479369 0.667118
C172  C     C_3   0.797872 0.909852 0.496060 0.669958
C173  C     C_3   0.209089 0.914308 0.487883 0.661744
C174  C     C_R   0.561974 0.440682 0.499116 0.986668
C175  C     C_R   0.438321 0.440428 0.500285 0.992203
C176  C     C_R   0.061385 0.940242 0.499290 0.986700
H1    H     H_    0.026103 0.244437 0.079269 0.191652
H2    H     H_    0.807012 0.101879 0.487552 0.172240
H3    H     H_    0.972154 0.866838 0.143305 0.168253
H4    H     H_    0.160424 0.018078 0.420928 0.254336
H5    H     H_    0.224105 0.051438 0.340655 0.247827
H6    H     H_    0.212843 0.032955 0.427266 0.264408
H7    H     H_    0.884445 0.015852 0.494330 0.227359
H8    H     H_    0.808132 0.040597 0.572673 0.283954
H9    H     H_    0.848428 0.032211 0.460201 0.233415
H10   H     H_    0.639693 0.516333 0.462585 0.233422
H11   H     H_    0.710757 0.542832 0.377408 0.267722
H12   H     H_    0.688088 0.532242 0.476222 0.242805
H13   H     H_    0.720241 0.604948 0.458341 0.166472
H14   H     H_    0.389891 0.514998 0.472046 0.220325
H15   H     H_    0.312651 0.528419 0.572993 0.294099
H16   H     H_    0.335817 0.529962 0.469383 0.233990
H17   H     H_    0.019956 0.136110 0.479307 0.214603
H18   H     H_    0.064076 0.186508 0.438707 0.286682
H19   H     H_    0.097836 0.138791 0.419185 0.182282
H20   H     H_    0.920772 0.135034 0.606846 0.235690
H21   H     H_    0.887863 0.190170 0.656452 0.267227
H22   H     H_    0.849756 0.149081 0.651671 0.211702
H23   H     H_    0.549920 0.638158 0.438558 0.225221
H24   H     H_    0.289134 0.601568 0.516230 0.172409
H25   H     H_    0.585307 0.693146 0.401369 0.285596
H26   H     H_    0.622803 0.648144 0.392180 0.197855
H27   H     H_    0.450501 0.638620 0.564022 0.227181
H28   H     H_    0.412377 0.693457 0.604491 0.287435
H29   H     H_    0.376780 0.647696 0.612056 0.191295
H30   H     H_    0.971341 0.190283 0.719005 0.155718
H31   H     H_    0.965908 0.131353 0.710564 0.182203
H32   H     H_    0.905199 0.167403 0.753275 0.194783
H33   H     H_    0.989966 0.242293 0.395779 0.159659
H34   H     H_    0.014228 0.185126 0.366374 0.180717
H35   H     H_    0.050958 0.221314 0.599186 0.073450
H36   H     H_    0.055897 0.224011 0.366262 0.184939
H37   H     H_    0.475729 0.723655 0.678873 0.166582
H38   H     H_    0.473979 0.664774 0.684885 0.179960
H39   H     H_    0.415665 0.693928 0.707388 0.196737
H40   H     H_    0.518368 0.709117 0.321453 0.162801
H41   H     H_    0.531538 0.650791 0.321494 0.184802
H42   H     H_    0.583212 0.690201 0.296403 0.195240
H43   H     H_    0.118774 0.283589 0.480285 0.177486
H44   H     H_    0.050628 0.264892 0.510616 0.164865
H45   H     H_    0.120580 0.268315 0.401442 0.176249
H46   H     H_    0.896036 0.238961 0.505804 0.094673
H47   H     H_    0.776817 0.268765 0.663282 0.209753
H48   H     H_    0.848302 0.269848 0.631005 0.136787
H49   H     H_    0.784990 0.244117 0.726304 0.180782
H50   H     H_    0.656235 0.782683 0.431060 0.190576
H51   H     H_    0.590793 0.768977 0.450214 0.149369
H52   H     H_    0.665373 0.762542 0.347269 0.186219
H53   H     H_    0.332673 0.782458 0.583403 0.197380
H54   H     H_    0.404742 0.774022 0.548527 0.140588
H55   H     H_    0.336411 0.766095 0.655483 0.180578
H56   H     H_    0.169869 0.275323 0.811515 0.162521
H57   H     H_    0.570306 0.732056 0.561530 0.083630
H58   H     H_    0.167436 0.214999 0.808512 0.177562
H59   H     H_    0.208688 0.241888 0.824098 0.181298
H60   H     H_    0.832236 0.287456 0.191123 0.161931
H61   H     H_    0.826431 0.227369 0.190071 0.177039
H62   H     H_    0.789175 0.262478 0.176972 0.178953
H63   H     H_    0.666707 0.782000 0.812164 0.161856
H64   H     H_    0.670078 0.721611 0.808240 0.178284
H65   H     H_    0.708429 0.752858 0.824444 0.179793
H66   H     H_    0.329029 0.780857 0.191236 0.161006
H67   H     H_    0.328802 0.720469 0.189542 0.178077
H68   H     H_    0.427908 0.730814 0.444628 0.084030
H69   H     H_    0.288574 0.751450 0.176648 0.177898
H70   H     H_    0.349023 0.177335 0.197343 0.169800
H71   H     H_    0.416190 0.161631 0.174378 0.147596
H72   H     H_    0.377949 0.123600 0.166113 0.182351
H73   H     H_    0.971654 0.256436 0.920925 0.189457
H74   H     H_    0.604810 0.167130 0.830576 0.139512
H75   H     H_    0.576070 0.171954 0.782618 0.181774
H76   H     H_    0.570297 0.122558 0.826774 0.181272
H77   H     H_    0.855983 0.673580 0.197310 0.171401
H78   H     H_    0.924277 0.663298 0.174150 0.147743
H79   H     H_    0.889837 0.621522 0.165659 0.183280
H80   H     H_    0.112187 0.669941 0.834529 0.134820
H81   H     H_    0.086954 0.667979 0.781818 0.178678
H82   H     H_    0.082439 0.621556 0.831278 0.184155
H83   H     H_    0.451471 0.233510 0.406909 0.169446
H84   H     H_    0.525976 0.750112 0.079432 0.190712
H85   H     H_    0.402184 0.261267 0.506017 0.150941
H86   H     H_    0.482405 0.271161 0.428885 0.187364
H87   H     H_    0.572397 0.228628 0.550860 0.174715
H88   H     H_    0.623901 0.259937 0.457347 0.143899
H89   H     H_    0.544371 0.261171 0.519159 0.172653
H90   H     H_    0.921985 0.729423 0.478303 0.167323
H91   H     H_    0.872001 0.768212 0.561323 0.137820
H92   H     H_    0.952227 0.769709 0.497512 0.187299
H93   H     H_    0.075771 0.728353 0.540717 0.174829
H94   H     H_    0.127289 0.762286 0.451002 0.138342
H95   H     H_    0.471237 0.750531 0.920741 0.189628
H96   H     H_    0.047944 0.763129 0.511170 0.172889
H97   H     H_    0.524349 0.392128 0.322553 0.134080
H98   H     H_    0.546163 0.335185 0.305979 0.179774
H99   H     H_    0.576797 0.374881 0.325858 0.185633
H100  H     H_    0.471871 0.385417 0.654745 0.141654
H101  H     H_    0.459635 0.327649 0.657543 0.184677
H102  H     H_    0.430522 0.365309 0.633328 0.183561
H103  H     H_    0.033398 0.881317 0.348929 0.141443
H104  H     H_    0.034560 0.822220 0.352092 0.176998
H105  H     H_    0.067066 0.854774 0.378075 0.193252
H106  H     H_    0.329347 0.461840 0.508487 0.088704
H107  H     H_    0.968877 0.886316 0.655870 0.140080
H108  H     H_    0.963082 0.827543 0.660128 0.178891
H109  H     H_    0.928705 0.859503 0.637112 0.188829
H110  H     H_    0.309609 0.468750 0.670022 0.198011
H111  H     H_    0.258120 0.422739 0.715580 0.168613
H112  H     H_    0.230329 0.476707 0.754903 0.184604
H113  H     H_    0.696486 0.447934 0.337568 0.191557
H114  H     H_    0.759897 0.414915 0.300377 0.166599
H115  H     H_    0.770057 0.468889 0.265089 0.185652
H116  H     H_    0.793395 0.969737 0.653114 0.188950
H117  H     H_    0.660808 0.469433 0.517593 0.072756
H118  H     H_    0.739959 0.930152 0.676698 0.171745
H119  H     H_    0.718922 0.985924 0.706119 0.184015
H120  H     H_    0.194396 0.939664 0.337495 0.187530
H121  H     H_    0.252126 0.904186 0.311973 0.159876
H122  H     H_    0.270888 0.954337 0.259835 0.187102
H123  H     H_    0.191872 0.369236 0.622726 0.238384
H124  H     H_    0.205157 0.385881 0.685148 0.193114
H125  H     H_    0.180381 0.424794 0.655159 0.242797
H126  H     H_    0.799993 0.382689 0.423413 0.245092
H127  H     H_    0.787484 0.377139 0.357505 0.179350
H128  H     H_    0.858399 0.963970 0.451282 0.070140
H129  H     H_    0.808214 0.428546 0.369804 0.236856
H130  H     H_    0.713421 0.888702 0.537653 0.238223
H131  H     H_    0.710246 0.890808 0.620573 0.185951
H132  H     H_    0.707070 0.939639 0.579817 0.234479
H133  H     H_    0.292698 0.886714 0.440528 0.242621
H134  H     H_    0.284001 0.878324 0.370564 0.185338
H135  H     H_    0.304062 0.930817 0.381164 0.232228
H136  H     H_    0.375508 0.398370 0.389817 0.140832
H137  H     H_    0.349382 0.451917 0.393606 0.152752
H138  H     H_    0.339882 0.406331 0.355431 0.205602
H139  H     H_    0.161771 0.975997 0.510060 0.075461
H140  H     H_    0.619722 0.383903 0.641217 0.165948
H141  H     H_    0.614546 0.443150 0.639980 0.139196
H142  H     H_    0.639414 0.418394 0.682332 0.192227
H143  H     H_    0.910603 0.888328 0.352024 0.148607
H144  H     H_    0.899465 0.941160 0.326901 0.159860
H145  H     H_    0.895489 0.891867 0.289112 0.200683
H146  H     H_    0.101077 0.912367 0.645446 0.158260
H147  H     H_    0.124856 0.967895 0.638938 0.157033
H148  H     H_    0.126942 0.926840 0.691861 0.197209
H149  H     H_    0.536747 0.376847 0.980665 0.188036
H150  H     H_    0.236274 0.110550 0.420452 0.153886
H151  H     H_    0.494273 0.354592 0.959921 0.163738
H152  H     H_    0.567303 0.376578 0.877552 0.151051
H153  H     H_    0.532356 0.320333 0.082745 0.166165
H154  H     H_    0.457666 0.309213 0.187676 0.174440
H155  H     H_    0.476742 0.363201 0.146603 0.173655
H156  H     H_    0.028676 0.878617 0.980779 0.188857
H157  H     H_    0.987912 0.852819 0.959897 0.163072
H158  H     H_    0.059196 0.877122 0.877711 0.152876
H159  H     H_    0.026381 0.823592 0.086197 0.164413
H160  H     H_    0.951534 0.814804 0.189983 0.170927
O1    O     O_R   0.178350 0.230070 0.500010 -0.587111
O2    O     O_R   0.919740 0.045800 0.568860 -0.621402
O3    O     O_R   0.580260 0.545800 0.431140 -0.620164
O4    O     O_R   0.419740 0.545800 0.568860 -0.622649
O5    O     O_R   0.011410 0.045760 0.568860 -0.623705
O6    O     O_R   0.988590 0.045760 0.431140 -0.611919
O7    O     O_R   0.511410 0.545760 0.568860 -0.618922
O8    O     O_R   0.488590 0.545760 0.431140 -0.622998
O9    O     O_R   0.230030 0.178320 0.500020 -0.645311
O10   O     O_R   0.769970 0.178320 0.499980 -0.639933
O11   O     O_R   0.730030 0.678320 0.500020 -0.648396
O12   O     O_R   0.821650 0.230070 0.499990 -0.626594
O13   O     O_R   0.269970 0.678320 0.499980 -0.647682
O14   O     O_R   0.285150 0.275890 0.378020 -0.603167
O15   O     O_R   0.714850 0.275890 0.621980 -0.613441
O16   O     O_R   0.785150 0.775890 0.378020 -0.597805
O17   O     O_R   0.214850 0.775890 0.621980 -0.604715
O18   O     O_R   0.336840 0.224130 0.378040 -0.623929
O19   O     O_R   0.663160 0.224130 0.621960 -0.620191
O20   O     O_R   0.836840 0.724130 0.378040 -0.623688
O21   O     O_R   0.163160 0.724130 0.621960 -0.620729
O22   O     O_R   0.269970 0.321680 0.499990 -0.592217
O23   O     O_R   0.678350 0.730070 0.500010 -0.600858
O24   O     O_R   0.730030 0.321680 0.500010 -0.608326
O25   O     O_R   0.769970 0.821680 0.499990 -0.609930
O26   O     O_R   0.230030 0.821680 0.500010 -0.616575
O27   O     O_R   0.321650 0.269930 0.500010 -0.615859
O28   O     O_R   0.678350 0.269930 0.499990 -0.612127
O29   O     O_R   0.821650 0.769930 0.500010 -0.601719
O30   O     O_R   0.178350 0.769930 0.499990 -0.607783
O31   O     O_R   0.163160 0.275870 0.621980 -0.629173
O32   O     O_R   0.836840 0.275870 0.378020 -0.623969
O33   O     O_R   0.663160 0.775870 0.621980 -0.627881
O34   O     O_R   0.321650 0.730070 0.499990 -0.606320
O35   O     O_R   0.336840 0.775870 0.378020 -0.625250
O36   O     O_R   0.214850 0.224110 0.621990 -0.624637
O37   O     O_R   0.785150 0.224110 0.378010 -0.628860
O38   O     O_R   0.714850 0.724110 0.621990 -0.626752
O39   O     O_R   0.285150 0.724110 0.378010 -0.628221
O40   O     O_R   0.580260 0.454160 0.431100 -0.625690
O41   O     O_R   0.419740 0.454160 0.568900 -0.634261
O42   O     O_R   0.080260 0.954160 0.431100 -0.638069
O43   O     O_R   0.919740 0.954160 0.568900 -0.617142
O44   O     O_3   0.426484 0.167899 0.071777 -0.542379
O45   O     O_R   0.511410 0.454120 0.568820 -0.631294
O46   O     O_3   0.510326 0.170940 0.911028 -0.541724
O47   O     O_3   0.933996 0.665842 0.071648 -0.544312
O48   O     O_3   0.018136 0.669250 0.910407 -0.540220
O49   O     O_3   0.438198 0.297438 0.400068 -0.615389
O50   O     O_3   0.567455 0.293447 0.574350 -0.603924
O51   O     O_3   0.928100 0.790213 0.436944 -0.602790
O52   O     O_3   0.068798 0.792321 0.571667 -0.597383
O53   O     O_3   0.491315 0.357236 0.428491 -0.577255
O54   O     O_3   0.520608 0.353272 0.538233 -0.580792
O55   O     O_3   0.975769 0.853423 0.468485 -0.573677
O56   O     O_R   0.488590 0.454120 0.431180 -0.622600
O57   O     O_3   0.019882 0.852693 0.540293 -0.575857
O58   O     O_3   0.259987 0.464107 0.640816 -0.619202
O59   O     O_3   0.732823 0.465240 0.384598 -0.625571
O60   O     O_3   0.775644 0.973313 0.579454 -0.627103
O61   O     O_3   0.232737 0.960928 0.379913 -0.628269
O62   O     O_3   0.280907 0.409353 0.483801 -0.581886
O63   O     O_3   0.702242 0.417014 0.553237 -0.599457
O64   O     O_3   0.821447 0.904878 0.413646 -0.591468
O65   O     O_3   0.195041 0.922694 0.563125 -0.597974
O66   O     O_3   0.568420 0.317591 0.918045 -0.598539
O67   O     O_R   0.011410 0.954120 0.568820 -0.631755
O68   O     O_3   0.459791 0.321138 0.094247 -0.594111
O69   O     O_3   0.064452 0.819764 0.917650 -0.595604
O70   O     O_3   0.955741 0.821921 0.093972 -0.590664
O71   O     O_3   0.975226 0.170535 0.624717 -0.617232
O72   O     O_3   0.976016 0.205389 0.488001 -0.605970
O73   O     O_3   0.493256 0.691341 0.580592 -0.622471
O74   O     O_3   0.505008 0.689193 0.423369 -0.624510
O75   O     O_3   0.117629 0.217210 0.463185 -0.599664
O76   O     O_3   0.820420 0.209249 0.620905 -0.618459
O77   O     O_3   0.643270 0.716746 0.430621 -0.607046
O78   O     O_R   0.988590 0.954120 0.431180 -0.631446
O79   O     O_3   0.354409 0.717970 0.576167 -0.610680
O80   O     O_3   0.117881 0.243965 0.925771 -0.613915
O81   O     O_3   0.879795 0.257606 0.074807 -0.613565
O82   O     O_3   0.617716 0.750780 0.925963 -0.613403
O83   O     O_3   0.379364 0.750514 0.074584 -0.613425
O84   O     O_R   0.080260 0.045800 0.431140 -0.623716
Zn1   Zn    Zn3+2 0.215490 0.284560 0.500000 0.975626
Zn2   Zn    Zn3+2 0.954010 1.000000 0.591950 0.947958
Zn3   Zn    Zn3+2 0.545990 0.500000 0.408050 0.949142
Zn4   Zn    Zn3+2 0.454010 0.500000 0.591950 0.942084
Zn5   Zn    Zn3+2 0.784510 0.284560 0.500000 0.953059
Zn6   Zn    Zn3+2 0.715490 0.784560 0.500000 0.950687
Zn7   Zn    Zn3+2 0.284510 0.784560 0.500000 0.949643
Zn8   Zn    Zn3+2 0.284510 0.215440 0.500020 0.942663
Zn9   Zn    Zn3+2 0.715490 0.215440 0.499980 0.944578
Zn10  Zn    Zn3+2 0.784510 0.715440 0.500020 0.950180
Zn11  Zn    Zn3+2 0.215490 0.715440 0.499980 0.945857
Zn12  Zn    Zn3+2 0.045990 0.000000 0.408050 0.949506

loop_
_geom_bond_atom_site_label_1
_geom_bond_atom_site_label_2
_ccdc_geom_bond_type
C38   H80   S    
C82   H55   S    
C106  H57   S    
C148  O53   S    
O26   Zn7   S    
C136  C140  A    
C69   H15   S    
C56   H137  S    
C135  C139  A    
O10   Zn9   S    
C109  H73   S    
C146  O51   S    
C52   H123  S    
C53   H126  S    
C112  C124  A    
C49   O59   S    
C95   C99   S    
C74   O71   S    
C83   H56   S    
C105  H46   S    
C149  C153  A    
C55   C173  S    
O39   Zn11  S    
C146  C150  A    
C76   H37   S    
C75   H33   S    
C162  C171  S    
C70   H19   S    
C34   H70   S    
C36   H74   S    
C164  O61   S    
C80   H49   S    
C106  O77   S    
C55   H133  S    
C101  O72   S    
C161  O58   S    
C65   H6    S    
C40   H89   S    
O16   Zn6   S    
C21   C22   A    
C176  O42   A    
C120  O17   A    
C73   H28   S    
C67   H11   S    
C111  O34   A    
C9    C131  S    
C104  O75   S    
C75   H36   S    
C60   H148  S    
C39   H85   S    
C52   C170  S    
O29   Zn10  S    
C42   O52   S    
O27   Zn8   S    
C17   C21   A    
C63   H158  S    
C108  C113  A    
C50   H118  S    
C19   C23   A    
C110  H84   S    
C78   H43   S    
C9    O37   A    
C136  C171  S    
O12   Zn5   S    
C16   C20   A    
C11   O39   A    
C164  C173  S    
C163  C172  S    
C59   H144  S    
C95   C122  A    
C44   H100  S    
C82   H53   S    
C83   H59   S    
C28   C33   T    
C41   H91   S    
C147  O52   S    
C61   H152  S    
C105  C133  S    
C152  C157  A    
C141  C168  S    
C52   H125  S    
C83   O80   S    
C35   H150  S    
C140  C145  A    
C65   H4    S    
O17   Zn7   S    
C56   O62   S    
C66   H7    S    
C174  O40   A    
C80   H47   S    
C64   H160  S    
C76   H39   S    
C77   H41   S    
C70   H17   S    
C36   H76   S    
C108  H1    S    
O84   Zn12  S    
C42   H96   S    
C81   O77   S    
C176  O67   A    
C138  C160  A    
C162  O59   S    
C73   C103  S    
C37   H78   S    
C60   O65   S    
O1    Zn1   S    
C103  C107  S    
C118  O15   A    
C51   H122  S    
C107  C155  S    
O40   Zn3   S    
C25   O70   S    
C170  O62   S    
C75   H34   S    
C10   O38   A    
C118  O19   A    
C84   H61   S    
C75   O72   S    
C109  C121  A    
C97   C144  A    
C43   H98   S    
O30   Zn11  S    
C73   H27   S    
O5    Zn2   S    
C55   H134  S    
C59   O64   S    
C15   O48   S    
C48   H111  S    
C104  C122  S    
C92   C96   A    
C13   C144  A    
C61   H149  S    
C153  C158  A    
C139  C165  S    
C40   O50   S    
C1    O9    A    
C139  C143  A    
C44   H102  S    
O7    Zn4   S    
C45   H103  S    
C174  O45   A    
C79   C91   A    
C143  O49   S    
C172  O64   S    
C4    C91   S    
C136  C158  A    
C45   H104  S    
C140  C167  S    
C167  O24   A    
C82   O79   S    
C49   H114  S    
C38   H82   S    
C112  H95   S    
C165  O27   A    
C74   H31   S    
C143  C148  A    
C175  O41   A    
C81   H50   S    
C54   C172  S    
C156  C160  A    
C54   H131  S    
C11   C134  S    
C64   H3    S    
C53   C171  S    
C62   H154  S    
C113  C126  S    
C89   O10   A    
C3    C154  S    
C115  C128  S    
C53   H129  S    
C42   H94   S    
C147  C151  A    
C31   C118  S    
C57   H13   S    
O67   Zn2   S    
C128  C134  T    
C68   C90   A    
O32   Zn5   S    
O28   Zn9   S    
C19   C28   S    
O15   Zn5   S    
C51   H120  S    
C47   H107  S    
C109  C114  A    
C114  C123  A    
O78   Zn12  S    
O22   Zn1   S    
C116  C125  A    
C167  O28   A    
C163  O60   S    
C50   O60   S    
C78   O75   S    
C123  O80   S    
C163  H128  S    
C32   C119  S    
C58   H140  S    
C93   C97   A    
C76   O73   S    
C112  C116  A    
C70   C99   S    
C71   H22   S    
C72   H26   S    
C46   C87   A    
C43   O53   S    
O41   Zn4   S    
C73   H29   S    
C63   O69   S    
C18   C22   A    
C58   O63   S    
C148  C152  A    
C69   H14   S    
C3    O78   A    
C4    O84   A    
O33   Zn6   S    
C86   H69   S    
C11   O35   A    
O9    Zn8   S    
C85   H64   S    
C61   H151  S    
C58   H141  S    
C7    O4    A    
C154  C159  A    
C72   H23   S    
C34   H72   S    
C85   O82   S    
C72   C102  S    
C1    C166  S    
O42   Zn12  S    
C35   C79   A    
C3    O43   A    
C80   O76   S    
O6    Zn12  S    
C82   H54   S    
C10   C132  S    
O21   Zn11  S    
C91   C95   A    
C76   H38   S    
C113  C121  A    
C77   H40   S    
C33   C120  S    
C8    O31   A    
C34   H71   S    
O24   Zn5   S    
C4    O5    A    
C87   C92   A    
C99   O71   S    
C6    O7    A    
C64   O70   S    
C61   O66   S    
C81   H52   S    
C47   O57   S    
C135  C157  A    
C89   O12   A    
C15   C19   A    
C102  O73   S    
C67   C88   S    
C10   O33   A    
C65   C79   S    
C5    O6    A    
C160  C164  S    
C84   H60   S    
C119  O20   A    
C29   C32   T    
O2    Zn2   S    
C77   O74   S    
C40   H87   S    
C43   H99   S    
C20   C25   A    
C94   C98   A    
C98   C103  S    
C35   C166  A    
C69   H16   S    
C63   H157  S    
C50   H119  S    
C55   H135  S    
C137  C172  S    
C34   O44   S    
C56   H136  S    
C78   H44   S    
C152  C175  S    
C48   H110  S    
C36   O46   S    
C56   H138  S    
C86   H67   S    
C12   C17   A    
O23   Zn6   S    
C107  O79   S    
C162  H117  S    
C59   H143  S    
C97   C102  S    
C129  C132  T    
O18   Zn8   S    
C99   C104  S    
C71   C101  S    
C150  C154  A    
C96   C101  S    
C41   H90   S    
C142  C147  A    
O14   Zn1   S    
C90   C94   A    
O34   Zn7   S    
C2    C133  A    
C8    O36   A    
O45   Zn4   S    
C53   H127  S    
C138  C142  A    
C137  C159  A    
C74   H32   S    
C86   O83   S    
O3    Zn3   S    
C153  C174  S    
C151  O57   S    
C84   O81   S    
C100  O11   A    
C37   O47   S    
C2    C89   S    
O4    Zn4   S    
C80   H48   S    
C125  O82   S    
C70   H18   S    
C6    C93   S    
C105  O76   S    
C138  C173  S    
C85   H65   S    
C151  C156  A    
C39   H83   S    
C141  C146  A    
C142  C169  S    
C37   H77   S    
C8    C130  S    
C107  H68   S    
C12   O46   S    
C63   H156  S    
C108  C123  A    
C50   H116  S    
C157  C161  S    
C51   H121  S    
C67   H12   S    
O37   Zn9   S    
C7    C94   S    
C137  C141  A    
C98   C155  A    
C156  C176  S    
C115  C124  A    
C161  H106  S    
C14   C18   A    
C84   H62   S    
C60   H147  S    
C22   O68   S    
C39   H86   S    
C43   H97   S    
O56   Zn3   S    
C175  O56   A    
C9    O32   A    
C23   O69   S    
C114  C127  S    
C48   H112  S    
C52   H124  S    
C42   H93   S    
C173  O65   S    
C51   O61   S    
C44   O54   S    
C77   H42   S    
C45   O55   S    
C24   C68   A    
C13   C57   A    
C66   H9    S    
C41   O51   S    
C41   H92   S    
C110  C115  A    
C145  C149  A    
C168  O29   A    
C122  C166  A    
C46   H2    S    
C103  O74   S    
C49   H113  S    
C7    O8    A    
C121  O81   S    
C65   H5    S    
C2    C46   A    
C17   C26   S    
C54   H132  S    
C64   H159  S    
C62   H155  S    
C135  C170  S    
C15   C16   A    
C36   H75   S    
O36   Zn8   S    
C6    O3    A    
O43   Zn2   S    
C116  C129  S    
C37   H79   S    
C38   O48   S    
O31   Zn1   S    
C24   C155  A    
C86   H66   S    
C21   O66   S    
C26   C31   T    
C59   H145  S    
C27   C30   T    
C5    O2    A    
C24   C111  S    
C71   H21   S    
C20   C29   S    
C101  C105  S    
C165  O22   A    
C16   O47   S    
C45   H105  S    
O25   Zn6   S    
C149  O54   S    
O35   Zn7   S    
C47   H109  S    
C66   C87   S    
C110  C125  A    
C145  O50   S    
O13   Zn11  S    
O11   Zn10  S    
C85   H63   S    
C120  O21   A    
C58   H142  S    
C44   H101  S    
O19   Zn9   S    
C83   H58   S    
C150  O55   S    
O8    Zn3   S    
C117  O14   A    
C161  C170  S    
C119  O16   A    
C12   C14   A    
O20   Zn10  S    
C159  C163  S    
C117  O18   A    
C49   H115  S    
C1    O1    A    
C69   C90   S    
C38   H81   S    
C74   H30   S    
C66   H8    S    
C88   C93   A    
C81   H51   S    
C18   C27   S    
C54   H130  S    
C67   H10   S    
C62   H153  S    
C106  C144  S    
C96   C133  A    
C30   C117  S    
C48   O58   S    
C169  O26   A    
C168  O25   A    
C171  O63   S    
C57   C88   A    
C68   H24   S    
C124  O83   S    
C164  H139  S    
C13   C100  S    
C127  C130  T    
C60   H146  S    
C62   O68   S    
C40   H88   S    
C71   H20   S    
C126  C131  T    
C102  C106  S    
C169  O30   A    
C23   C25   A    
C5    C92   S    
C14   O44   S    
C47   H108  S    
C158  C162  S    
C78   H45   S    
O38   Zn10  S    
C111  O13   A    
C39   O49   S    
C104  H35   S    
C100  O23   A    
C72   H25   S    
