data_mof_unit_7813.cif
_audit_creation_date              2012-12-11T15:49:01-0500
_audit_creation_method            fapswitch 2.2
_symmetry_space_group_name_H-M    P1
_symmetry_Int_Tables_number       1
_space_group_crystal_system       triclinic
_cell_length_a                    21.638018
_cell_length_b                    7.183072
_cell_length_c                    14.915646
_cell_angle_alpha                 89.944288
_cell_angle_beta                  106.524797
_cell_angle_gamma                 90.018846
_cell_volume                      2222.54623003

loop_
_atom_site_label
_atom_site_type_symbol
_atom_type_description
_atom_site_fract_x
_atom_site_fract_y
_atom_site_fract_z
_atom_type_partial_charge
O1    O     O_R   0.335860 0.638190 0.002110 -0.529521
O2    O     O_R   0.664140 0.361810 0.997890 -0.525371
O3    O     O_R   0.164140 0.138190 0.997890 -0.530747
O4    O     O_R   0.835860 0.861810 0.002110 -0.515018
O5    O     O_R   0.217530 0.305920 0.861960 -0.525628
O6    O     O_R   0.782470 0.694080 0.138040 -0.519362
O7    O     O_R   0.282470 0.805920 0.138040 -0.525487
O8    O     O_R   0.717530 0.194080 0.861960 -0.540098
C1    C     C_R   0.205468 0.476176 0.825757 0.743723
C2    C     C_R   0.793794 0.522961 0.174277 0.783316
C3    C     C_R   0.294206 0.976083 0.174272 0.743557
C4    C     C_R   0.705923 0.023018 0.825548 0.726574
O9    O     O_R   0.338690 0.308320 0.993240 -0.524030
O10   O     O_R   0.661310 0.691680 0.006760 -0.521962
O11   O     O_R   0.161310 0.808320 0.006760 -0.521822
O12   O     O_R   0.838690 0.191680 0.993240 -0.548132
O13   O     O_R   0.286170 0.140430 0.130100 -0.555907
O14   O     O_R   0.713830 0.859570 0.869900 -0.547260
O15   O     O_R   0.213830 0.640430 0.869900 -0.556186
O16   O     O_R   0.786170 0.359570 0.130100 -0.551632
C5    C     C_R   0.365089 0.477167 0.998973 0.812523
C6    C     C_R   0.635137 0.522951 0.002500 0.801670
C7    C     C_R   0.135092 0.977176 0.001558 0.808052
C8    C     C_R   0.864768 0.022972 0.996875 0.724085
O17   O     O_3   0.232630 0.472410 0.044750 -0.379410
O18   O     O_3   0.767370 0.527590 0.955250 -0.386560
O19   O     O_3   0.267370 0.972410 0.955250 -0.380090
O20   O     O_3   0.732630 0.027590 0.044750 -0.369796
V1    V     V_3+5 0.253220 0.196620 0.991700 1.493819
V2    V     V_3+5 0.746780 0.803380 0.008300 1.530133
V3    V     V_3+5 0.246780 0.696620 0.008300 1.496782
V4    V     V_3+5 0.753220 0.303380 0.991700 1.472960
C9    C     C_R   0.041692 0.870726 0.057554 0.268113
C10   C     C_R   0.958964 0.129218 0.938074 0.266764
C11   C     C_R   0.457802 0.374595 0.940685 0.267375
C12   C     C_R   0.542625 0.626493 0.062298 0.268365
C13   C     C_R   0.975773 0.884416 0.056364 0.076177
C14   C     C_R   0.024515 0.118184 0.941134 0.130037
C15   C     C_R   0.523576 0.387626 0.941316 0.033353
C16   C     C_R   0.476716 0.613771 0.061756 0.054637
C17   C     C_R   0.933869 0.012249 0.996320 -0.189812
C18   C     C_R   0.065935 0.988402 0.999922 -0.165006
C19   C     C_R   0.565912 0.512580 0.002068 -0.130273
C20   C     C_R   0.434461 0.488235 0.000759 -0.129110
C21   C     C_R   0.677836 0.012505 0.723214 -0.077970
C22   C     C_R   0.321488 0.974017 0.276427 -0.077982
C23   C     C_R   0.821075 0.513157 0.276421 -0.045531
C24   C     C_R   0.177538 0.474204 0.723676 -0.079397
C25   C     C_R   0.689131 0.035175 0.566824 -0.136711
C26   C     C_R   0.317297 0.833072 0.422006 -0.235723
C27   C     C_R   0.809132 0.547360 0.431835 -0.189981
C28   C     C_R   0.180218 0.329686 0.578440 -0.236229
C29   C     C_R   0.716531 0.041923 0.663052 0.123036
C30   C     C_R   0.286482 0.884779 0.330168 0.157077
C31   C     C_R   0.781665 0.546591 0.334904 0.130139
C32   C     C_R   0.211774 0.382731 0.669671 0.157667
C33   C     C_R   0.611632 0.972406 0.686364 0.126050
C34   C     C_R   0.387069 0.019557 0.316730 0.072085
C35   C     C_R   0.887256 0.475018 0.314224 0.103492
C36   C     C_R   0.112016 0.521888 0.683919 0.070585
C37   C     C_R   0.583509 0.957813 0.587097 0.033348
C38   C     C_R   0.420647 0.946648 0.406506 0.079666
C39   C     C_R   0.914842 0.464083 0.413534 0.035648
C40   C     C_R   0.077637 0.449182 0.594422 0.082605
C41   C     C_R   0.623372 0.998973 0.528622 0.044738
C42   C     C_R   0.383744 0.858261 0.459386 0.068882
C43   C     C_R   0.874935 0.511004 0.471019 0.070592
C44   C     C_R   0.113828 0.356741 0.541731 0.069861
C45   C     C_R   0.517119 0.913982 0.542849 0.056281
C46   C     C_R   0.489224 0.956624 0.446203 0.090858
C47   C     C_R   0.980861 0.417787 0.458416 0.056199
C48   C     C_R   0.009031 0.463106 0.554625 0.080294
C49   C     C_R   0.531481 0.988841 0.391289 -0.135853
C50   C     C_R   0.479080 0.814605 0.588953 -0.207448
C51   C     C_R   0.966799 0.502573 0.608804 -0.133264
C52   C     C_R   0.018038 0.313034 0.413183 -0.202064
C53   C     C_R   0.597357 0.006027 0.431726 -0.199397
C54   C     C_R   0.413652 0.788812 0.548395 -0.175805
C55   C     C_R   0.900975 0.522591 0.567841 -0.166768
C56   C     C_R   0.083309 0.285109 0.453513 -0.175934
H1    H     H_    0.628046 0.030227 0.386674 0.132074
H2    H     H_    0.386250 0.712767 0.587061 0.126425
H3    H     H_    0.870340 0.551740 0.612404 0.139462
H4    H     H_    0.110116 0.205688 0.415270 0.125838
H5    H     H_    0.719362 0.063110 0.521473 0.147294
H6    H     H_    0.289550 0.764665 0.462700 0.127542
H7    H     H_    0.779125 0.578803 0.477024 0.127927
H8    H     H_    0.207359 0.258837 0.537698 0.127538
H9    H     H_    0.515464 0.988513 0.316002 0.154771
H10   H     H_    0.499633 0.745446 0.654571 0.137766
H11   H     H_    0.982553 0.505503 0.684045 0.171549
H12   H     H_    0.996817 0.242296 0.348231 0.138968
O21   O     O_3   0.084504 0.749873 0.116463 -0.633144
H13   H     H_    0.062118 0.668852 0.150676 0.289172
O22   O     O_3   0.921358 0.254829 0.875850 -0.641176
H14   H     H_    0.876109 0.213389 0.858964 0.283834
O23   O     O_3   0.414306 0.257487 0.880485 -0.634454
H15   H     H_    0.435937 0.180517 0.843646 0.290134
O24   O     O_3   0.586170 0.743836 0.122195 -0.633596
H16   H     H_    0.564556 0.820290 0.159255 0.292144
N1    N     N_3   0.951187 0.774835 0.118835 -0.633122
H17   H     H_    0.977957 0.804641 0.187479 0.225372
H18   H     H_    0.955502 0.634094 0.103887 0.249787
N2    N     N_3   0.048688 0.235064 0.880577 -0.647595
H19   H     H_    0.041137 0.373861 0.895729 0.252918
H20   H     H_    0.022310 0.208315 0.811362 0.248601
N3    N     N_3   0.547827 0.279269 0.878224 -0.641051
H21   H     H_    0.521410 0.311801 0.809722 0.226316
H22   H     H_    0.542635 0.138380 0.892123 0.252447
N4    N     N_3   0.452252 0.723243 0.124616 -0.669347
H23   H     H_    0.457389 0.864219 0.110839 0.226098
H24   H     H_    0.478452 0.692468 0.193460 0.226314
N5    N     N_3   0.417585 0.148466 0.269192 -0.683438
H25   H     H_    0.391647 0.273255 0.259410 0.248014
H26   H     H_    0.416121 0.094522 0.203575 0.216810
N6    N     N_3   0.573798 0.975710 0.751268 -0.691555
H27   H     H_    0.529134 0.039040 0.722328 0.235953
H28   H     H_    0.570091 0.841789 0.776599 0.224670
N7    N     N_3   0.082423 0.652143 0.731886 -0.682671
H29   H     H_    0.108933 0.775921 0.741481 0.247519
H30   H     H_    0.083884 0.598193 0.797560 0.220492
N8    N     N_3   0.925687 0.478099 0.250023 -0.696985
H31   H     H_    0.970610 0.539432 0.279643 0.238221
H32   H     H_    0.928998 0.344445 0.224240 0.227619
N9    N     N_3   0.219419 0.843596 0.290390 -0.643683
H33   H     H_    0.213209 0.699727 0.294248 0.244286
H34   H     H_    0.193677 0.907877 0.331457 0.223672
N10   N     N_3   0.783571 0.085853 0.698064 -0.661811
H35   H     H_    0.806113 0.982149 0.745334 0.210626
H36   H     H_    0.787332 0.212542 0.733516 0.228908
N11   N     N_3   0.278805 0.340143 0.708704 -0.642515
H37   H     H_    0.284541 0.195981 0.705503 0.243656
H38   H     H_    0.304340 0.402546 0.666764 0.223832
N12   N     N_3   0.714199 0.585510 0.295064 -0.639683
H39   H     H_    0.692295 0.463714 0.262713 0.219572
H40   H     H_    0.692472 0.616883 0.347521 0.234845

loop_
_geom_bond_atom_site_label_1
_geom_bond_atom_site_label_2
_ccdc_geom_bond_type
C34   C38   A    
C55   H3    S    
O1    C5    A    
N1    H17   S    
O19   V1    S    
O13   V1    S    
O3    C7    A    
O22   H14   S    
C56   H4    S    
O15   V3    S    
N10   H35   S    
N2    H20   S    
O23   H15   S    
O7    C3    A    
C21   C33   A    
O21   H13   S    
C7    C18   S    
C25   C41   A    
C9    C18   A    
C40   C44   A    
O9    V1    S    
C14   C18   A    
C47   C52   A    
O4    C8    A    
O1    V3    S    
N6    H27   S    
C38   C46   A    
C36   N7    S    
O2    V4    S    
O3    V1    S    
N4    H23   S    
C14   N2    S    
C1    O15   A    
C6    C19   S    
C2    O16   A    
O2    C6    A    
C34   N5    S    
N3    H21   S    
O14   V2    S    
C3    C22   S    
C28   C44   A    
C51   H11   S    
C35   N8    S    
O11   C7    A    
C21   C29   A    
O12   C8    A    
C22   C34   A    
C8    C17   S    
N3    H22   S    
C10   C17   A    
O10   V2    S    
C48   C51   A    
N2    H19   S    
C24   C36   A    
C33   N6    S    
O5    V1    S    
N7    H30   S    
C42   C54   A    
C30   N9    S    
C39   C43   A    
C41   C53   A    
C38   C42   A    
O8    V4    S    
C25   H5    S    
C12   C16   A    
O7    V3    S    
C10   O22   S    
C27   H7    S    
O18   V4    S    
C15   C19   A    
C9    C13   A    
C9    O21   S    
C11   C15   A    
O5    C1    A    
C29   N10   S    
C5    C20   S    
C54   H2    S    
O24   H16   S    
C53   H1    S    
O8    C4    A    
C22   C30   A    
C46   C49   A    
O9    C5    A    
C45   C50   A    
C27   C43   A    
C33   C37   A    
C11   C20   A    
C26   C42   A    
C52   H12   S    
O6    V2    S    
C39   C47   A    
N9    H33   S    
N8    H32   S    
N11   H37   S    
C23   C31   A    
N5    H25   S    
O16   V4    S    
C37   C45   A    
C24   C32   A    
C3    O13   A    
C10   C14   A    
O17   V3    S    
C52   C56   A    
C4    C21   S    
N11   H38   S    
N10   H36   S    
O6    C2    A    
N12   H40   S    
N7    H29   S    
O11   V3    S    
N12   H39   S    
O12   V4    S    
C31   N12   S    
C35   C39   A    
C36   C40   A    
C50   H10   S    
O20   V2    S    
C49   H9    S    
C47   C48   A    
C26   C30   A    
C44   C56   A    
C13   N1    S    
O10   C6    A    
C25   C29   A    
N6    H28   S    
C12   O24   S    
C27   C31   A    
C40   C48   A    
C13   C17   A    
C45   C46   A    
C15   N3    S    
C28   H8    S    
N4    H24   S    
C16   N4    S    
C32   N11   S    
C26   H6    S    
C23   C35   A    
C37   C41   A    
C16   C20   A    
C1    C24   S    
N1    H18   S    
C50   C54   A    
C4    O14   A    
C2    C23   S    
N9    H34   S    
C49   C53   A    
C12   C19   A    
N8    H31   S    
C11   O23   S    
C51   C55   A    
C43   C55   A    
O4    V2    S    
C28   C32   A    
N5    H26   S    
