data_mof_unit_6062.cif
_audit_creation_date              2012-12-11T15:12:42-0500
_audit_creation_method            fapswitch 2.2
_symmetry_space_group_name_H-M    P1
_symmetry_Int_Tables_number       1
_space_group_crystal_system       triclinic
_cell_length_a                    14.063196
_cell_length_b                    14.06304
_cell_length_c                    27.913952
_cell_angle_alpha                 88.977145
_cell_angle_beta                  90.798532
_cell_angle_gamma                 119.890587
_cell_volume                      4785.37980293

loop_
_atom_site_label
_atom_site_type_symbol
_atom_type_description
_atom_site_fract_x
_atom_site_fract_y
_atom_site_fract_z
_atom_type_partial_charge
C1    C     C_R   0.383829 0.091468 0.430049 0.561495
C2    C     C_1   0.360153 0.678382 0.351734 0.131189
C3    C     C_3   0.794729 0.111081 0.273852 0.267285
C4    C     C_R   0.399574 0.776404 0.434935 0.553313
C5    C     C_3   0.989254 0.229242 0.306550 0.329822
C6    C     C_3   0.031265 0.264540 0.253136 0.192501
C7    C     C_1   0.983609 0.245400 0.122108 0.112703
C8    C     C_3   0.869270 0.210039 0.305772 -0.155839
C9    C     C_3   0.847967 0.120865 0.225138 0.215089
C10   C     C_3   0.935783 0.241857 0.215408 -0.089274
C11   C     C_3   0.886355 0.321912 0.225002 0.336603
C12   C     C_1   0.367435 0.714821 0.391342 0.117085
C13   C     C_3   0.868483 0.314201 0.281966 0.028754
C14   C     C_1   0.968410 0.245625 0.164710 0.161378
C15   C     C_1   0.824019 0.181866 0.353952 0.207449
C16   C     C_R   0.720764 0.121729 0.434723 0.554968
C17   C     C_1   0.780984 0.151643 0.391979 0.190204
C18   C     C_3   0.455718 0.137736 0.257745 -0.251654
C19   C     C_3   0.317664 0.191392 0.271734 0.305629
C20   C     C_3   0.327667 0.215174 0.217448 0.228415
C21   C     C_1   0.309421 0.178308 0.102394 0.089137
C22   C     C_3   0.345817 0.101076 0.283718 -0.116676
C23   C     C_3   0.321481 0.562169 0.235747 0.254412
C24   C     C_3   0.436654 0.126489 0.202698 0.220050
C25   C     C_3   0.326768 0.120901 0.190393 -0.031786
C26   C     C_3   0.224869 0.010804 0.208848 0.534326
C27   C     C_3   0.256345 0.987558 0.260649 0.217346
C28   C     C_R   0.379444 0.099494 0.565056 0.549482
C29   C     C_1   0.322162 0.146653 0.140318 0.084697
C30   C     C_1   0.361714 0.101568 0.336323 0.084871
C31   C     C_1   0.373721 0.103797 0.379339 0.096171
C32   C     C_3   0.439516 0.813435 0.727948 0.552701
C33   C     C_3   0.358567 0.611513 0.729323 -0.218426
C34   C     C_3   0.363016 0.664823 0.204040 -0.079080
C35   C     C_3   0.356519 0.612458 0.784564 0.628677
C36   C     C_1   0.311938 0.637182 0.895592 0.159148
C37   C     C_3   0.342056 0.703542 0.708229 -0.150980
C38   C     C_3   0.437651 0.814957 0.785216 0.323515
C39   C     C_3   0.337240 0.705683 0.803977 -0.089489
C40   C     C_R   0.400089 0.778923 0.566512 0.539708
C41   C     C_3   0.233284 0.707313 0.780814 0.462929
C42   C     C_3   0.227494 0.680435 0.726646 0.291610
C43   C     C_1   0.328964 0.684586 0.856905 0.189223
C44   C     C_1   0.348290 0.705043 0.655129 0.138526
C45   C     C_3   0.423737 0.617837 0.268287 0.411748
C46   C     C_1   0.366756 0.727977 0.613067 0.120094
C47   C     C_3   0.699148 0.113932 0.733565 -0.206337
C48   C     C_3   0.897511 0.259383 0.721625 0.471325
C49   C     C_3   0.912043 0.263045 0.778297 0.008489
C50   C     C_1   0.878384 0.187462 0.893384 0.122598
C51   C     C_3   0.806730 0.141756 0.707728 -0.106308
C52   C     C_R   0.719415 0.119838 0.566711 0.558719
C53   C     C_3   0.714083 0.129459 0.788130 0.677472
C54   C     C_3   0.829014 0.150979 0.801862 -0.105172
C55   C     C_3   0.846230 0.057529 0.781823 0.297221
C56   C     C_3   0.364426 0.659370 0.300263 -0.086342
C57   C     C_3   0.839736 0.056260 0.726014 0.724695
C58   C     C_1   0.844165 0.161459 0.853633 0.159051
C59   C     C_1   0.788510 0.134146 0.655477 0.208942
C60   C     C_1   0.764691 0.130563 0.613716 0.168940
C61   C     C_3   0.265617 0.060322 0.724512 0.319776
C62   C     C_3   0.267648 0.233288 0.699589 0.604176
C63   C     C_3   0.242430 0.239526 0.753711 0.276177
C64   C     C_3   0.260748 0.602576 0.268613 -0.058187
C65   C     C_1   0.287065 0.220524 0.881096 0.172682
C66   C     C_3   0.334233 0.172603 0.697952 -0.131654
C67   C     C_3   0.467592 0.718337 0.235252 0.156314
C68   C     C_3   0.266030 0.077007 0.779315 0.559309
C69   C     C_3   0.307239 0.201887 0.788115 -0.113359
C70   C     C_3   0.429855 0.276951 0.773176 0.035483
C71   C     C_3   0.447541 0.241515 0.723559 -0.313127
C72   C     C_1   0.296178 0.216727 0.838815 0.160852
C73   C     C_1   0.349699 0.151906 0.649187 0.125839
C74   C     C_1   0.361819 0.131535 0.609535 0.135366
C75   C     C_R   0.998691 0.256214 0.070936 0.537968
C76   C     C_3   0.306981 0.707805 0.237294 0.346930
C77   C     C_R   0.284150 0.552304 0.067266 0.529908
C78   C     C_3   0.411525 0.762448 0.268330 0.134195
C79   C     C_R   0.272938 0.210902 0.061752 0.527725
C80   C     C_R   0.941438 0.228693 0.935522 0.578093
C81   C     C_R   0.285324 0.562106 0.936440 0.566493
C82   C     C_R   0.267091 0.224094 0.930220 0.562368
C83   C     C_1   0.311550 0.610651 0.111969 0.102002
C84   C     C_1   0.338458 0.645616 0.152203 0.139486
Cr1   Cr    Cr6+3 0.582410 0.169020 0.499790 1.113638
Cr2   Cr    Cr6+3 0.330970 0.913410 0.499920 1.141800
Cr3   Cr    Cr6+3 0.586650 0.917610 0.500320 1.153524
Cr4   Cr    Cr6+3 0.083990 0.164050 0.998170 1.133882
Cr5   Cr    Cr6+3 0.080550 0.415820 0.000690 1.145647
Cr6   Cr    Cr6+3 0.335830 0.419220 0.999920 1.128159
F1    F     F_    0.246938 0.755923 0.223404 -0.526874
F2    F     F_    0.455698 0.625581 0.801462 -0.462613
F3    F     F_    0.278332 0.512850 0.802523 -0.572980
F4    F     F_    0.182134 0.732466 0.700589 -0.455349
F5    F     F_    0.251102 0.813557 0.783195 -0.514033
F6    F     F_    0.702301 0.217043 0.801006 -0.537922
F7    F     F_    0.990556 0.276764 0.697870 -0.486624
F8    F     F_    0.763319 0.952034 0.710713 -0.453452
F9    F     F_    0.483633 0.570389 0.285241 -0.485542
F10   F     F_    0.939875 0.079529 0.707275 -0.417695
F11   F     F_    0.768303 0.956972 0.800678 -0.462449
F12   F     F_    0.103270 0.374298 0.253382 -0.570231
F13   F     F_    0.634665 0.038115 0.812284 -0.471793
F14   F     F_    0.161228 0.004431 0.704924 -0.449513
F15   F     F_    0.169313 0.172978 0.674842 -0.390233
F16   F     F_    0.131343 0.171903 0.759521 -0.458083
F17   F     F_    0.342069 0.052673 0.799286 -0.541939
F18   F     F_    0.767653 0.011373 0.294736 -0.532168
F19   F     F_    0.770556 0.075650 0.189089 -0.567499
F20   F     F_    0.212894 0.159327 0.285592 -0.518670
F21   F     F_    0.425962 0.310713 0.208771 -0.586366
F22   F     F_    0.435979 0.034635 0.186506 -0.605940
F23   F     F_    0.135936 0.027420 0.212732 -0.546932
F24   F     F_    0.534498 0.826760 0.804224 -0.422571
F25   F     F_    0.536796 0.817772 0.715224 -0.492918
H1    H     H_    0.076363 0.222875 0.241583 0.229996
H2    H     H_    0.494840 0.092406 0.271000 0.292482
H3    H     H_    0.293952 0.532115 0.716216 0.191481
H4    H     H_    0.437967 0.622023 0.716993 0.279414
H5    H     H_    0.169499 0.592970 0.720872 0.151057
H6    H     H_    0.433185 0.886362 0.798475 0.259143
H7    H     H_    0.661772 0.161117 0.717995 0.215916
H8    H     H_    0.891365 0.323514 0.792197 0.228069
H9    H     H_    0.644386 0.025871 0.728946 0.279350
H10   H     H_    0.926569 0.068234 0.792954 0.243666
H11   H     H_    0.266656 0.324562 0.763088 0.212195
H12   H     H_    0.943175 0.384545 0.294487 0.236071
H13   H     H_    0.490028 0.193787 0.727600 0.239803
H14   H     H_    0.503003 0.315289 0.701842 0.209422
H15   H     H_    0.299730 0.007397 0.718897 0.269780
H16   H     H_    0.444031 0.361582 0.768966 0.197887
H17   H     H_    0.888107 0.070433 0.225392 0.208672
H18   H     H_    0.922061 0.957846 0.284402 0.411789
H19   H     H_    0.618490 0.244304 0.346392 0.364179
H20   H     H_    0.630101 0.123882 0.171445 0.438715
H21   H     H_    0.953222 0.575867 0.250648 0.406836
H22   H     H_    0.966875 0.786965 0.289714 0.378921
H23   H     H_    0.718108 0.112466 0.269836 0.293328
H24   H     H_    0.242663 0.817527 0.123663 0.370789
H25   H     H_    0.513399 0.932320 0.216511 0.420587
H26   H     H_    0.678909 0.877035 0.146890 0.400328
H27   H     H_    0.350469 0.925474 0.633669 0.353667
H28   H     H_    0.961454 0.653107 0.817867 0.379915
H29   H     H_    0.774674 0.392079 0.644463 0.394408
H30   H     H_    0.118804 0.428372 0.742259 0.379096
H31   H     H_    0.971356 0.859968 0.785889 0.388652
H32   H     H_    0.417385 0.431657 0.601587 0.382978
H33   H     H_    0.225297 0.343957 0.149060 0.318690
H34   H     H_    0.504941 0.198807 0.184479 0.254873
H35   H     H_    0.589424 0.383939 0.884016 0.383359
H36   H     H_    0.102743 0.329370 0.427610 0.379482
H37   H     H_    0.176646 0.557045 0.282637 0.283116
H38   H     H_    0.514175 0.225421 0.265448 0.215214
H39   H     H_    0.374057 0.267928 0.291274 0.224071
H40   H     H_    0.258148 0.225062 0.204271 0.221891
H41   H     H_    0.296651 0.938291 0.255072 0.214561
O1    O     O_R   0.697410 0.194200 0.448260 -0.496509
O2    O     O_R   0.358220 0.530810 0.052620 -0.483363
O3    O     O_R   0.327700 0.313010 0.046780 -0.490125
O4    O     O_R   0.476980 0.157590 0.451760 -0.501663
O5    O     O_R   0.175720 0.143820 0.946060 -0.468832
O6    O     O_R   0.988130 0.174220 0.950720 -0.478750
O7    O     O_R   0.966820 0.326980 0.948540 -0.460909
O8    O     O_R   0.184860 0.514240 0.953480 -0.463189
O9    O     O_R   0.358870 0.535710 0.949380 -0.467745
O10   O     O_R   0.328300 0.317550 0.951070 -0.480980
O11   O     O_3   0.166790 0.333030 0.999590 -0.349668
O12   O     O_R   0.341890 0.819480 0.547990 -0.498087
O13   O     O_R   0.305060 0.002060 0.448040 -0.454022
O14   O     O_R   0.341740 0.818420 0.452260 -0.480854
O15   O     O_R   0.497310 0.801990 0.448770 -0.477009
O16   O     O_R   0.680990 0.022320 0.452370 -0.467114
O17   O     O_R   0.697560 0.195350 0.551530 -0.475908
O18   O     O_R   0.477130 0.158650 0.547490 -0.492152
O19   O     O_R   0.305220 0.003210 0.551310 -0.480750
O20   O     O_2   0.097551 0.138348 0.354816 -0.079243
O21   O     O_2   0.901902 0.035218 0.360227 -0.210316
O22   O     O_3   0.990453 0.029148 0.280453 -0.418598
O23   O     O_R   0.497470 0.803140 0.552040 -0.474029
O24   O     O_2   0.816314 0.399399 0.355254 -0.234211
O25   O     O_2   0.747960 0.421206 0.278008 -0.160920
O26   O     O_3   0.652239 0.227866 0.319186 -0.574241
O27   O     O_2   0.725507 0.366105 0.191157 -0.142832
O28   O     O_2   0.790618 0.280241 0.136591 -0.233529
O29   O     O_3   0.656293 0.162240 0.202372 -0.477825
O30   O     O_2   0.086019 0.482661 0.186532 -0.190460
O31   O     O_2   0.931267 0.503466 0.166923 -0.158370
O32   O     O_3   0.009466 0.553129 0.252108 -0.465625
O33   O     O_2   0.157931 0.811131 0.319324 -0.228252
O34   O     O_R   0.681130 0.023390 0.548100 -0.479428
O35   O     O_2   0.129978 0.963542 0.339147 -0.160556
O36   O     O_3   0.021721 0.842320 0.267557 -0.383127
O37   O     O_2   0.094041 0.792842 0.189772 -0.108391
O38   O     O_2   0.124203 0.922595 0.125153 -0.231323
O39   O     O_3   0.279561 0.881428 0.145119 -0.414378
O40   O     O_2   0.413019 0.924040 0.317332 -0.331045
O41   O     O_2   0.570114 0.895905 0.327399 -0.170595
O42   O     O_3   0.550821 0.975032 0.245322 -0.431933
O43   O     O_2   0.687218 0.831485 0.246951 -0.113593
O44   O     O_2   0.612619 0.685154 0.188015 -0.173498
O45   O     O_3   0.500010 0.000010 0.500010 -0.327933
O46   O     O_3   0.614585 0.865700 0.165538 -0.472593
O47   O     O_2   0.465705 0.016429 0.733806 -0.303781
O48   O     O_2   0.533128 0.975081 0.661146 -0.344220
O49   O     O_3   0.327559 0.900031 0.666971 -0.452330
O50   O     O_2   0.029914 0.524455 0.781680 -0.254533
O51   O     O_2   0.104784 0.602117 0.860412 -0.257087
O52   O     O_3   0.035555 0.701622 0.804614 -0.340207
O53   O     O_2   0.821747 0.403504 0.738251 -0.190835
O54   O     O_2   0.975659 0.463645 0.683551 -0.177142
O55   O     O_3   0.781708 0.327225 0.653096 -0.550288
O56   O     O_R   0.175070 0.138920 0.049300 -0.483708
O57   O     O_2   0.067767 0.232000 0.826229 -0.241441
O58   O     O_2   0.072764 0.402089 0.837968 -0.197566
O59   O     O_3   0.135328 0.372711 0.755255 -0.367028
O60   O     O_2   0.159271 0.918249 0.846642 -0.142803
O61   O     O_2   0.083383 0.037787 0.831953 -0.263832
O62   O     O_3   0.043333 0.888442 0.770095 -0.296359
O63   O     O_2   0.248985 0.397387 0.658277 -0.196001
O64   O     O_2   0.425145 0.450236 0.698406 -0.359293
O65   O     O_3   0.386252 0.357311 0.616039 -0.512448
O66   O     O_2   0.411559 0.471788 0.187172 -0.162924
O67   O     O_R   0.987530 0.169680 0.046430 -0.484116
O68   O     O_2   0.286169 0.369342 0.253978 -0.165676
O69   O     O_3   0.203330 0.384104 0.171006 -0.527654
O70   O     O_2   0.521769 0.193630 0.836430 -0.093999
O71   O     O_2   0.644355 0.364921 0.792925 -0.141558
O72   O     O_3   0.529504 0.373878 0.861897 -0.503731
O73   O     O_2   0.195219 0.365578 0.342342 -0.164380
O74   O     O_2   0.069862 0.435905 0.351371 -0.285531
O75   O     O_3   0.043623 0.276775 0.406302 -0.485438
O76   O     O_R   0.966170 0.322080 0.051780 -0.445377
O77   O     O_R   0.184260 0.509700 0.049190 -0.502542
S1    S     S_3+6 0.994166 0.105784 0.326706 0.170474
S2    S     S_3+6 0.099493 0.627968 0.808395 0.180945
S3    S     S_3+6 0.869466 0.366934 0.699753 0.093300
S4    S     S_3+6 0.049777 0.316869 0.801158 0.107355
S5    S     S_3+6 0.135652 0.980231 0.808324 0.241872
S6    S     S_3+6 0.333965 0.364752 0.668721 0.042132
S7    S     S_3+6 0.305295 0.441989 0.211298 0.126729
S8    S     S_3+6 0.534837 0.299396 0.816611 0.118611
S9    S     S_3+6 0.077635 0.333304 0.351076 0.106069
S10   S     S_3+6 0.769602 0.344622 0.308128 0.047693
S11   S     S_3+6 0.763032 0.283432 0.188197 0.122170
S12   S     S_3+6 0.980390 0.466550 0.206194 0.146615
S13   S     S_3+6 0.140224 0.900593 0.298633 0.180237
S14   S     S_3+6 0.178218 0.898455 0.166769 0.188767
S15   S     S_3+6 0.487429 0.893752 0.292193 0.062819
S16   S     S_3+6 0.600592 0.776014 0.209256 0.152676
S17   S     S_3+6 0.442726 0.930311 0.697612 0.022569

loop_
_geom_bond_atom_site_label_1
_geom_bond_atom_site_label_2
_ccdc_geom_bond_type
C56   C78   S    
C7    C75   S    
C8    C13   S    
C23   C45   S    
C20   H40   S    
Cr6   O11   S    
Cr2   O13   S    
C11   C13   S    
C41   C42   S    
O38   S14   D    
C19   C20   S    
C24   F22   S    
C28   C74   S    
O26   S10   S    
C47   H9    S    
O51   S2    D    
C39   C41   S    
C62   F15   S    
C41   F5    S    
C53   C54   S    
C40   C46   S    
C48   F7    S    
C26   C27   S    
C4    O14   A    
O65   S6    S    
C83   C84   T    
C18   C24   S    
O73   S9    D    
C4    O15   A    
C76   C78   S    
O57   S4    D    
C70   S8    S    
C79   O3    A    
C5    C6    S    
C38   F24   S    
H18   O22   S    
C19   F20   S    
C20   C25   S    
C77   C83   S    
O63   S6    D    
Cr4   O5    S    
H22   O36   S    
C32   S17   S    
C1    C31   S    
O36   S13   S    
O55   S3    S    
Cr2   O19   S    
C73   C74   T    
H27   O49   S    
Cr5   O77   S    
C37   C42   S    
C23   S7    S    
H25   O42   S    
H29   O55   S    
Cr5   O11   S    
O49   S17   S    
C52   C60   S    
H30   O59   S    
C61   C66   S    
O43   S16   D    
C7    C14   T    
H36   O75   S    
O72   S8    S    
C55   H10   S    
C45   C56   S    
H24   O39   S    
C68   C69   S    
C45   C67   S    
C78   S15   S    
C56   C64   S    
O64   S6    D    
C70   C71   S    
O59   S4    S    
Cr1   O4    S    
C32   C38   S    
C5    S9    S    
C4    C12   S    
C9    C10   S    
Cr5   O8    S    
H32   O65   S    
Cr1   O45   S    
C77   O2    A    
C47   C53   S    
O48   S17   D    
C35   F2    S    
C23   C34   S    
C16   O1    A    
C75   O67   A    
C59   C60   T    
Cr5   O76   S    
C42   F4    S    
H21   O32   S    
C53   F6    S    
C9    F19   S    
C11   S11   S    
C19   H39   S    
C21   C79   S    
C79   O56   A    
C67   C78   S    
C34   C84   S    
C42   H5    S    
H19   O26   S    
C44   C46   T    
O29   S11   S    
Cr3   O16   S    
C35   F3    S    
C25   C29   S    
C38   C39   S    
O20   S1    D    
C48   C51   S    
H35   O72   S    
C62   C66   S    
C11   S12   S    
H20   O29   S    
C63   C69   S    
O40   S15   D    
O58   S4    D    
Cr2   O12   S    
H26   O46   S    
C49   S4    S    
C3    C8    S    
C45   F9    S    
C27   S13   S    
O42   S15   S    
O22   S1    S    
O37   S14   D    
C16   C17   S    
C47   H7    S    
C39   C43   S    
C41   S2    S    
C25   C26   S    
C57   F10   S    
C21   C29   T    
C33   C37   S    
C62   S6    S    
O50   S2    D    
C13   H12   S    
Cr6   O2    S    
C69   C72   S    
C35   C39   S    
C66   C71   S    
C6    C10   S    
C62   C63   S    
C3    C9    S    
O44   S16   D    
C71   H14   S    
C20   F21   S    
C16   O16   A    
Cr1   O17   S    
H28   O52   S    
Cr2   O45   S    
C36   C81   S    
Cr4   O11   S    
Cr3   O15   S    
C19   C22   S    
C77   O77   A    
Cr1   O18   S    
C64   C76   S    
Cr4   O67   S    
O32   S12   S    
C3    H23   S    
C52   O34   A    
C32   C37   S    
C24   C25   S    
C63   F16   S    
O68   S7    D    
C18   H2    S    
C6    H1    S    
C48   S3    S    
C18   H38   S    
C61   H15   S    
Cr3   O34   S    
C51   C57   S    
C67   S16   S    
C48   C49   S    
C68   F17   S    
C64   H37   S    
C33   H4    S    
C8    C15   S    
O54   S3    D    
C5    S1    S    
C55   C57   S    
Cr6   O9    S    
C10   C14   S    
C81   O8    A    
C71   H13   S    
C5    C8    S    
C51   C59   S    
O27   S11   D    
Cr6   O3    S    
C40   O23   A    
C26   S14   S    
O66   S7    D    
C2    C12   T    
C54   C58   S    
C9    H17   S    
C27   H41   S    
C15   C17   T    
C61   C68   S    
C54   C55   S    
C23   C64   S    
C81   O9    A    
C22   C30   S    
O33   S13   D    
Cr2   O14   S    
C1    O4    A    
O75   S9    S    
O70   S8    D    
C50   C80   S    
C34   C67   S    
O71   S8    D    
C80   O7    A    
C47   C51   S    
C28   O19   A    
O21   S1    D    
C82   O5    A    
C3    F18   S    
C65   C72   T    
C55   F11   S    
O41   S15   D    
O52   S2    S    
C22   C27   S    
C82   O10   A    
O60   S5    D    
C50   C58   T    
O24   S10   D    
C37   C44   S    
C18   C22   S    
C61   F14   S    
O53   S3    D    
C24   H34   S    
O31   S12   D    
O28   S11   D    
C68   S5    S    
Cr5   O7    S    
O74   S9    D    
C66   C73   S    
C30   C31   T    
C28   O18   A    
C65   C82   S    
C13   S10   S    
O47   S17   D    
O39   S14   S    
Cr4   O56   S    
C53   F13   S    
Cr4   O6    S    
C57   F8    S    
O61   S5    D    
C1    O13   A    
C70   H16   S    
C33   C35   S    
O69   S7    S    
C6    F12   S    
C32   F25   S    
C69   C70   S    
C40   O12   A    
C38   H6    S    
C10   C11   S    
C76   F1    S    
Cr3   O23   S    
H31   O62   S    
O25   S10   D    
C63   H11   S    
C33   H3    S    
O46   S16   S    
C80   O6    A    
Cr1   O1    S    
O35   S13   D    
O62   S5    S    
C36   C43   T    
C2    C56   S    
C26   F23   S    
C75   O76   A    
C52   O17   A    
Cr3   O45   S    
O30   S12   D    
Cr6   O10   S    
C49   C54   S    
C34   C76   S    
H33   O69   S    
C49   H8    S    
