data_mof_unit_6146.cif
_audit_creation_date              2012-12-11T16:26:35-0500
_audit_creation_method            fapswitch 2.2
_symmetry_space_group_name_H-M    P1
_symmetry_Int_Tables_number       1
_space_group_crystal_system       triclinic
_cell_length_a                    14.003438
_cell_length_b                    14.003429
_cell_length_c                    31.826378
_cell_angle_alpha                 89.478872
_cell_angle_beta                  90.521126
_cell_angle_gamma                 119.988289
_cell_volume                      5405.23024096

loop_
_atom_site_label
_atom_site_type_symbol
_atom_type_description
_atom_site_fract_x
_atom_site_fract_y
_atom_site_fract_z
_atom_type_partial_charge
C1    C     C_R   0.567073 0.444238 0.810379 0.564508
C2    C     C_R   0.444238 0.567073 0.189621 0.564511
C3    C     C_3   0.866182 0.670920 0.647608 -0.038119
C4    C     C_3   0.717622 0.996052 0.829143 -0.078921
C5    C     C_3   0.282034 0.267600 0.663183 -0.084616
C6    C     C_3   0.670922 0.866182 0.352391 -0.038122
C7    C     C_3   0.996049 0.717619 0.170857 -0.078923
C8    C     C_3   0.267601 0.282034 0.336817 -0.084616
C9    C     C_3   0.711539 0.052651 0.179874 -0.106605
C10   C     C_3   0.103035 0.786887 0.346620 -0.044602
C11   C     C_3   0.266963 0.284983 0.165012 -0.108561
C12   C     C_1   0.049516 0.725736 0.065936 0.262783
C13   C     C_R   0.434571 0.879447 0.309988 0.548657
C14   C     C_1   0.705878 0.011043 0.429589 0.214501
C15   C     C_1   0.281539 0.345420 0.061308 0.234218
C16   C     C_1   0.962836 0.672205 0.426206 0.217026
C17   C     C_1   0.698538 0.998073 0.072021 0.220066
C18   C     C_1   0.285221 0.352885 0.439880 0.264843
C19   C     C_1   0.672191 0.962813 0.573797 0.217050
C20   C     C_1   0.998077 0.698541 0.927978 0.220066
C21   C     C_1   0.352881 0.285226 0.560120 0.264843
C22   C     C_1   0.725734 0.049514 0.934065 0.262783
C23   C     C_1   0.011055 0.705883 0.570413 0.214503
C24   C     C_R   0.121755 0.555782 0.189693 0.571928
C25   C     C_1   0.345419 0.281539 0.938691 0.234217
C26   C     C_3   0.996676 0.260594 0.125101 -0.077583
C27   C     C_3   0.375157 0.087349 0.332342 -0.123321
C28   C     C_3   0.718527 0.760082 0.130666 -0.069679
C29   C     C_3   0.972707 0.268420 0.357496 -0.067141
C30   C     C_3   0.302622 0.034646 0.144362 -0.092288
C31   C     C_3   0.723165 0.591444 0.339244 -0.094624
C32   C     C_3   0.268425 0.972710 0.642510 -0.067138
C33   C     C_3   0.034646 0.302621 0.855637 -0.092287
C34   C     C_3   0.591413 0.723126 0.660780 -0.094617
C35   C     C_1   0.998098 0.530468 0.019201 0.005065
C36   C     C_3   0.260596 0.996679 0.874898 -0.077583
C37   C     C_3   0.087346 0.375150 0.667658 -0.123323
C38   C     C_3   0.760083 0.718527 0.869334 -0.069679
C39   C     C_1   0.531270 0.003101 0.480149 0.006499
C40   C     C_1   0.484423 0.487381 0.018753 0.004887
C41   C     C_1   0.005689 0.531797 0.482085 0.008659
C42   C     C_1   0.527377 0.993564 0.018390 0.006432
C43   C     C_1   0.491896 0.493646 0.481180 0.004615
C44   C     C_1   0.531791 0.005675 0.517917 0.008657
C45   C     C_R   0.879447 0.434571 0.690012 0.548658
C46   C     C_1   0.993569 0.527381 0.981609 0.006432
C47   C     C_1   0.493638 0.491904 0.518821 0.004614
C48   C     C_1   0.530464 0.998093 0.980798 0.005065
C49   C     C_1   0.003114 0.531276 0.519853 0.006499
C50   C     C_1   0.487381 0.484423 0.981247 0.004887
C51   C     C_R   0.935175 0.470773 0.851436 0.004562
C52   C     C_R   0.533730 0.063986 0.648451 0.020768
C53   C     C_R   0.527049 0.461394 0.851118 0.020645
C54   C     C_R   0.943688 0.479528 0.650389 0.019852
C55   C     C_R   0.539473 0.061122 0.850662 0.020229
C56   C     C_R   0.555782 0.121755 0.810307 0.571928
C57   C     C_R   0.522983 0.463788 0.649710 0.002442
C58   C     C_R   0.479527 0.943687 0.349611 0.019853
C59   C     C_R   0.061123 0.539473 0.149337 0.020228
C60   C     C_R   0.463787 0.522984 0.350290 0.002458
C61   C     C_R   0.470773 0.935174 0.148564 0.004562
C62   C     C_R   0.063989 0.533731 0.351549 0.020776
C63   C     C_R   0.461394 0.527049 0.148882 0.020646
C64   C     C_R   0.960192 0.574952 0.867639 0.199506
C65   C     C_R   0.606783 0.030239 0.632928 0.187063
C66   C     C_R   0.440752 0.370164 0.872737 0.203647
C67   C     C_R   0.566017 0.445030 0.689900 0.555461
C68   C     C_R   0.959359 0.579416 0.632284 0.199338
C69   C     C_R   0.630516 0.059615 0.870223 0.211332
C70   C     C_R   0.439547 0.372974 0.627232 0.210630
C71   C     C_R   0.579414 0.959355 0.367716 0.199339
C72   C     C_R   0.059616 0.630516 0.129777 0.211332
C73   C     C_R   0.372971 0.439548 0.372768 0.210627
C74   C     C_R   0.574951 0.960190 0.132361 0.199507
C75   C     C_R   0.030246 0.606787 0.367074 0.187063
C76   C     C_R   0.370163 0.440753 0.127262 0.203647
C77   C     C_R   0.982744 0.596526 0.910744 -0.005876
C78   C     C_R   0.877096 0.432205 0.810545 0.560238
C79   C     C_R   0.601791 0.001977 0.589960 -0.014897
C80   C     C_R   0.425697 0.377968 0.915794 -0.006356
C81   C     C_R   0.988649 0.602416 0.589344 -0.012953
C82   C     C_R   0.627736 0.037043 0.913272 -0.006606
C83   C     C_R   0.427775 0.382323 0.583846 -0.011953
C84   C     C_R   0.602412 0.988640 0.410657 -0.012953
C85   C     C_R   0.037045 0.627738 0.086728 -0.006606
C86   C     C_R   0.382319 0.427779 0.416154 -0.011952
C87   C     C_R   0.596524 0.982741 0.089255 -0.005876
C88   C     C_R   0.001991 0.601799 0.410042 -0.014898
C89   C     C_R   0.554751 0.122345 0.689496 0.570395
C90   C     C_R   0.377968 0.425697 0.084206 -0.006356
C91   C     C_R   0.986301 0.517034 0.936859 -0.070284
C92   C     C_R   0.527343 0.012010 0.562898 -0.069616
C93   C     C_R   0.490836 0.478111 0.936523 -0.066166
C94   C     C_R   0.997642 0.524183 0.564997 -0.069426
C95   C     C_R   0.531517 0.006499 0.935925 -0.069035
C96   C     C_R   0.492738 0.484171 0.563721 -0.075244
C97   C     C_R   0.524178 0.997632 0.435004 -0.069425
C98   C     C_R   0.006504 0.531520 0.064074 -0.069035
C99   C     C_R   0.484166 0.492744 0.436279 -0.075237
C100  C     C_R   0.445030 0.566017 0.310100 0.555471
C101  C     C_R   0.517031 0.986297 0.063140 -0.070284
C102  C     C_R   0.012022 0.527348 0.437103 -0.069612
C103  C     C_R   0.478111 0.490836 0.063477 -0.066167
C104  C     C_R   0.975801 0.421037 0.919875 -0.125327
C105  C     C_R   0.447899 0.032785 0.579317 -0.127217
C106  C     C_R   0.564683 0.571901 0.914168 -0.139597
C107  C     C_R   0.998545 0.435140 0.584525 -0.120860
C108  C     C_R   0.436082 0.990242 0.915406 -0.140067
C109  C     C_R   0.561064 0.577886 0.587231 -0.131822
C110  C     C_R   0.435137 0.998538 0.415476 -0.120860
C111  C     C_R   0.432205 0.877096 0.189455 0.560238
C112  C     C_R   0.990248 0.436085 0.084593 -0.140067
C113  C     C_R   0.577882 0.561069 0.412770 -0.131840
C114  C     C_R   0.421035 0.975798 0.080125 -0.125327
C115  C     C_R   0.032792 0.447901 0.420683 -0.127221
C116  C     C_R   0.571901 0.564683 0.085832 -0.139597
C117  C     C_R   0.952706 0.397933 0.877292 0.228980
C118  C     C_R   0.446768 0.053198 0.622048 0.228724
C119  C     C_R   0.585337 0.564709 0.871517 0.226510
C120  C     C_R   0.978520 0.416277 0.627476 0.215684
C121  C     C_R   0.438263 0.017878 0.872442 0.241570
C122  C     C_R   0.122345 0.554751 0.310504 0.570397
C123  C     C_R   0.573944 0.569145 0.630532 0.200415
C124  C     C_R   0.416277 0.978518 0.372525 0.215683
C125  C     C_R   0.017881 0.438264 0.127557 0.241573
C126  C     C_R   0.569144 0.573944 0.369468 0.200417
C127  C     C_R   0.397932 0.952704 0.122707 0.228980
C128  C     C_R   0.053200 0.446768 0.377952 0.228724
C129  C     C_R   0.564708 0.585336 0.128483 0.226510
C130  C     C_3   0.052651 0.711540 0.820125 -0.106605
C131  C     C_3   0.786883 0.103030 0.653381 -0.044596
C132  C     C_3   0.284983 0.266966 0.834988 -0.108564
Cr1   Cr    Cr6+3 0.504240 0.249200 0.750000 1.078552
Cr2   Cr    Cr6+3 0.744960 0.495760 0.750000 1.067658
Cr3   Cr    Cr6+3 0.750800 0.255040 0.750000 1.053932
Cr4   Cr    Cr6+3 0.249200 0.504240 0.250000 1.078556
Cr5   Cr    Cr6+3 0.495760 0.744960 0.250000 1.067661
Cr6   Cr    Cr6+3 0.255040 0.750800 0.250000 1.053931
H1    H     H_    0.959545 0.361749 0.066188 0.125940
H2    H     H_    0.361746 0.959537 0.933810 0.125941
H3    H     H_    0.013735 0.379051 0.566310 0.153693
H4    H     H_    0.608869 0.649860 0.930461 0.129942
H5    H     H_    0.063856 0.657378 0.797741 0.112410
H6    H     H_    0.124871 0.752181 0.841757 0.124710
H7    H     H_    0.049535 0.777309 0.801523 0.143589
H8    H     H_    0.792650 0.180391 0.640941 0.175594
H9    H     H_    0.828554 0.074093 0.631698 0.145298
H10   H     H_    0.832513 0.123124 0.683671 0.164923
H11   H     H_    0.308573 0.334979 0.811747 0.095504
H12   H     H_    0.379049 0.013728 0.433692 0.153694
H13   H     H_    0.230784 0.270426 0.859529 0.096019
H14   H     H_    0.236682 0.188031 0.817956 0.131941
H15   H     H_    0.841073 0.696343 0.676428 0.195618
H16   H     H_    0.793483 0.593818 0.635855 0.146088
H17   H     H_    0.889932 0.738480 0.624410 0.144931
H18   H     H_    0.648285 0.960181 0.806088 0.108913
H19   H     H_    0.707605 0.932798 0.852869 0.117610
H20   H     H_    0.794748 0.020449 0.811684 0.136434
H21   H     H_    0.229305 0.272191 0.637781 0.112183
H22   H     H_    0.303823 0.334170 0.686577 0.072660
H23   H     H_    0.649860 0.608868 0.069539 0.129942
H24   H     H_    0.232889 0.187588 0.679693 0.139106
H25   H     H_    0.593823 0.793483 0.364146 0.146089
H26   H     H_    0.738486 0.889934 0.375588 0.144927
H27   H     H_    0.696342 0.841074 0.323570 0.195617
H28   H     H_    0.960178 0.648281 0.193912 0.108916
H29   H     H_    0.932795 0.707601 0.147131 0.117611
H30   H     H_    0.020444 0.794744 0.188316 0.136435
H31   H     H_    0.272193 0.229307 0.362220 0.112183
H32   H     H_    0.334170 0.303824 0.313424 0.072665
H33   H     H_    0.187589 0.232887 0.320307 0.139108
H34   H     H_    0.035836 0.387373 0.441312 0.160188
H35   H     H_    0.657377 0.063856 0.202258 0.112410
H36   H     H_    0.752179 0.124870 0.158243 0.124707
H37   H     H_    0.777309 0.049536 0.198476 0.143589
H38   H     H_    0.180395 0.792655 0.359062 0.175594
H39   H     H_    0.074096 0.828561 0.368300 0.145297
H40   H     H_    0.123133 0.832514 0.316329 0.164930
H41   H     H_    0.334975 0.308572 0.188252 0.095505
H42   H     H_    0.270423 0.230785 0.140471 0.096018
H43   H     H_    0.188028 0.236683 0.182044 0.131944
H44   H     H_    0.066608 0.293117 0.102706 0.175587
H45   H     H_    0.360539 0.979974 0.059837 0.156670
H46   H     H_    0.916084 0.215184 0.108551 0.120088
H47   H     H_    0.003711 0.200452 0.145926 0.141257
H48   H     H_    0.306562 0.092690 0.316986 0.116578
H49   H     H_    0.432472 0.093255 0.307122 0.118699
H50   H     H_    0.417610 0.158256 0.354237 0.110644
H51   H     H_    0.664493 0.786943 0.114837 0.162408
H52   H     H_    0.776602 0.757241 0.107866 0.110255
H53   H     H_    0.768720 0.823547 0.154359 0.166719
H54   H     H_    0.929573 0.235287 0.387891 0.133687
H55   H     H_    0.989255 0.205432 0.343961 0.149800
H56   H     H_    0.657252 0.608139 0.428225 0.160523
H57   H     H_    0.918485 0.280862 0.334974 0.109702
H58   H     H_    0.314960 0.081179 0.114478 0.111565
H59   H     H_    0.368836 0.085400 0.167401 0.087771
H60   H     H_    0.223131 0.018548 0.157869 0.139432
H61   H     H_    0.795038 0.646311 0.319432 0.177510
H62   H     H_    0.673113 0.513086 0.321743 0.103729
H63   H     H_    0.755630 0.575740 0.368958 0.138582
H64   H     H_    0.235289 0.929558 0.612119 0.133683
H65   H     H_    0.205437 0.989262 0.656042 0.149799
H66   H     H_    0.280874 0.918503 0.665038 0.109702
H67   H     H_    0.387372 0.035830 0.558689 0.160192
H68   H     H_    0.081180 0.314960 0.885521 0.111565
H69   H     H_    0.085400 0.368835 0.832599 0.087770
H70   H     H_    0.018547 0.223130 0.842131 0.139431
H71   H     H_    0.646281 0.795000 0.680590 0.177496
H72   H     H_    0.513081 0.673043 0.678293 0.103708
H73   H     H_    0.575655 0.755584 0.631076 0.138575
H74   H     H_    0.293123 0.066612 0.897293 0.175588
H75   H     H_    0.215182 0.916088 0.891448 0.120090
H76   H     H_    0.200457 0.003718 0.854073 0.141258
H77   H     H_    0.092683 0.306554 0.683015 0.116579
H78   H     H_    0.979978 0.360542 0.940162 0.156670
H79   H     H_    0.093254 0.432466 0.692879 0.118697
H80   H     H_    0.158253 0.417601 0.645764 0.110641
H81   H     H_    0.786944 0.664492 0.885163 0.162408
H82   H     H_    0.757243 0.776602 0.892134 0.110255
H83   H     H_    0.823549 0.768719 0.845641 0.166719
H84   H     H_    0.608131 0.657258 0.571777 0.160547
N1    N     N_1   0.059593 0.804140 0.049370 -0.258411
N2    N     N_1   0.804138 0.059592 0.950630 -0.258410
N3    N     N_1   0.029269 0.788591 0.555131 -0.277486
N4    N     N_1   0.281266 0.204632 0.957049 -0.281870
N5    N     N_1   0.788585 0.029255 0.444871 -0.277494
N6    N     N_1   0.204632 0.281268 0.042950 -0.281871
N7    N     N_1   0.931256 0.728268 0.439214 -0.278177
N8    N     N_1   0.780128 0.010255 0.058259 -0.294288
N9    N     N_1   0.207448 0.293111 0.458759 -0.258906
N10   N     N_1   0.728249 0.931225 0.560791 -0.278167
N11   N     N_1   0.010259 0.780131 0.941741 -0.294288
N12   N     N_1   0.293106 0.207454 0.541241 -0.258899
O1    O     O_R   0.480350 0.140770 0.796330 -0.440284
O2    O     O_R   0.140770 0.480350 0.203670 -0.440282
O3    O     O_R   0.519650 0.660420 0.296330 -0.492456
O4    O     O_R   0.339580 0.859230 0.203670 -0.452420
O5    O     O_R   0.514930 0.348530 0.793250 -0.470341
O6    O     O_R   0.833600 0.485070 0.706750 -0.476616
O7    O     O_R   0.651470 0.166400 0.793250 -0.460230
O8    O     O_R   0.514930 0.348530 0.706750 -0.461156
O9    O     O_R   0.833600 0.485070 0.793250 -0.460614
O10   O     O_R   0.651470 0.166400 0.706750 -0.489027
O11   O     O_R   0.348530 0.514930 0.293250 -0.461160
O12   O     O_R   0.660420 0.519650 0.703670 -0.492463
O13   O     O_R   0.485070 0.833600 0.206750 -0.460615
O14   O     O_R   0.166400 0.651470 0.293250 -0.489027
O15   O     O_R   0.348530 0.514930 0.206750 -0.470342
O16   O     O_R   0.485070 0.833600 0.293250 -0.476617
O17   O     O_R   0.166400 0.651470 0.206750 -0.460230
O18   O     O_3   0.666667 0.333333 0.750000 -0.280933
O19   O     O_3   0.333333 0.666667 0.250000 -0.280936
O20   O     O_3   0.953141 0.652327 0.842480 -0.565423
O21   O     O_3   0.677362 0.018708 0.660625 -0.598841
O22   O     O_3   0.378410 0.269477 0.853151 -0.529029
O23   O     O_R   0.859230 0.339580 0.796330 -0.452420
O24   O     O_3   0.957120 0.657757 0.657954 -0.587604
O25   O     O_3   0.726855 0.090533 0.848473 -0.495088
O26   O     O_3   0.376878 0.271666 0.646501 -0.480806
O27   O     O_3   0.657756 0.957120 0.342046 -0.587603
O28   O     O_3   0.090531 0.726854 0.151527 -0.495089
O29   O     O_3   0.271664 0.376878 0.353499 -0.480807
O30   O     O_3   0.652327 0.953140 0.157519 -0.565423
O31   O     O_3   0.018714 0.677366 0.339376 -0.598853
O32   O     O_3   0.269476 0.378411 0.146849 -0.529025
O33   O     O_3   0.000602 0.344949 0.150224 -0.548461
O34   O     O_R   0.480350 0.140770 0.703670 -0.450526
O35   O     O_3   0.330659 0.986188 0.354205 -0.582928
O36   O     O_3   0.657841 0.657510 0.151461 -0.556987
O37   O     O_3   0.074122 0.366555 0.363303 -0.490272
O38   O     O_3   0.296900 0.932701 0.137313 -0.483857
O39   O     O_3   0.662172 0.644662 0.346874 -0.581875
O40   O     O_3   0.366557 0.074125 0.636696 -0.490271
O41   O     O_3   0.932702 0.296901 0.862687 -0.483857
O42   O     O_3   0.644663 0.662174 0.653126 -0.581865
O43   O     O_3   0.344948 0.000598 0.849775 -0.548465
O44   O     O_3   0.986185 0.330657 0.645796 -0.582926
O45   O     O_R   0.660420 0.519650 0.796330 -0.452773
O46   O     O_3   0.657512 0.657841 0.848539 -0.556991
O47   O     O_R   0.859230 0.339580 0.703670 -0.500300
O48   O     O_R   0.140770 0.480350 0.296330 -0.450521
O49   O     O_R   0.519650 0.660420 0.203670 -0.452770
O50   O     O_R   0.339580 0.859230 0.296330 -0.500303

loop_
_geom_bond_atom_site_label_1
_geom_bond_atom_site_label_2
_ccdc_geom_bond_type
C76   C90   A    
C71   O27   S    
C8    H31   S    
C56   O7    A    
C55   C121  A    
C33   H70   S    
C65   C79   A    
C10   O31   S    
C54   C120  A    
C106  C119  A    
C25   C80   S    
C64   C77   A    
C60   C73   A    
Cr3   O47   S    
C14   C84   S    
Cr3   O18   S    
C117  O41   S    
C28   H51   S    
C31   H61   S    
Cr5   O16   S    
C21   N12   T    
C1    O5    A    
C97   C110  A    
C13   O16   A    
C18   C86   S    
C20   C77   S    
C7    O28   S    
C1    O45   A    
C24   O2    A    
C68   C81   A    
C22   C82   S    
C38   H83   S    
C48   C95   S    
C121  O43   S    
C26   O33   S    
C9    H37   S    
C76   O32   S    
C18   N9    T    
C24   C59   S    
Cr1   O1    S    
Cr5   O13   S    
C26   H47   S    
C131  O21   S    
C58   C71   A    
C39   C97   S    
C54   C68   A    
C63   C76   A    
C85   C98   A    
C132  H13   S    
C114  H45   S    
C9    O30   S    
Cr2   O45   S    
C25   N4    T    
C3    H15   S    
C114  C127  A    
C41   C102  S    
C131  H8    S    
C113  H56   S    
C124  O35   S    
C52   C65   A    
C1    C53   S    
C50   C93   S    
C129  O36   S    
C34   H72   S    
C36   H76   S    
C87   C101  A    
C120  O44   S    
C28   H53   S    
C11   O32   S    
C4    H20   S    
C116  C129  A    
C21   C83   S    
C5    H21   S    
C11   H43   S    
C45   O47   A    
C47   C96   S    
C56   O1    A    
C131  H9    S    
C102  C115  A    
Cr2   O18   S    
C49   C94   S    
C107  H3    S    
C35   C98   S    
C130  H6    S    
C19   N10   T    
C91   C104  A    
C44   C92   S    
C8    H33   S    
Cr6   O19   S    
C59   C72   A    
C69   O25   S    
C110  C124  A    
C70   O26   S    
C6    H27   S    
C26   H46   S    
C125  O33   S    
C130  H7    S    
C32   H64   S    
C101  C114  A    
C112  H1    S    
C100  O3    A    
C52   C89   S    
C100  O11   A    
C37   H80   S    
C57   C67   S    
C41   C49   T    
C31   H62   S    
C23   N3    T    
C67   O8    A    
C8    H32   S    
C72   C85   A    
C64   O20   S    
C10   H38   S    
C33   H68   S    
C30   H58   S    
C94   C107  A    
Cr3   O23   S    
C111  O4    A    
C28   O36   S    
C75   C88   A    
C10   H40   S    
C38   H82   S    
Cr4   O19   S    
C9    H36   S    
C98   C112  A    
C104  H78   S    
Cr6   O17   S    
C34   H73   S    
C2    O15   A    
C119  O46   S    
C108  H2    S    
C132  O22   S    
Cr2   O12   S    
C109  C123  A    
C27   H49   S    
C113  C126  A    
C33   O41   S    
C33   H69   S    
C29   H57   S    
C34   O42   S    
C5    O26   S    
C60   C100  S    
C115  C128  A    
C32   O40   S    
C27   H48   S    
C29   O37   S    
Cr3   O10   S    
C32   H66   S    
C19   C79   S    
C12   N1    T    
C130  H5    S    
C34   H71   S    
C93   C106  A    
C57   C123  A    
C116  H23   S    
C132  H11   S    
C4    H19   S    
C5    H22   S    
C29   H55   S    
C90   C103  A    
C55   C56   S    
C3    H17   S    
C112  C125  A    
C89   O10   A    
C30   O38   S    
C131  H10   S    
C61   C127  A    
C42   C48   T    
C62   C75   A    
C6    H25   S    
C8    O29   S    
C9    H35   S    
C86   C99   A    
C122  O48   A    
Cr1   O18   S    
C79   C92   A    
C2    O49   A    
C36   H74   S    
C108  C121  A    
C12   C85   S    
C7    H30   S    
C68   O24   S    
C4    H18   S    
C7    H28   S    
C66   O22   S    
C45   C54   S    
C4    O25   S    
C127  O38   S    
C13   C58   S    
C74   C87   A    
C128  O37   S    
Cr4   O15   S    
C11   H41   S    
C84   C97   A    
Cr6   O50   S    
C31   O39   S    
C42   C101  S    
C130  O20   S    
C107  C120  A    
C62   C122  S    
Cr4   O48   S    
C123  O42   S    
Cr1   O34   S    
C122  O14   A    
C71   C84   A    
C75   O31   S    
C38   O46   S    
C67   O12   A    
C7    H29   S    
C2    C63   S    
C77   C91   A    
C106  H4    S    
C82   C95   A    
C23   C81   S    
C27   O35   S    
Cr2   O9    S    
C17   C87   S    
C10   H39   S    
Cr2   O6    S    
C38   H81   S    
C126  O39   S    
C24   O17   A    
C118  O40   S    
C51   C64   A    
C6    H26   S    
C115  H34   S    
C110  H12   S    
C28   H52   S    
C99   C113  A    
C88   C102  A    
C17   N8    T    
C53   C119  A    
Cr1   O8    S    
C105  H67   S    
C39   C44   T    
C46   C91   S    
C61   C74   A    
C59   C125  A    
C3    O24   S    
C66   C80   A    
C96   C109  A    
C37   O44   S    
C58   C124  A    
C78   O9    A    
C37   H79   S    
C15   N6    T    
C89   O34   A    
C5    H24   S    
C55   C69   A    
C132  H14   S    
C60   C126  A    
C103  C116  A    
C51   C78   S    
C14   N5    T    
C36   H75   S    
C53   C66   A    
C16   N7    T    
C43   C99   S    
C15   C90   S    
C62   C128  A    
C81   C94   A    
C69   C82   A    
Cr3   O7    S    
C30   H60   S    
C70   C83   A    
C22   N2    T    
C32   H65   S    
C61   C111  S    
C40   C50   T    
C83   C96   A    
C65   O21   S    
C29   H54   S    
C26   H44   S    
C78   O23   A    
C37   H77   S    
Cr4   O11   S    
Cr6   O4    S    
C6    O27   S    
C27   H50   S    
C63   C129  A    
Cr4   O2    S    
Cr5   O3    S    
C105  C118  A    
C31   H63   S    
C73   C86   A    
C45   O6    A    
Cr6   O14   S    
C95   C108  A    
C13   O50   A    
C57   C70   A    
C3    H16   S    
C92   C105  A    
C30   H59   S    
C72   O28   S    
Cr5   O49   S    
C111  O13   A    
C20   N11   T    
C36   O43   S    
C16   C88   S    
C51   C117  A    
C11   H42   S    
Cr1   O5    S    
C80   C93   A    
C35   C46   T    
C43   C47   T    
C104  C117  A    
Cr5   O19   S    
C109  H84   S    
C73   O29   S    
C52   C118  A    
C40   C103  S    
C74   O30   S    
