data_mof_unit_38556.cif
_audit_creation_date              2012-12-10T18:04:37-0500
_audit_creation_method            fapswitch 2.2
_symmetry_space_group_name_H-M    P1
_symmetry_Int_Tables_number       1
_space_group_crystal_system       triclinic
_cell_length_a                    10.75685
_cell_length_b                    9.628755
_cell_length_c                    15.986559
_cell_angle_alpha                 89.473847
_cell_angle_beta                  91.579022
_cell_angle_gamma                 90.107226
_cell_volume                      1655.10830146

loop_
_atom_site_label
_atom_site_type_symbol
_atom_type_description
_atom_site_fract_x
_atom_site_fract_y
_atom_site_fract_z
_atom_type_partial_charge
C1    C     C_R   0.871865 0.503119 0.500286 -0.347745
C2    C     C_R   0.129257 0.500325 0.498863 -0.357303
C3    C     C_R   0.262897 0.500031 0.499090 0.944501
C4    C     C_R   0.737490 0.500537 0.500190 0.929292
C5    C     C_R   0.500123 0.500557 0.341608 0.837333
C6    C     C_R   0.500645 0.499446 0.658373 0.828616
C7    C     C_R   0.548244 0.616080 0.955707 -0.072831
C8    C     C_R   0.458779 0.383138 0.044204 -0.067631
C9    C     C_R   0.548049 0.617150 0.043676 -0.058525
C10   C     C_R   0.459543 0.381831 0.956265 -0.071979
C11   C     C_R   0.503852 0.498494 0.912311 0.020876
C12   C     C_R   0.502870 0.500863 0.087650 0.025859
C13   C     C_1   0.503009 0.497996 0.822261 -0.025104
C14   C     C_1   0.501928 0.501922 0.177702 -0.037408
C15   C     C_1   0.501032 0.501717 0.252671 -0.146940
C16   C     C_1   0.501953 0.498275 0.747288 -0.106036
C17   C     C_R   0.439377 0.075722 0.437580 0.391425
C18   C     C_R   0.553496 0.925118 0.565243 0.413553
C19   C     C_R   0.551908 0.072933 0.565731 0.384217
C20   C     C_R   0.445796 0.926527 0.434890 0.371704
C21   C     C_R   0.069056 0.447364 0.568901 0.340591
C22   C     C_R   0.932449 0.559930 0.431146 0.333356
C23   C     C_R   0.939220 0.458300 0.571867 0.318762
C24   C     C_R   0.062428 0.556866 0.429932 0.327927
Cu1   Cu    Cu3+1 0.500000 0.640660 0.500000 1.026168
Cu2   Cu    Cu3+1 0.500000 0.359340 0.500000 1.018104
N1    N     N_R   0.500000 0.852070 0.500000 -0.283633
N2    N     N_R   0.500000 0.147930 0.500000 -0.282169
O1    O     O_R   0.319640 0.618740 0.499990 -0.533770
O2    O     O_R   0.680360 0.381260 0.500010 -0.589336
O3    O     O_R   0.680360 0.618740 0.500010 -0.600237
O4    O     O_R   0.319640 0.381260 0.499990 -0.568998
O5    O     O_R   0.499970 0.618750 0.380310 -0.536331
O6    O     O_R   0.500030 0.381250 0.619690 -0.522631
O7    O     O_R   0.500030 0.618750 0.619690 -0.533575
O8    O     O_R   0.499970 0.381250 0.380310 -0.534569
O9    O     O_3   0.370372 0.149133 0.377824 -0.540221
C25   C     C_3   0.242443 0.123175 0.388578 -0.248184
H1    H     H_    0.188066 0.203854 0.354077 0.154298
H2    H     H_    0.216140 0.127897 0.455282 0.132701
H3    H     H_    0.214260 0.021808 0.361579 0.198762
O10   O     O_3   0.593641 0.856809 0.637378 -0.507659
C26   C     C_3   0.721765 0.825601 0.634195 -0.216873
H4    H     H_    0.733634 0.711737 0.635046 0.190158
H5    H     H_    0.768956 0.861362 0.692576 0.152161
H6    H     H_    0.770806 0.871146 0.579706 0.082727
O11   O     O_3   0.578776 0.138105 0.640461 -0.522260
C27   C     C_3   0.706807 0.166820 0.648835 -0.150003
H7    H     H_    0.716063 0.267727 0.680670 0.221943
H8    H     H_    0.756903 0.171943 0.588723 0.129706
H9    H     H_    0.752138 0.090540 0.691612 0.142025
O12   O     O_3   0.388015 0.855402 0.369888 -0.531106
C28   C     C_3   0.451651 0.881216 0.295119 -0.184510
H10   H     H_    0.418711 0.805360 0.247610 0.182420
H11   H     H_    0.554053 0.867197 0.303662 0.137722
H12   H     H_    0.430738 0.986066 0.269259 0.201976
C29   C     C_1   0.594611 0.737478 0.088813 0.256330
N3    N     N_1   0.631932 0.833444 0.124675 -0.300183
C30   C     C_1   0.414868 0.260748 0.910988 0.279304
N4    N     N_1   0.379348 0.164278 0.874815 -0.246986
C31   C     C_1   0.593867 0.735736 0.909796 0.272272
N5    N     N_1   0.630161 0.831022 0.873104 -0.243676
C32   C     C_1   0.412637 0.263634 0.089967 0.269235
N6    N     N_1   0.375823 0.168431 0.126477 -0.279439
O13   O     O_3   0.139025 0.400189 0.637458 -0.573926
C33   C     C_3   0.125941 0.254812 0.644446 -0.245886
H13   H     H_    0.191421 0.216748 0.694312 0.200133
H14   H     H_    0.150083 0.202007 0.585574 0.138115
H15   H     H_    0.030568 0.225085 0.662810 0.175660
O14   O     O_3   0.863869 0.608437 0.362387 -0.562471
C34   C     C_3   0.860889 0.754910 0.364348 -0.224829
H16   H     H_    0.829009 0.794349 0.425386 0.131055
H17   H     H_    0.793717 0.792099 0.315268 0.175215
H18   H     H_    0.953118 0.800114 0.350164 0.194478
O15   O     O_3   0.876219 0.425252 0.643682 -0.621832
C35   C     C_3   0.909463 0.517635 0.708796 -0.295546
H19   H     H_    0.828689 0.528634 0.749911 0.165929
H20   H     H_    0.934368 0.623817 0.686273 0.139265
H21   H     H_    0.987265 0.473911 0.747633 0.225137
O16   O     O_3   0.123776 0.617233 0.363807 -0.545780
C36   C     C_3   0.147079 0.514644 0.303980 -0.241377
H22   H     H_    0.219527 0.441222 0.327703 0.141852
H23   H     H_    0.183636 0.566162 0.247361 0.186657
H24   H     H_    0.060918 0.457665 0.284641 0.169979

loop_
_geom_bond_atom_site_label_1
_geom_bond_atom_site_label_2
_ccdc_geom_bond_type
Cu1   O3    S    
C33   H14   S    
Cu2   O4    S    
C35   H21   S    
C26   H4    S    
C36   H22   S    
C28   H10   S    
C7    C11   A    
C35   H20   S    
C18   O10   S    
C25   H1    S    
C19   O11   S    
C33   H15   S    
C5    O8    A    
C17   C20   A    
C6    O7    A    
C18   C19   A    
C3    O1    A    
C7    C31   S    
C24   O16   S    
C27   H9    S    
C5    O5    A    
O14   C34   S    
C27   H8    S    
C33   H13   S    
C30   N4    T    
C31   N5    T    
C36   H23   S    
Cu2   O6    S    
C28   H11   S    
Cu1   O1    S    
C35   H19   S    
C25   H3    S    
C34   H17   S    
Cu1   Cu2   S    
C6    O6    A    
O15   C35   S    
O9    C25   S    
O11   C27   S    
C8    C12   A    
C2    C21   A    
C17   O9    S    
C19   N2    A    
C26   H5    S    
Cu1   O7    S    
Cu2   O8    S    
C27   H7    S    
C12   C14   S    
C1    C23   A    
C21   C23   A    
C2    C24   A    
C22   C24   A    
O10   C26   S    
C36   H24   S    
O12   C28   S    
C28   H12   S    
C7    C9    A    
C21   O13   S    
C9    C12   A    
C17   N2    A    
C18   N1    A    
C23   O15   S    
O16   C36   S    
C34   H18   S    
Cu2   O2    S    
C20   N1    A    
Cu1   N1    S    
Cu2   N2    S    
C1    C4    S    
C2    C3    S    
C34   H16   S    
C20   O12   S    
C25   H2    S    
C11   C13   S    
C29   N3    T    
C10   C30   S    
C9    C29   S    
C3    O4    A    
C26   H6    S    
C5    C15   S    
C4    O3    A    
C10   C11   A    
C8    C32   S    
C6    C16   S    
C32   N6    T    
C1    C22   A    
C8    C10   A    
O13   C33   S    
C13   C16   T    
C14   C15   T    
C22   O14   S    
C4    O2    A    
Cu1   O5    S    
