data_mof_unit_14498.cif
_audit_creation_date              2012-12-10T17:05:04-0500
_audit_creation_method            fapswitch 2.2
_symmetry_space_group_name_H-M    P1
_symmetry_Int_Tables_number       1
_space_group_crystal_system       triclinic
_cell_length_a                    38.726893
_cell_length_b                    21.83019
_cell_length_c                    21.969439
_cell_angle_alpha                 89.897574
_cell_angle_beta                  124.409804
_cell_angle_gamma                 90.212992
_cell_volume                      15323.180087

loop_
_atom_site_label
_atom_site_type_symbol
_atom_type_description
_atom_site_fract_x
_atom_site_fract_y
_atom_site_fract_z
_atom_type_partial_charge
C1    C     C_R   0.000255 0.999892 0.619005 0.923590
C2    C     C_3   0.236102 0.958329 0.773529 0.090663
C3    C     C_R   0.999951 0.999889 0.119028 0.911098
C4    C     C_R   0.500026 0.499721 0.880951 0.917537
C5    C     C_R   0.499951 0.499889 0.119028 0.911099
C6    C     C_R   0.999845 0.880705 0.000014 0.872295
C7    C     C_R   0.499845 0.380705 0.000014 0.872296
C8    C     C_R   0.564201 0.183602 0.004202 -0.240811
C9    C     C_R   0.434488 0.181446 0.991118 -0.212777
C10   C     C_R   0.064200 0.683602 0.004201 -0.240811
C11   C     C_R   0.934489 0.681446 0.991119 -0.212776
C12   C     C_R   0.588960 0.209129 0.983937 0.075974
C13   C     C_3   0.263661 0.457564 0.226322 0.091634
C14   C     C_R   0.407818 0.206050 0.007020 0.049230
C15   C     C_R   0.088959 0.709129 0.983936 0.075972
C16   C     C_R   0.907819 0.706051 0.007022 0.049230
C17   C     C_R   0.082401 0.770020 0.961136 0.411215
C18   C     C_R   0.910657 0.768516 0.023491 0.423757
C19   C     C_R   0.582401 0.270020 0.961137 0.411214
C20   C     C_R   0.410656 0.268516 0.023489 0.423758
C21   C     C_R   0.057175 0.808181 0.973346 0.337563
C22   C     C_R   0.938934 0.806708 0.018467 0.371538
C23   C     C_R   0.557175 0.308181 0.973346 0.337562
C24   C     C_3   0.736102 0.458329 0.773529 0.090663
C25   C     C_R   0.438934 0.306708 0.018466 0.371536
C26   C     C_R   0.029102 0.780988 0.990223 -0.079468
C27   C     C_R   0.968669 0.780176 0.005185 -0.089343
C28   C     C_R   0.529102 0.280988 0.990223 -0.079467
C29   C     C_R   0.468669 0.280176 0.005185 -0.089343
C30   C     C_3   0.763364 0.988462 0.319347 0.066519
C31   C     C_3   0.236570 0.989389 0.680622 0.066614
C32   C     C_3   0.263364 0.488462 0.319347 0.066518
C33   C     C_3   0.736570 0.489389 0.680622 0.066613
C34   C     C_R   0.531085 0.216625 0.998457 -0.039098
C35   C     C_3   0.735597 0.943865 0.254298 -0.373169
C36   C     C_R   0.467488 0.215737 0.997845 -0.047427
C37   C     C_R   0.031085 0.716625 0.998457 -0.039097
C38   C     C_R   0.967488 0.715737 0.997846 -0.047427
C39   C     C_R   0.999321 0.813453 0.998881 -0.096010
C40   C     C_R   0.499321 0.313453 0.998881 -0.096010
C41   C     C_R   0.499755 0.185008 0.999320 -0.051642
C42   C     C_R   0.999754 0.685008 0.999320 -0.051642
C43   C     C_R   0.426278 0.814745 0.895871 -0.239102
C44   C     C_R   0.573896 0.815531 0.104170 -0.238603
C45   C     C_R   0.926278 0.314745 0.895871 -0.239102
C46   C     C_3   0.264074 0.944645 0.745483 -0.374981
C47   C     C_R   0.073896 0.315531 0.104170 -0.238603
C48   C     C_R   0.392099 0.784103 0.837531 -0.318267
C49   C     C_R   0.608198 0.785168 0.162305 -0.318669
C50   C     C_R   0.892100 0.284103 0.837531 -0.318267
C51   C     C_R   0.108198 0.285168 0.162305 -0.318669
C52   C     C_R   0.896338 0.223644 0.821245 0.480201
C53   C     C_R   0.104125 0.224493 0.178529 0.480090
C54   C     C_R   0.396338 0.723644 0.821245 0.480201
C55   C     C_R   0.604125 0.724493 0.178529 0.480090
C56   C     C_R   0.934698 0.192833 0.868979 0.440299
C57   C     C_3   0.235597 0.443865 0.254298 -0.373169
C58   C     C_R   0.065795 0.193241 0.130913 0.440558
C59   C     C_R   0.434698 0.692833 0.868979 0.440299
C60   C     C_R   0.565795 0.693241 0.130913 0.440559
C61   C     C_R   0.966272 0.219898 0.938305 -0.121604
C62   C     C_R   0.034094 0.220136 0.061685 -0.122554
C63   C     C_R   0.466272 0.719898 0.938305 -0.121604
C64   C     C_R   0.534094 0.720135 0.061685 -0.122554
C65   C     C_R   0.464101 0.783684 0.945250 0.002941
C66   C     C_R   0.536114 0.784034 0.054865 0.002796
C67   C     C_R   0.964101 0.283684 0.945250 0.002941
C68   C     C_3   0.764074 0.444645 0.745483 -0.374981
C69   C     C_R   0.036113 0.284034 0.054865 0.002796
C70   C     C_R   0.000175 0.186973 0.000005 -0.165265
C71   C     C_R   0.500175 0.686973 0.000005 -0.165266
C72   C     C_1   0.875119 0.000050 0.375460 -0.206452
C73   C     C_1   0.124883 0.000632 0.624467 -0.207630
C74   C     C_1   0.375120 0.500050 0.375460 -0.206452
C75   C     C_1   0.624883 0.500632 0.624467 -0.207630
C76   C     C_R   0.500057 0.815507 0.000140 -0.073820
C77   C     C_R   0.000057 0.315507 0.000140 -0.073820
C78   C     C_1   0.624687 0.999847 0.124466 -0.155177
C79   C     C_1   0.837479 0.000527 0.337758 0.015570
C80   C     C_1   0.375313 0.000055 0.875532 -0.148600
C81   C     C_1   0.124687 0.499847 0.124466 -0.155177
C82   C     C_1   0.875313 0.500055 0.875532 -0.148600
C83   C     C_3   0.763213 0.055391 0.245380 -0.039762
C84   C     C_3   0.237110 0.056193 0.754859 -0.038377
C85   C     C_3   0.263213 0.555391 0.245380 -0.039762
C86   C     C_3   0.737110 0.556193 0.754859 -0.038377
C87   C     C_3   0.791707 0.000997 0.291898 0.032160
C88   C     C_3   0.208302 0.001907 0.708125 0.031879
C89   C     C_3   0.291707 0.500997 0.291898 0.032160
C90   C     C_1   0.162526 0.001343 0.662213 0.014587
C91   C     C_3   0.708302 0.501907 0.708125 0.031879
C92   C     C_3   0.735950 0.011874 0.179859 0.490688
C93   C     C_3   0.264129 0.012525 0.820205 0.493230
C94   C     C_3   0.235950 0.511874 0.179859 0.490687
C95   C     C_3   0.764129 0.512525 0.820205 0.493231
C96   C     C_3   0.901063 0.789738 0.701597 -0.283963
C97   C     C_3   0.097894 0.789919 0.297819 -0.271545
C98   C     C_3   0.401063 0.289738 0.701597 -0.283959
C99   C     C_3   0.597894 0.289919 0.297819 -0.271546
C100  C     C_3   0.046147 0.171156 0.901244 -0.256973
C101  C     C_1   0.337479 0.500527 0.337758 0.015570
C102  C     C_3   0.954439 0.171372 0.098726 -0.256902
C103  C     C_3   0.546147 0.671156 0.901244 -0.256972
C104  C     C_3   0.454439 0.671372 0.098726 -0.256904
C105  C     C_3   0.141605 0.173783 0.934652 -0.257779
C106  C     C_3   0.859002 0.173883 0.065159 -0.255057
C107  C     C_3   0.641606 0.673783 0.934652 -0.257777
C108  C     C_3   0.359002 0.673883 0.065159 -0.255057
C109  C     C_3   0.074557 0.798573 0.854733 -0.299759
C110  C     C_3   0.846249 0.791574 0.002173 -0.364380
C111  C     C_3   0.574557 0.298572 0.854733 -0.299760
C112  C     C_R   0.999770 0.999993 0.381021 0.922937
C113  C     C_1   0.662526 0.501343 0.662213 0.014587
C114  C     C_3   0.346248 0.291574 0.002169 -0.364381
C115  C     C_3   0.099486 0.894236 0.008404 -0.121614
C116  C     C_3   0.899914 0.895865 0.987400 -0.125765
C117  C     C_3   0.599486 0.394236 0.008402 -0.121609
C118  C     C_3   0.399914 0.395865 0.987399 -0.125761
C119  C     C_3   0.747336 0.111439 0.364465 -0.274367
C120  C     C_3   0.253329 0.112446 0.636019 -0.276610
C121  C     C_3   0.247336 0.611439 0.364465 -0.274369
C122  C     C_3   0.753329 0.612446 0.636019 -0.276611
C123  C     C_3   0.841880 0.226216 0.697322 -0.352439
C124  C     C_1   0.662321 0.999647 0.162202 0.067079
C125  C     C_3   0.158812 0.227336 0.302326 -0.351941
C126  C     C_3   0.341879 0.726216 0.697322 -0.352439
C127  C     C_3   0.658812 0.727336 0.302326 -0.351941
C128  C     C_3   0.940122 0.146482 0.780312 -0.254126
C129  C     C_3   0.060567 0.146472 0.219774 -0.254398
C130  C     C_3   0.440122 0.646482 0.780312 -0.254125
C131  C     C_3   0.560567 0.646472 0.219774 -0.254399
C132  C     C_3   0.749920 0.039940 0.094415 -0.205016
C133  C     C_3   0.250394 0.040556 0.905824 -0.205557
C134  C     C_3   0.249920 0.539939 0.094414 -0.205014
C135  C     C_1   0.337678 0.000075 0.837795 0.072383
C136  C     C_3   0.750394 0.540556 0.905824 -0.205559
C137  C     C_3   0.148434 0.118650 0.803473 -0.371761
C138  C     C_3   0.852061 0.119110 0.196577 -0.370868
C139  C     C_3   0.648435 0.618650 0.803473 -0.371762
C140  C     C_3   0.352061 0.619110 0.196577 -0.370868
C141  C     C_3   0.866345 0.845797 0.525873 -0.319270
C142  C     C_3   0.133334 0.846356 0.473613 -0.317349
C143  C     C_3   0.366345 0.345797 0.525872 -0.319271
C144  C     C_3   0.633334 0.346356 0.473613 -0.317352
C145  C     C_1   0.162321 0.499647 0.162202 0.067079
C146  C     C_1   0.837678 0.500076 0.837795 0.072383
C147  C     C_R   0.927957 0.955651 0.618527 -0.029900
C148  C     C_R   0.071854 0.955951 0.381172 -0.030708
C149  C     C_R   0.427957 0.455651 0.618527 -0.029900
C150  C     C_R   0.571854 0.455951 0.381172 -0.030708
C151  C     C_R   0.900211 0.915058 0.619940 0.397035
C152  C     C_R   0.500255 0.499892 0.619005 0.923590
C153  C     C_R   0.099375 0.915419 0.379456 0.397841
C154  C     C_R   0.400211 0.415058 0.619940 0.397035
C155  C     C_R   0.599375 0.415419 0.379456 0.397843
C156  C     C_R   0.910371 0.890974 0.686881 0.453624
C157  C     C_R   0.088872 0.891153 0.312387 0.449976
C158  C     C_R   0.410371 0.390974 0.686881 0.453622
C159  C     C_R   0.588872 0.391153 0.312387 0.449976
C160  C     C_R   0.945281 0.913784 0.753358 -0.000802
C161  C     C_R   0.053832 0.913728 0.246052 0.012032
C162  C     C_R   0.445281 0.413784 0.753358 -0.000802
C163  C     C_R   0.499770 0.499993 0.381021 0.922937
C164  C     C_R   0.553832 0.413728 0.246052 0.012032
C165  C     C_R   0.971105 0.960751 0.752474 -0.075074
C166  C     C_R   0.028508 0.960938 0.247285 -0.064494
C167  C     C_R   0.471105 0.460751 0.752474 -0.075074
C168  C     C_R   0.528508 0.460938 0.247285 -0.064494
C169  C     C_R   0.919983 0.999948 0.420312 0.844634
C170  C     C_R   0.080018 0.000126 0.579605 0.843844
C171  C     C_R   0.419983 0.499948 0.420312 0.844634
C172  C     C_R   0.580018 0.500126 0.579605 0.843844
C173  C     C_R   0.966426 0.972297 0.684859 -0.041687
C174  C     C_3   0.708065 0.999543 0.208204 -0.030016
C175  C     C_R   0.033394 0.972589 0.314987 -0.038633
C176  C     C_R   0.466426 0.472297 0.684859 -0.041687
C177  C     C_R   0.533394 0.472589 0.314987 -0.038633
C178  C     C_R   0.000361 0.997992 0.814371 -0.079073
C179  C     C_R   0.999527 0.998259 0.185532 -0.074795
C180  C     C_R   0.500360 0.497992 0.814371 -0.079074
C181  C     C_R   0.499527 0.498259 0.185532 -0.074795
C182  C     C_R   0.030608 0.033580 0.812134 -0.151809
C183  C     C_R   0.969476 0.033902 0.187841 -0.149992
C184  C     C_R   0.530608 0.533580 0.812134 -0.151810
C185  C     C_3   0.291934 0.000205 0.791796 -0.030879
C186  C     C_R   0.469476 0.533902 0.187841 -0.149992
C187  C     C_R   0.035270 0.023530 0.753915 -0.069019
C188  C     C_R   0.964821 0.023945 0.246144 -0.062740
C189  C     C_R   0.535270 0.523530 0.753915 -0.069019
C190  C     C_R   0.464821 0.523945 0.246144 -0.062740
C191  C     C_R   0.000479 0.999300 0.686421 -0.037498
C192  C     C_R   0.999521 0.999645 0.313586 -0.032836
C193  C     C_R   0.500479 0.499300 0.686421 -0.037498
C194  C     C_R   0.499521 0.499645 0.313586 -0.032836
C195  C     C_R   0.057469 0.077341 0.867115 0.360260
C196  C     C_3   0.208065 0.499543 0.208204 -0.030017
C197  C     C_R   0.942770 0.077552 0.132818 0.359528
C198  C     C_R   0.557469 0.577341 0.867115 0.360260
C199  C     C_R   0.442770 0.577552 0.132818 0.359529
C200  C     C_R   0.096572 0.091152 0.879687 0.349102
C201  C     C_R   0.903731 0.091343 0.120266 0.348630
C202  C     C_R   0.596572 0.591152 0.879687 0.349101
C203  C     C_R   0.403731 0.591344 0.120266 0.348630
C204  C     C_R   0.105764 0.069403 0.830300 0.363506
C205  C     C_R   0.894503 0.069751 0.169771 0.361468
C206  C     C_R   0.605764 0.569403 0.830300 0.363506
C207  C     C_3   0.791934 0.500205 0.791796 -0.030879
C208  C     C_R   0.394503 0.569751 0.169771 0.361468
C209  C     C_R   0.074730 0.037103 0.766401 -0.018405
C210  C     C_R   0.925442 0.037591 0.233734 -0.013509
C211  C     C_R   0.574730 0.537103 0.766401 -0.018405
C212  C     C_R   0.425442 0.537592 0.233734 -0.013509
C213  C     C_R   0.500197 0.118312 0.000112 0.769147
C214  C     C_R   0.000197 0.618312 0.000112 0.769146
C215  C     C_3   0.735562 0.043243 0.274003 0.473940
C216  C     C_3   0.264693 0.044062 0.726183 0.475066
C217  C     C_3   0.235562 0.543243 0.274003 0.473940
C218  C     C_3   0.763661 0.957564 0.226322 0.091634
C219  C     C_3   0.764693 0.544062 0.726183 0.475067
C220  C     C_R   0.579933 0.000083 0.079811 0.783067
C221  C     C_R   0.420067 0.000073 0.920188 0.782841
C222  C     C_R   0.079933 0.500083 0.079811 0.783067
C223  C     C_R   0.920067 0.500073 0.920188 0.782841
C224  C     C_R   0.500016 0.881984 0.000055 0.778450
C225  C     C_R   0.000016 0.381984 0.000055 0.778450
C226  C     C_R   0.000063 0.119347 0.000023 1.012219
C227  C     C_R   0.500063 0.619347 0.000023 1.012219
C228  C     C_R   0.000026 0.999721 0.880951 0.917536
Cu1   Cu    Cu3+1 0.000000 0.061800 0.500000 0.944614
Cu2   Cu    Cu3+1 0.958560 0.999980 0.958600 1.021512
Cu3   Cu    Cu3+1 0.541440 0.499980 0.041400 1.028017
Cu4   Cu    Cu3+1 0.458560 0.499980 0.958600 1.021512
Cu5   Cu    Cu3+1 0.500000 0.561800 0.500000 0.944614
Cu6   Cu    Cu3+1 1.000000 0.938210 0.500000 0.957164
Cu7   Cu    Cu3+1 0.500000 0.438210 0.500000 0.957164
Cu8   Cu    Cu3+1 0.500000 0.000140 0.061760 0.969051
Cu9   Cu    Cu3+1 0.500000 0.000140 0.938240 0.967230
Cu10  Cu    Cu3+1 1.000000 0.500140 0.061760 0.969051
Cu11  Cu    Cu3+1 0.000000 0.500140 0.938240 0.967230
Cu12  Cu    Cu3+1 0.041440 0.999980 0.041400 1.028017
H1    H     H_    0.570066 0.136069 0.021007 0.182216
H2    H     H_    0.577619 0.863625 0.097102 0.160293
H3    H     H_    0.886121 0.905499 0.018936 0.182746
H4    H     H_    0.903164 0.940606 0.967475 0.187505
H5    H     H_    0.877692 0.868945 0.936635 0.093300
H6    H     H_    0.612776 0.402210 0.975630 0.188907
H7    H     H_    0.621071 0.365080 0.057337 0.115694
H8    H     H_    0.598688 0.439274 0.030617 0.182813
H9    H     H_    0.386120 0.405499 0.018935 0.182745
H10   H     H_    0.403165 0.440606 0.967475 0.187505
H11   H     H_    0.377692 0.368946 0.936634 0.093299
H12   H     H_    0.778860 0.117951 0.375308 0.150663
H13   H     H_    0.922432 0.362701 0.903021 0.159828
H14   H     H_    0.749383 0.080835 0.406769 0.190136
H15   H     H_    0.736696 0.156853 0.370167 0.179808
H16   H     H_    0.221852 0.119050 0.625225 0.150689
H17   H     H_    0.251080 0.081913 0.593576 0.190616
H18   H     H_    0.264254 0.157844 0.630503 0.179243
H19   H     H_    0.278860 0.617951 0.375307 0.150663
H20   H     H_    0.249384 0.580836 0.406769 0.190137
H21   H     H_    0.236696 0.656854 0.370167 0.179809
H22   H     H_    0.721852 0.619050 0.625225 0.150689
H23   H     H_    0.751080 0.581913 0.593576 0.190616
H24   H     H_    0.077619 0.363625 0.097102 0.160293
H25   H     H_    0.764254 0.657844 0.630503 0.179243
H26   H     H_    0.863759 0.252839 0.689616 0.147654
H27   H     H_    0.818605 0.256860 0.695885 0.172138
H28   H     H_    0.824333 0.194433 0.649799 0.194240
H29   H     H_    0.137013 0.253580 0.310293 0.147484
H30   H     H_    0.181998 0.258334 0.303549 0.171934
H31   H     H_    0.176474 0.195599 0.349804 0.194269
H32   H     H_    0.363759 0.752839 0.689616 0.147655
H33   H     H_    0.318605 0.756860 0.695885 0.172138
H34   H     H_    0.324332 0.694433 0.649799 0.194240
H35   H     H_    0.724247 0.898105 0.257847 0.168450
H36   H     H_    0.637013 0.753580 0.310293 0.147484
H37   H     H_    0.681998 0.758334 0.303549 0.171934
H38   H     H_    0.676474 0.695599 0.349804 0.194269
H39   H     H_    0.961124 0.113022 0.779152 0.187687
H40   H     H_    0.950371 0.192926 0.775276 0.106410
H41   H     H_    0.908040 0.136577 0.731726 0.206503
H42   H     H_    0.039602 0.112719 0.221017 0.186337
H43   H     H_    0.050320 0.192752 0.224846 0.106494
H44   H     H_    0.092676 0.136856 0.268304 0.206229
H45   H     H_    0.461124 0.613022 0.779152 0.187687
H46   H     H_    0.275151 0.898877 0.741742 0.168845
H47   H     H_    0.450371 0.692926 0.775276 0.106410
H48   H     H_    0.408039 0.636577 0.731726 0.206503
H49   H     H_    0.550320 0.692752 0.224846 0.106494
H50   H     H_    0.592676 0.636856 0.268304 0.206229
H51   H     H_    0.539602 0.612719 0.221017 0.186337
H52   H     H_    0.753505 0.888204 0.156645 0.233768
H53   H     H_    0.796142 0.879507 0.242857 0.223727
H54   H     H_    0.245860 0.888843 0.842943 0.235243
H55   H     H_    0.203161 0.880347 0.756708 0.222270
H56   H     H_    0.253505 0.388204 0.156645 0.233768
H57   H     H_    0.224247 0.398105 0.257848 0.168449
H58   H     H_    0.296142 0.379507 0.242858 0.223727
H59   H     H_    0.745860 0.388843 0.842943 0.235243
H60   H     H_    0.703161 0.380347 0.756708 0.222270
H61   H     H_    0.779105 0.012550 0.127681 0.202484
H62   H     H_    0.756806 0.089412 0.107128 0.181443
H63   H     H_    0.738036 0.033636 0.035565 0.180084
H64   H     H_    0.221014 0.013334 0.872442 0.203643
H65   H     H_    0.243866 0.090078 0.893362 0.177466
H66   H     H_    0.262247 0.034125 0.964649 0.180782
H67   H     H_    0.279105 0.512549 0.127681 0.202483
H68   H     H_    0.775151 0.398877 0.741742 0.168845
H69   H     H_    0.256806 0.589412 0.107128 0.181443
H70   H     H_    0.238036 0.533636 0.035565 0.180083
H71   H     H_    0.721014 0.513334 0.872442 0.203644
H72   H     H_    0.743866 0.590078 0.893362 0.177467
H73   H     H_    0.762247 0.534124 0.964649 0.180783
H74   H     H_    0.752545 0.145113 0.215826 0.244923
H75   H     H_    0.799560 0.131161 0.294114 0.220085
H76   H     H_    0.248305 0.145843 0.784816 0.241708
H77   H     H_    0.201214 0.132100 0.706448 0.219685
H78   H     H_    0.252545 0.645113 0.215825 0.244923
H79   H     H_    0.753173 0.964458 0.397178 0.229809
H80   H     H_    0.299560 0.631161 0.294114 0.220085
H81   H     H_    0.748305 0.645843 0.784816 0.241708
H82   H     H_    0.701214 0.632100 0.706448 0.219685
H83   H     H_    0.175789 0.148953 0.838732 0.181686
H84   H     H_    0.154096 0.095072 0.765247 0.208663
H85   H     H_    0.120310 0.148581 0.771316 0.140811
H86   H     H_    0.824780 0.149293 0.161284 0.184337
H87   H     H_    0.846398 0.095633 0.234966 0.208379
H88   H     H_    0.880277 0.149151 0.228544 0.140787
H89   H     H_    0.675789 0.648953 0.838732 0.181687
H90   H     H_    0.797147 0.935928 0.410907 0.254262
H91   H     H_    0.654096 0.595072 0.765247 0.208663
H92   H     H_    0.620310 0.648581 0.771316 0.140811
H93   H     H_    0.324781 0.649293 0.161284 0.184337
H94   H     H_    0.346398 0.595633 0.234967 0.208378
H95   H     H_    0.380277 0.649151 0.228544 0.140787
H96   H     H_    0.888351 0.009248 0.531734 0.245805
H97   H     H_    0.906727 0.947851 0.512312 0.243998
H98   H     H_    0.111776 0.009604 0.467905 0.245703
H99   H     H_    0.093266 0.948188 0.487520 0.244403
H100  H     H_    0.388351 0.509248 0.531734 0.245805
H101  H     H_    0.246604 0.965432 0.602693 0.230054
H102  H     H_    0.406727 0.447851 0.512312 0.243999
H103  H     H_    0.611776 0.509604 0.467905 0.245703
H104  H     H_    0.593266 0.448188 0.487520 0.244403
H105  H     H_    0.861097 0.805673 0.550716 0.192961
H106  H     H_    0.897048 0.841514 0.532706 0.136284
H107  H     H_    0.841704 0.844645 0.465803 0.173075
H108  H     H_    0.138365 0.806232 0.448684 0.192584
H109  H     H_    0.102722 0.841951 0.467163 0.138058
H110  H     H_    0.158123 0.845344 0.533613 0.172096
H111  H     H_    0.361097 0.305673 0.550716 0.192961
H112  H     H_    0.430072 0.133330 0.976950 0.189820
H113  H     H_    0.202408 0.937142 0.588785 0.253931
H114  H     H_    0.397049 0.341514 0.532706 0.136284
H115  H     H_    0.341704 0.344645 0.465802 0.173076
H116  H     H_    0.638365 0.306232 0.448684 0.192585
H117  H     H_    0.602722 0.341950 0.467163 0.138059
H118  H     H_    0.658122 0.345344 0.533612 0.172097
H119  H     H_    0.253173 0.464458 0.397178 0.229809
H120  H     H_    0.297147 0.435929 0.410907 0.254262
H121  H     H_    0.746604 0.465432 0.602693 0.230054
H122  H     H_    0.702408 0.437142 0.588785 0.253931
H123  H     H_    0.920587 0.780664 0.761824 0.199943
H124  H     H_    0.919755 0.781578 0.678121 0.119699
H125  H     H_    0.875212 0.755695 0.676176 0.181342
H126  H     H_    0.078243 0.780593 0.237644 0.202110
H127  H     H_    0.079323 0.781756 0.321589 0.126177
H128  H     H_    0.070066 0.636069 0.021006 0.182217
H129  H     H_    0.123702 0.756054 0.323253 0.178715
H130  H     H_    0.420587 0.280664 0.761824 0.199942
H131  H     H_    0.419755 0.281579 0.678121 0.119698
H132  H     H_    0.375212 0.255695 0.676176 0.181342
H133  H     H_    0.578243 0.280593 0.237644 0.202110
H134  H     H_    0.579323 0.281755 0.321589 0.126178
H135  H     H_    0.623702 0.256054 0.323253 0.178715
H136  H     H_    0.936117 0.897428 0.833932 0.273468
H137  H     H_    0.987306 0.887277 0.860876 0.243422
H138  H     H_    0.062127 0.896261 0.164760 0.269357
H139  H     H_    0.930072 0.633330 0.976951 0.189821
H140  H     H_    0.010983 0.887082 0.138655 0.250377
H141  H     H_    0.436117 0.397428 0.833931 0.273469
H142  H     H_    0.487306 0.387277 0.860876 0.243422
H143  H     H_    0.562127 0.396261 0.164760 0.269357
H144  H     H_    0.510983 0.387082 0.138655 0.250376
H145  H     H_    0.019689 0.191562 0.899651 0.177825
H146  H     H_    0.042990 0.186654 0.849900 0.106329
H147  H     H_    0.075093 0.189976 0.950780 0.205137
H148  H     H_    0.981122 0.191813 0.100828 0.177568
H149  H     H_    0.957400 0.186891 0.149850 0.106068
H150  H     H_    0.637367 0.809997 0.196049 0.164507
H151  H     H_    0.925674 0.190161 0.048988 0.205200
H152  H     H_    0.519689 0.691562 0.899651 0.177824
H153  H     H_    0.542990 0.686653 0.849900 0.106329
H154  H     H_    0.575093 0.689976 0.950780 0.205137
H155  H     H_    0.481122 0.691813 0.100828 0.177568
H156  H     H_    0.457400 0.686891 0.149850 0.106068
H157  H     H_    0.425674 0.690161 0.048987 0.205200
H158  H     H_    0.119083 0.195604 0.880079 0.112124
H159  H     H_    0.172102 0.165841 0.942379 0.201783
H160  H     H_    0.147395 0.207074 0.977590 0.165721
H161  H     H_    0.362891 0.808558 0.803703 0.164426
H162  H     H_    0.881614 0.195809 0.119684 0.112360
H163  H     H_    0.828483 0.165948 0.057474 0.203080
H164  H     H_    0.853333 0.207080 0.022150 0.166115
H165  H     H_    0.619083 0.695603 0.880079 0.112123
H166  H     H_    0.672102 0.665841 0.942379 0.201782
H167  H     H_    0.647395 0.707074 0.977590 0.165721
H168  H     H_    0.381614 0.695809 0.119684 0.112360
H169  H     H_    0.328483 0.665948 0.057474 0.203081
H170  H     H_    0.353333 0.707080 0.022150 0.166115
H171  H     H_    0.090775 0.049367 0.695937 0.227934
H172  H     H_    0.137367 0.309997 0.196049 0.164507
H173  H     H_    0.112555 0.986441 0.750274 0.254340
H174  H     H_    0.909544 0.050110 0.304324 0.226227
H175  H     H_    0.887440 0.987099 0.250093 0.257356
H176  H     H_    0.590775 0.549367 0.695937 0.227934
H177  H     H_    0.612555 0.486441 0.750274 0.254339
H178  H     H_    0.409544 0.550110 0.304324 0.226227
H179  H     H_    0.387440 0.487099 0.250093 0.257356
H180  H     H_    0.383844 0.171386 0.061755 0.253292
H181  H     H_    0.349374 0.174671 0.967935 0.224223
H182  H     H_    0.635222 0.195426 0.965982 0.263674
H183  H     H_    0.862891 0.308558 0.803703 0.164427
H184  H     H_    0.641378 0.157902 0.037914 0.228144
H185  H     H_    0.883845 0.671386 0.061758 0.253291
H186  H     H_    0.849375 0.674671 0.967938 0.224222
H187  H     H_    0.135221 0.695426 0.965981 0.263674
H188  H     H_    0.141378 0.657902 0.037913 0.228145
H189  H     H_    0.049227 0.831897 0.839688 0.189572
H190  H     H_    0.060922 0.753073 0.829457 0.159788
H191  H     H_    0.091526 0.815657 0.830927 0.192225
H192  H     H_    0.835765 0.786503 0.943554 0.135484
H193  H     H_    0.833416 0.835447 0.006471 0.189924
H194  H     H_    0.422432 0.862701 0.903021 0.159828
H195  H     H_    0.832291 0.754785 0.016713 0.182244
H196  H     H_    0.549228 0.331897 0.839688 0.189573
H197  H     H_    0.560922 0.253073 0.829458 0.159787
H198  H     H_    0.591526 0.315655 0.830927 0.192225
H199  H     H_    0.335765 0.286503 0.943551 0.135485
H200  H     H_    0.333415 0.335447 0.006468 0.189923
H201  H     H_    0.332290 0.254785 0.016709 0.182244
H202  H     H_    0.112778 0.902207 0.975633 0.188910
H203  H     H_    0.121070 0.865081 0.057341 0.115693
H204  H     H_    0.098688 0.939275 0.030616 0.182815
N1    N     N_3   0.779001 0.975486 0.395800 -0.572016
N2    N     N_3   0.914958 0.012880 0.281354 -0.570472
N3    N     N_3   0.585157 0.512211 0.718908 -0.574896
N4    N     N_3   0.414957 0.512880 0.281354 -0.570472
N5    N     N_3   0.380192 0.165172 0.011243 -0.556946
N6    N     N_3   0.619047 0.171081 0.983442 -0.554752
N7    N     N_3   0.880192 0.665172 0.011246 -0.556947
N8    N     N_3   0.119046 0.671081 0.983441 -0.554753
N9    N     N_3   0.779419 0.911311 0.200315 -0.580948
N10   N     N_3   0.220080 0.912058 0.799372 -0.581356
N11   N     N_3   0.279419 0.411310 0.200316 -0.580948
N12   N     N_3   0.220852 0.976584 0.604111 -0.572327
N13   N     N_3   0.720080 0.412058 0.799372 -0.581356
N14   N     N_3   0.778089 0.115364 0.240500 -0.622445
N15   N     N_3   0.222584 0.116170 0.759993 -0.624886
N16   N     N_3   0.278089 0.615364 0.240500 -0.622445
N17   N     N_3   0.722584 0.616170 0.759993 -0.624886
N18   N     N_3   0.915195 0.983346 0.549993 -0.577311
N19   N     N_3   0.084857 0.983656 0.449796 -0.578679
N20   N     N_3   0.415195 0.483346 0.549993 -0.577311
N21   N     N_3   0.584857 0.483656 0.449796 -0.578679
N22   N     N_3   0.279001 0.475486 0.395800 -0.572016
N23   N     N_3   0.720852 0.476584 0.604111 -0.572328
N24   N     N_3   0.955864 0.882449 0.818939 -0.589793
N25   N     N_3   0.042471 0.881906 0.180325 -0.580402
N26   N     N_3   0.455863 0.382450 0.818938 -0.589792
N27   N     N_3   0.542471 0.381906 0.180325 -0.580402
N28   N     N_3   0.085157 0.012211 0.718908 -0.574896
O1    O     O_R   0.000000 0.052190 0.590160 -0.588105
O2    O     O_R   0.034990 0.000000 0.125200 -0.589715
O3    O     O_R   0.465010 0.500000 0.874800 -0.589015
O4    O     O_R   0.534990 0.500000 0.125200 -0.589715
O5    O     O_R   0.034990 0.909820 0.034880 -0.590321
O6    O     O_R   0.965010 0.909820 0.965120 -0.599468
O7    O     O_R   0.534990 0.409820 0.034880 -0.590321
O8    O     O_R   0.465010 0.409820 0.965120 -0.599468
O9    O     O_R   0.000010 0.947820 0.590100 -0.584417
O10   O     O_R   0.999990 0.947820 0.409900 -0.577544
O11   O     O_R   0.500010 0.447820 0.590100 -0.584417
O12   O     O_R   0.000000 0.052190 0.409840 -0.590334
O13   O     O_R   0.499990 0.447820 0.409900 -0.577544
O14   O     O_R   0.939540 0.052180 0.439540 -0.587669
O15   O     O_R   0.060460 0.052180 0.560460 -0.587496
O16   O     O_R   0.439540 0.552180 0.439540 -0.587669
O17   O     O_R   0.560460 0.552180 0.560460 -0.587496
O18   O     O_R   0.939550 0.947820 0.439470 -0.580411
O19   O     O_R   0.060450 0.947820 0.560530 -0.582681
O20   O     O_R   0.439550 0.447820 0.439470 -0.580411
O21   O     O_R   0.560450 0.447820 0.560530 -0.582681
O22   O     O_R   0.500000 0.090290 0.052120 -0.580320
O23   O     O_R   0.500000 0.552190 0.590160 -0.588105
O24   O     O_R   0.500000 0.090290 0.947880 -0.580635
O25   O     O_R   0.000000 0.590290 0.052120 -0.580320
O26   O     O_R   0.000000 0.590290 0.947880 -0.580635
O27   O     O_R   0.560470 0.000120 0.112600 -0.577895
O28   O     O_R   0.439530 0.000120 0.887400 -0.579020
O29   O     O_R   0.060470 0.500120 0.112600 -0.577895
O30   O     O_R   0.939530 0.500120 0.887400 -0.579020
O31   O     O_R   0.560470 0.000020 0.008230 -0.572349
O32   O     O_R   0.439530 0.000020 0.991770 -0.571208
O33   O     O_R   0.060470 0.500020 0.008230 -0.572349
O34   O     O_R   0.500000 0.552190 0.409840 -0.590334
O35   O     O_R   0.939530 0.500020 0.991770 -0.571208
O36   O     O_R   0.500000 0.909980 0.052170 -0.584612
O37   O     O_R   0.500000 0.909980 0.947830 -0.584228
O38   O     O_R   0.000000 0.409980 0.052170 -0.584612
O39   O     O_R   0.000000 0.409980 0.947830 -0.584228
O40   O     O_R   0.035010 0.090130 0.035030 -0.527700
O41   O     O_R   0.964990 0.090130 0.964970 -0.528547
O42   O     O_R   0.535010 0.590130 0.035030 -0.527700
O43   O     O_R   0.464990 0.590130 0.964970 -0.528547
O44   O     O_3   0.883445 0.849018 0.686915 -0.543731
O45   O     O_R   0.035000 0.999980 0.944780 -0.553816
O46   O     O_3   0.115577 0.849306 0.312049 -0.546213
O47   O     O_3   0.383445 0.349018 0.686915 -0.543731
O48   O     O_3   0.615577 0.349306 0.312049 -0.546214
O49   O     O_3   0.044917 0.106725 0.907562 -0.548364
O50   O     O_3   0.955445 0.106939 0.092396 -0.548408
O51   O     O_3   0.544917 0.606725 0.907562 -0.548364
O52   O     O_3   0.455445 0.606939 0.092396 -0.548408
O53   O     O_3   0.126929 0.118537 0.946139 -0.536778
O54   O     O_3   0.873461 0.118598 0.053770 -0.538091
O55   O     O_3   0.626929 0.618537 0.946139 -0.536778
O56   O     O_R   0.965000 0.999980 0.055220 -0.558265
O57   O     O_3   0.373461 0.618598 0.053770 -0.538091
O58   O     O_3   0.103212 0.793870 0.931892 -0.594910
O59   O     O_3   0.890253 0.792350 0.053732 -0.553711
O60   O     O_3   0.603213 0.293870 0.931892 -0.594909
O61   O     O_3   0.390251 0.292350 0.053729 -0.553711
O62   O     O_3   0.058081 0.870496 0.962071 -0.604195
O63   O     O_3   0.939940 0.868348 0.034742 -0.584884
O64   O     O_3   0.558081 0.370496 0.962071 -0.604196
O65   O     O_3   0.439939 0.368348 0.034741 -0.584884
O66   O     O_3   0.717488 0.088653 0.293285 -0.577261
O67   O     O_R   0.535000 0.499980 0.944780 -0.553817
O68   O     O_3   0.283041 0.089480 0.707095 -0.576838
O69   O     O_3   0.217488 0.588653 0.293285 -0.577260
O70   O     O_3   0.783041 0.589480 0.707095 -0.576838
O71   O     O_3   0.863084 0.191218 0.762856 -0.556505
O72   O     O_3   0.137482 0.192321 0.236772 -0.556058
O73   O     O_3   0.363084 0.691218 0.762856 -0.556506
O74   O     O_3   0.637482 0.692321 0.236772 -0.556059
O75   O     O_3   0.942367 0.138178 0.846376 -0.551583
O76   O     O_3   0.058261 0.138372 0.153652 -0.550994
O77   O     O_3   0.442367 0.638178 0.846376 -0.551583
O78   O     O_R   0.465000 0.499980 0.055220 -0.558266
O79   O     O_3   0.558261 0.638372 0.153652 -0.550994
O80   O     O_3   0.718509 0.021226 0.104186 -0.584987
O81   O     O_3   0.281656 0.021713 0.895929 -0.582249
O82   O     O_3   0.218509 0.521226 0.104186 -0.584987
O83   O     O_3   0.781655 0.521713 0.895929 -0.582249
O84   O     O_3   0.146331 0.074711 0.848776 -0.563028
O85   O     O_3   0.853969 0.075051 0.151349 -0.563896
O86   O     O_3   0.646331 0.574711 0.848776 -0.563028
O87   O     O_3   0.353969 0.575051 0.151349 -0.563896
O88   O     O_3   0.862261 0.900694 0.555205 -0.553955
O89   O     O_R   0.965010 0.000000 0.874800 -0.589015
O90   O     O_3   0.137404 0.901245 0.443993 -0.554094
O91   O     O_3   0.362261 0.400694 0.555205 -0.553955
O92   O     O_3   0.637404 0.401245 0.443993 -0.554094

loop_
_geom_bond_atom_site_label_1
_geom_bond_atom_site_label_2
_ccdc_geom_bond_type
C147  N18   S    
C21   C26   A    
C63   C65   A    
C99   H133  S    
C126  O73   S    
C115  H203  S    
H96   N18   S    
C48   H161  S    
C79   C87   S    
C137  H84   S    
C76   C224  S    
C9    H112  S    
C183  C197  A    
C125  H31   S    
C94   C196  S    
C110  H195  S    
C84   N15   S    
C126  H32   S    
H58   N11   S    
C154  C158  A    
C72   C79   T    
C3    O2    A    
C111  H196  S    
Cu6   O19   S    
C28   C40   A    
C152  O11   A    
C62   C70   A    
C15   C17   A    
C174  C215  S    
C162  N26   S    
C223  O35   A    
C37   C42   A    
C129  H43   S    
C190  C212  A    
C13   N11   S    
C30   C215  S    
Cu10  Cu11  S    
C188  C210  A    
C116  O63   S    
C11   H139  S    
C50   C52   A    
C23   O64   S    
H53   N9    S    
C128  H39   S    
C114  O61   S    
C136  H72   S    
Cu7   O13   S    
C167  C180  A    
C198  O51   S    
C149  C154  A    
C35   H35   S    
C98   H131  S    
C152  O23   A    
C32   C57   S    
C114  H200  S    
H98   N19   S    
C25   C29   A    
C215  O66   S    
C46   H46   S    
Cu3   O4    S    
C84   C88   S    
C201  O54   S    
C164  C168  A    
C108  H170  S    
C130  H48   S    
C158  O47   S    
C118  H10   S    
Cu9   O24   S    
H102  N20   S    
C133  O81   S    
C122  H22   S    
C1    O1    A    
H79   N1    S    
Cu5   O17   S    
C173  C191  A    
C17   C21   A    
C64   C66   A    
C186  C190  A    
C19   C23   A    
C140  H95   S    
C41   C213  S    
H141  N26   S    
Cu12  O45   S    
C208  C212  A    
C66   C76   A    
C68   C207  S    
C100  H147  S    
Cu10  O25   S    
C178  C182  A    
C187  C191  A    
C134  H70   S    
C74   C101  T    
Cu8   O27   S    
Cu9   O37   S    
C63   C71   A    
C184  C198  A    
C132  H61   S    
C97   H127  S    
C133  H64   S    
C186  C199  A    
C100  O49   S    
C175  C192  A    
C169  O14   A    
C115  O62   S    
H173  N28   S    
C205  O85   S    
C89   C101  S    
C108  H168  S    
C70   C226  S    
C146  C207  S    
Cu4   O43   S    
C53   C58   A    
C136  H73   S    
C59   C63   A    
C185  C216  S    
C131  H51   S    
C13   C94   S    
C86   C91   S    
C140  H93   S    
C125  O72   S    
C218  N9    S    
C183  C188  A    
C172  O21   A    
C52   C56   A    
C45   C50   A    
Cu1   O12   S    
C211  N3    S    
C84   C93   S    
C127  H38   S    
C105  H159  S    
C122  H23   S    
Cu3   O42   S    
C51   H172  S    
C209  N28   S    
C86   C95   S    
C121  H20   S    
C168  C181  A    
C156  O44   S    
C30   C87   S    
C25   O65   S    
C120  H17   S    
C203  O57   S    
C134  O82   S    
C202  O55   S    
C116  H4    S    
C143  O91   S    
C32   N22   S    
C69   C77   A    
C19   O60   S    
C67   C77   A    
Cu2   O41   S    
H177  N3    S    
C96   H125  S    
H178  N4    S    
C196  C217  S    
C131  O79   S    
C139  H91   S    
C117  H6    S    
C94   O82   S    
C81   C222  S    
C80   C135  T    
C97   O46   S    
C140  O87   S    
C96   H123  S    
C73   C90   T    
C57   H57   S    
H186  N7    S    
C87   C218  S    
C13   C57   S    
C228  O89   A    
C1    O9    A    
C148  N19   S    
Cu1   Cu6   S    
Cu8   Cu9   S    
C149  N20   S    
C18   O59   S    
H100  N20   S    
C47   C69   A    
C145  C196  S    
H76   N15   S    
C2    N10   S    
C95   O83   S    
C123  H28   S    
C187  C209  A    
C163  O13   A    
C31   C46   S    
C138  H88   S    
C198  C202  A    
C9    C36   A    
C75   C113  T    
C221  O32   A    
C176  C193  A    
H142  N26   S    
C22   O63   S    
C104  H155  S    
C8    C12   A    
C126  H34   S    
Cu1   O15   S    
C5    O78   A    
C105  O53   S    
C7    O8    A    
C33   N23   S    
H113  N12   S    
Cu8   O22   S    
Cu11  O26   S    
C54   C59   A    
C33   C219  S    
C131  H49   S    
C155  C159  A    
C110  O59   S    
C222  O33   A    
C156  C160  A    
C102  O50   S    
C50   H183  S    
H180  N5    S    
C143  H114  S    
C163  C194  S    
C92   C174  S    
C49   C55   A    
C144  O92   S    
C51   C53   A    
C147  C151  A    
C49   H150  S    
C45   C67   A    
Cu10  O35   S    
Cu11  O33   S    
C61   C67   A    
C142  H109  S    
C200  C204  A    
C52   O71   S    
H54   N10   S    
C56   C61   A    
C8    C34   A    
C23   C28   A    
C74   C171  S    
C150  C177  A    
C216  O68   S    
C105  H158  S    
H55   N10   S    
C102  H148  S    
C212  N4    S    
C117  O64   S    
C150  C155  A    
C103  H153  S    
H60   N13   S    
C100  H146  S    
C60   O79   S    
C119  H14   S    
Cu1   O1    S    
C159  O48   S    
C106  H164  S    
C139  H89   S    
C117  H8    S    
C197  O50   S    
Cu12  O2    S    
C144  H116  S    
C18   C22   A    
C68   H68   S    
H176  N3    S    
H181  N5    S    
C12   C19   A    
C181  C186  A    
C137  H83   S    
H56   N11   S    
C47   H24   S    
C203  C208  A    
H138  N25   S    
C125  H30   S    
C188  C192  A    
C6    O5    A    
C58   O76   S    
C72   C169  S    
C226  O40   A    
C157  O46   S    
C73   C170  S    
H77   N15   S    
Cu7   O21   S    
C123  H26   S    
C93   O81   S    
C8    H1    S    
C138  H86   S    
C29   C40   A    
Cu5   O34   S    
C109  H189  S    
C171  O20   A    
C223  O30   A    
C122  O70   S    
C200  O53   S    
C160  N24   S    
C133  H66   S    
C112  O10   A    
C169  O18   A    
H144  N27   S    
C5    O4    A    
C150  N21   S    
C189  C193  A    
C20   O61   S    
C75   C172  S    
Cu2   O89   S    
C201  C205  A    
C159  C164  A    
C80   C221  S    
H184  N6    S    
C182  C195  A    
Cu3   O7    S    
C148  C153  A    
C135  C185  S    
C111  H198  S    
C33   C68   S    
C61   C70   A    
C58   C62   A    
C83   C87   S    
C35   C218  S    
C77   C225  S    
C97   H126  S    
C98   H132  S    
H120  N22   S    
C170  O15   A    
H185  N7    S    
C210  N2    S    
C166  C175  A    
C65   C76   A    
C153  O90   S    
C106  O54   S    
C118  H11   S    
C33   C91   S    
Cu11  O39   S    
C26   C39   A    
H81   N17   S    
C20   C25   A    
C27   C38   A    
C97   H129  S    
C168  C177  A    
Cu5   O16   S    
C144  H117  S    
C64   C71   A    
C161  N25   S    
C171  O16   A    
H99   N19   S    
C78   C220  S    
C12   N6    S    
C104  O52   S    
C59   O77   S    
C204  C209  A    
H59   N13   S    
C180  C184  A    
C109  H191  S    
Cu4   O3    S    
C217  O69   S    
H179  N4    S    
C110  H192  S    
C92   O80   S    
C106  H162  S    
C96   O44   S    
C214  O26   A    
C138  O85   S    
Cu5   O23   S    
Cu6   O9    S    
C28   C34   A    
C16   N7    S    
C132  H62   S    
C55   C60   A    
C99   H134  S    
C199  C203  A    
C115  H204  S    
H175  N2    S    
C36   C41   A    
C34   C41   A    
C4    C180  S    
H119  N22   S    
C5    C181  S    
C82   C146  T    
C137  H85   S    
H140  N25   S    
C2    C93   S    
C143  H111  S    
C177  C194  A    
C57   C196  S    
C44   H2    S    
C85   N16   S    
C14   C20   A    
C14   N5    S    
H52   N9    S    
Cu2   O6    S    
C24   C95   S    
H82   N17   S    
C85   C89   S    
C137  O84   S    
C47   C51   A    
C82   C223  S    
Cu6   O18   S    
H182  N6    S    
Cu4   O78   S    
C62   C69   A    
C221  O28   A    
C107  H165  S    
C141  O88   S    
C9    C14   A    
C43   H194  S    
C112  O12   A    
C112  C192  S    
C11   C16   A    
C32   C89   S    
C120  O68   S    
C43   C65   A    
C17   O58   S    
C154  O91   S    
C155  O92   S    
C92   C218  S    
C130  O77   S    
H78   N16   S    
C121  H19   S    
Cu11  O30   S    
C152  C193  S    
C136  H71   S    
Cu3   O67   S    
C88   C90   S    
C222  O29   A    
H188  N8    S    
C114  H199  S    
C157  C161  A    
C4    O67   A    
C30   N1    S    
C204  O84   S    
C102  H151  S    
C31   C88   S    
C227  O42   A    
C107  H166  S    
Cu4   O8    S    
C108  H169  S    
C129  O76   S    
C130  H47   S    
C118  H9    S    
C119  H15   S    
C99   O48   S    
C83   C215  S    
C147  C173  A    
C26   C37   A    
C151  O88   S    
Cu12  O5    S    
C109  O58   S    
C136  O83   S    
C149  C176  A    
C96   H124  S    
H143  N27   S    
H122  N23   S    
C226  O41   A    
C31   N12   S    
C119  O66   S    
C86   C219  S    
C46   C185  S    
C153  C157  A    
H171  N28   S    
C24   N13   S    
Cu12  O40   S    
C24   C68   S    
C134  H69   S    
C107  O55   S    
C123  H27   S    
C124  C174  S    
H74   N14   S    
C108  O57   S    
C115  H202  S    
C6    C39   S    
C53   O72   S    
C141  H105  S    
C184  C189  A    
C3    O56   A    
C104  H156  S    
C140  H94   S    
H97   N18   S    
C93   C185  S    
C44   C49   A    
H136  N24   S    
C103  H152  S    
Cu1   O14   S    
C129  H44   S    
C7    O7    A    
Cu2   Cu12  S    
C127  H36   S    
C225  O39   A    
C4    O3    A    
C121  O69   S    
C111  O60   S    
C2    C46   S    
C48   C54   A    
C83   C92   S    
C29   C36   A    
C123  O71   S    
C30   C35   S    
C10   C37   A    
C15   N8    S    
C205  C210  A    
C38   C42   A    
C10   C15   A    
H174  N2    S    
C165  C173  A    
Cu6   O10   S    
H137  N24   S    
C3    C179  S    
C219  O70   S    
C85   C217  S    
Cu9   O28   S    
C121  H21   S    
C206  C211  A    
C142  H110  S    
C163  O34   A    
C208  O87   S    
C27   C39   A    
C7    C40   S    
C2    C88   S    
C199  O52   S    
C78   C124  T    
C170  O19   A    
C178  C228  S    
C161  C166  A    
C86   N17   S    
C102  H149  S    
C164  N27   S    
C21   O62   S    
C165  C178  A    
H103  N21   S    
C56   O75   S    
C129  H42   S    
Cu2   O56   S    
C128  H41   S    
C105  H160  S    
C130  H45   S    
Cu10  O29   S    
C95   C207  S    
C60   C64   A    
C179  C183  A    
C139  H92   S    
C117  H7    S    
C195  O49   S    
C148  C175  A    
C224  O36   A    
C99   H135  S    
C189  C211  A    
C190  C194  A    
C104  H157  S    
C31   C216  S    
C160  C165  A    
C132  H63   S    
C127  H37   S    
C91   C113  S    
C55   O74   S    
C125  H29   S    
C6    O6    A    
C228  O45   A    
C120  H16   S    
C42   C214  S    
Cu7   O20   S    
C134  H67   S    
H90   N1    S    
C85   C94   S    
Cu8   O32   S    
H101  N12   S    
C213  O24   A    
C220  O31   A    
C138  H87   S    
C172  O17   A    
C141  H107  S    
C197  C201  A    
Cu5   Cu7   S    
C133  H65   S    
C44   C66   A    
C142  O90   S    
C114  H201  S    
C213  O22   A    
C126  H33   S    
Cu10  O38   S    
C81   C145  T    
H104  N21   S    
C214  O25   A    
C54   O73   S    
C141  H106  S    
C24   C91   S    
C1    C191  S    
C111  H197  S    
Cu9   O31   S    
C195  C200  A    
C43   C48   A    
C139  O86   S    
C131  H50   S    
C13   C89   S    
C109  H190  S    
C35   C174  S    
C71   C227  S    
C98   O47   S    
C128  O75   S    
C32   C217  S    
H187  N8    S    
C10   H128  S    
C84   C216  S    
C103  O51   S    
C207  C219  S    
H121  N23   S    
C227  O43   A    
C22   C27   A    
C107  H167  S    
C119  H12   S    
H75   N14   S    
C142  H108  S    
Cu8   O36   S    
C83   N14   S    
C120  H18   S    
C144  H118  S    
C128  H40   S    
C224  O37   A    
C127  O74   S    
C182  C187  A    
H80   N16   S    
C220  O27   A    
C116  H3    S    
C98   H130  S    
C158  C162  A    
C162  C167  A    
C151  C156  A    
C225  O38   A    
C116  H5    S    
C118  O65   S    
C16   C18   A    
C202  C206  A    
C103  H154  S    
C143  H115  S    
Cu3   Cu4   S    
C206  O86   S    
C100  H145  S    
C11   C38   A    
C166  C179  A    
C110  H193  S    
C106  H163  S    
C132  O80   S    
C122  H25   S    
C45   H13   S    
C167  C176  A    
Cu7   O11   S    
