data_mof_unit_34400.cif
_audit_creation_date              2012-12-11T15:39:26-0500
_audit_creation_method            fapswitch 2.2
_symmetry_space_group_name_H-M    P1
_symmetry_Int_Tables_number       1
_space_group_crystal_system       triclinic
_cell_length_a                    14.34191
_cell_length_b                    14.793474
_cell_length_c                    33.244832
_cell_angle_alpha                 97.68159
_cell_angle_beta                  90.261882
_cell_angle_gamma                 118.984411
_cell_volume                      6095.05135821

loop_
_atom_site_label
_atom_site_type_symbol
_atom_type_description
_atom_site_fract_x
_atom_site_fract_y
_atom_site_fract_z
_atom_type_partial_charge
C1    C     C_R   0.617043 0.910371 0.437046 0.543838
C2    C     C_R   0.712351 0.438010 0.949140 0.535987
C3    C     C_R   0.651151 0.800118 0.771859 -0.090008
C4    C     C_R   0.645917 0.823794 0.733165 -0.083011
C5    C     C_R   0.642775 0.756279 0.698635 0.065757
C6    C     C_R   0.638494 0.661268 0.703364 -0.068005
C7    C     C_R   0.643819 0.637459 0.742429 -0.093621
C8    C     C_R   0.652659 0.708278 0.776757 0.030841
C9    C     C_R   0.571748 0.720059 0.626166 -0.124706
C10   C     C_R   0.565195 0.756537 0.590221 -0.121328
C11   C     C_R   0.714806 0.926863 0.616648 -0.137126
C12   C     C_R   0.741577 0.717203 0.945488 0.555787
C13   C     C_R   0.825091 0.439198 0.165320 -0.134047
C14   C     C_R   0.827931 0.458552 0.125384 -0.124207
C15   C     C_R   0.756469 0.328206 0.242391 -0.098371
C16   C     C_R   0.751575 0.317737 0.283447 -0.106773
C17   C     C_R   0.723579 0.379920 0.310903 0.029949
C18   C     C_R   0.705586 0.456097 0.297081 -0.105211
C19   C     C_R   0.710894 0.466736 0.256050 -0.085923
C20   C     C_R   0.732926 0.400510 0.228412 0.044163
C21   C     C_R   0.730335 0.406717 0.184895 0.033448
C22   C     C_R   0.605821 0.343662 0.368111 -0.113476
C23   C     C_R   0.594122 0.205483 0.456601 0.544947
C24   C     C_R   0.573665 0.300681 0.403717 -0.125613
C25   C     C_R   0.737019 0.291173 0.410405 -0.124549
C26   C     C_R   0.768950 0.333886 0.374779 -0.122190
C27   C     C_R   0.701650 0.356568 0.352559 0.031532
C28   C     C_R   0.636996 0.270065 0.424213 0.021819
C29   C     C_R   0.245688 0.877841 0.393290 0.019998
C30   C     C_R   0.235203 0.959477 0.380267 -0.126953
C31   C     C_R   0.211560 0.956228 0.339117 -0.111283
C32   C     C_R   0.720554 0.890675 0.652692 -0.110648
C33   C     C_R   0.197560 0.871270 0.310591 0.038742
C34   C     C_R   0.201187 0.786775 0.323538 -0.113950
C35   C     C_R   0.295843 0.892792 0.434364 0.543009
C36   C     C_R   0.224868 0.789806 0.364660 -0.127417
C37   C     C_R   0.211947 0.826233 0.162122 -0.081101
C38   C     C_R   0.185229 0.806068 0.120092 0.089292
C39   C     C_R   0.067669 0.880829 0.131455 -0.129659
C40   C     C_R   0.094662 0.900417 0.173242 -0.108023
C41   C     C_R   0.163711 0.869662 0.188725 0.016257
C42   C     C_1   0.177113 0.873587 0.231859 -0.016496
C43   C     C_R   0.646830 0.788107 0.658225 0.037212
C44   C     C_1   0.185967 0.873304 0.267854 -0.019409
C45   C     C_R   0.108563 0.829196 0.104567 0.027394
C46   C     C_R   0.637814 0.880023 0.395466 0.020304
C47   C     C_R   0.613922 0.904770 0.551465 0.544205
C48   C     C_R   0.552558 0.804616 0.367834 -0.129187
C49   C     C_R   0.565673 0.795381 0.326209 -0.112387
C50   C     C_R   0.664035 0.860732 0.311968 0.037351
C51   C     C_R   0.751371 0.930381 0.339400 -0.115567
C52   C     C_R   0.738510 0.939870 0.381010 -0.124903
C53   C     C_R   0.752817 0.934910 0.171472 -0.084690
C54   C     C_R   0.634416 0.861285 0.585708 0.020815
C55   C     C_R   0.766237 0.921657 0.129627 0.251074
C56   C     C_R   0.635477 0.736782 0.125398 -0.155940
C57   C     C_R   0.621973 0.751712 0.166524 -0.122744
C58   C     C_R   0.683692 0.849381 0.189886 -0.015226
C59   C     C_R   0.589611 0.199284 0.570906 0.540815
C60   C     C_1   0.679144 0.858382 0.233091 -0.020591
C61   C     C_1   0.673354 0.860391 0.269162 -0.021910
C62   C     C_R   0.712043 0.819276 0.106659 0.001762
C63   C     C_R   0.623023 0.250096 0.613751 0.020453
C64   C     C_R   0.558816 0.282829 0.636180 -0.128009
C65   C     C_R   0.052875 0.781784 0.063564 0.560260
C66   C     C_R   0.575647 0.307767 0.678536 -0.117113
C67   C     C_R   0.656784 0.300485 0.698850 0.039760
C68   C     C_R   0.725636 0.275030 0.676664 -0.112099
C69   C     C_R   0.709242 0.250385 0.634299 -0.127609
C70   C     C_R   0.763034 0.347031 0.844736 -0.112515
C71   C     C_R   0.289520 0.887018 0.548666 0.545961
C72   C     C_R   0.772587 0.372635 0.887073 -0.123343
C73   C     C_R   0.593546 0.350519 0.884892 -0.124184
C74   C     C_R   0.584269 0.324975 0.842569 -0.113026
C75   C     C_R   0.670401 0.326919 0.822404 0.039571
C76   C     C_R   0.743678 0.486282 0.066018 0.546212
C77   C     C_1   0.666959 0.317079 0.778868 -0.028953
C78   C     C_1   0.663563 0.310532 0.742397 -0.030500
C79   C     C_R   0.689725 0.379309 0.907434 0.022678
C80   C     C_R   0.068155 0.754588 0.908381 0.026637
C81   C     C_R   0.092083 0.849295 0.895270 -0.131414
C82   C     C_R   0.111465 0.861478 0.854901 -0.123624
C83   C     C_R   0.735840 0.445770 0.104591 -0.000958
C84   C     C_R   0.107589 0.779322 0.827174 0.035580
C85   C     C_R   0.092271 0.687867 0.840955 -0.112804
C86   C     C_R   0.072816 0.675588 0.881393 -0.119068
C87   C     C_R   0.742244 0.789516 0.066375 0.577158
C88   C     C_R   0.173919 0.754208 0.759941 -0.129645
C89   C     C_R   0.177841 0.761692 0.718741 -0.170026
C90   C     C_R   0.119157 0.800633 0.700437 0.012735
C91   C     C_R   0.052957 0.829496 0.723647 0.288351
C92   C     C_R   0.050339 0.822382 0.765163 -0.093949
C93   C     C_R   0.111578 0.786139 0.783524 -0.019426
C94   C     C_R   0.192873 0.923117 0.650682 -0.068911
C95   C     C_R   0.639193 0.406039 0.123296 -0.095423
C96   C     C_R   0.234307 0.944389 0.613246 -0.130854
C97   C     C_R   0.164469 0.758709 0.590482 -0.128210
C98   C     C_R   0.021549 0.732150 0.947381 0.537868
C99   C     C_R   0.121489 0.737431 0.627757 -0.099091
C100  C     C_R   0.138648 0.819860 0.658428 0.084324
C101  C     C_R   0.224582 0.862650 0.583608 0.017421
C102  C     C_R   0.718198 0.704352 0.901217 0.018830
C103  C     C_R   0.620027 0.626382 0.880816 -0.120206
C104  C     C_R   0.599587 0.622537 0.839149 -0.121807
C105  C     C_R   0.677510 0.695907 0.817803 0.025533
C106  C     C_R   0.777580 0.768633 0.837560 -0.109522
C107  C     C_R   0.635773 0.386101 0.163211 0.099125
C108  C     C_R   0.797955 0.772449 0.878754 -0.123757
Cr1   Cr    Cr6+3 0.424820 0.846020 0.489780 1.011793
Cr2   Cr    Cr6+3 0.657880 0.078580 0.505700 1.013257
Cr3   Cr    Cr6+3 0.417280 0.075360 0.504550 1.014835
Cr4   Cr    Cr6+3 0.903360 0.812540 0.006510 1.081710
Cr5   Cr    Cr6+3 0.914630 0.587050 0.006280 1.043153
Cr6   Cr    Cr6+3 0.673560 0.582680 0.008540 1.031164
H1    H     H_    0.566899 0.393783 0.107444 0.159438
H2    H     H_    0.007699 0.898227 0.120628 0.173371
H3    H     H_    0.903559 0.488992 0.111669 0.151236
H4    H     H_    0.208431 0.021803 0.329373 0.115944
H5    H     H_    0.797853 0.011248 0.189941 0.164061
H6    H     H_    0.828020 0.980549 0.328535 0.110726
H7    H     H_    0.805693 0.998430 0.401577 0.127860
H8    H     H_    0.473967 0.757860 0.377990 0.127868
H9    H     H_    0.566912 0.685462 0.180515 0.139440
H10   H     H_    0.590074 0.657926 0.108987 0.158907
H11   H     H_    0.497876 0.740706 0.305038 0.115990
H12   H     H_    0.496454 0.285781 0.413766 0.128150
H13   H     H_    0.847817 0.394644 0.903439 0.131937
H14   H     H_    0.843905 0.344693 0.363555 0.105606
H15   H     H_    0.829979 0.348327 0.829318 0.111686
H16   H     H_    0.788876 0.269538 0.692197 0.112815
H17   H     H_    0.759982 0.225312 0.617978 0.127660
H18   H     H_    0.491909 0.283531 0.621285 0.127459
H19   H     H_    0.512082 0.309133 0.825454 0.111004
H20   H     H_    0.528401 0.355221 0.899533 0.131948
H21   H     H_    0.522320 0.327988 0.695539 0.106519
H22   H     H_    0.089976 0.911771 0.915632 0.128652
H23   H     H_    0.898035 0.454291 0.181624 0.123443
H24   H     H_    0.054179 0.601603 0.890714 0.129709
H25   H     H_    0.080719 0.657405 0.633640 0.115891
H26   H     H_    0.764486 0.257546 0.293347 0.112915
H27   H     H_    0.229753 0.740281 0.701286 0.118808
H28   H     H_    0.221697 0.726072 0.773606 0.121307
H29   H     H_    0.125448 0.933536 0.844955 0.114025
H30   H     H_    0.999742 0.844205 0.783262 0.139628
H31   H     H_    0.210223 0.987740 0.674584 0.151112
H32   H     H_    0.281300 0.025266 0.608828 0.131775
H33   H     H_    0.088829 0.623481 0.819962 0.108294
H34   H     H_    0.788191 0.269553 0.425864 0.127016
H35   H     H_    0.155687 0.694488 0.567931 0.126697
H36   H     H_    0.558192 0.571143 0.897205 0.131439
H37   H     H_    0.774659 0.277458 0.221303 0.139736
H38   H     H_    0.875498 0.831125 0.893361 0.131782
H39   H     H_    0.780402 0.943960 0.676888 0.163568
H40   H     H_    0.646919 0.896298 0.730204 0.103213
H41   H     H_    0.657951 0.855392 0.798179 0.117044
H42   H     H_    0.521866 0.565894 0.824089 0.108551
H43   H     H_    0.635733 0.608041 0.677037 0.116811
H44   H     H_    0.645930 0.566682 0.745903 0.111317
H45   H     H_    0.267028 0.804066 0.174130 0.139185
H46   H     H_    0.514294 0.640705 0.629808 0.101375
H47   H     H_    0.502855 0.704025 0.566685 0.123762
H48   H     H_    0.838578 0.825385 0.821348 0.136351
H49   H     H_    0.769308 0.007764 0.614008 0.132167
H50   H     H_    0.684920 0.505430 0.317830 0.109154
H51   H     H_    0.694957 0.524578 0.245580 0.127602
H52   H     H_    0.552258 0.359995 0.351294 0.117045
H53   H     H_    0.906956 0.200995 0.123600 0.373123
H54   H     H_    0.894842 0.841490 0.641348 0.365226
H55   H     H_    0.189988 0.720427 0.301640 0.112620
H56   H     H_    0.232724 0.725902 0.373601 0.126283
H57   H     H_    0.251040 0.028522 0.401467 0.126629
H58   H     H_    0.057015 0.934230 0.193604 0.131893
I1    I     I_    0.262082 0.738823 0.082488 -0.322270
I2    I     I_    0.485478 0.325024 0.188679 -0.379419
O1    O     O_R   0.318160 0.824460 0.443680 -0.521434
O2    O     O_R   0.668160 0.499860 0.053480 -0.515528
O3    O     O_R   0.689170 0.693840 0.050110 -0.509804
O4    O     O_R   0.525040 0.857250 0.449830 -0.503363
O5    O     O_R   0.803860 0.812940 0.962540 -0.491910
O6    O     O_R   0.982950 0.787950 0.964120 -0.526616
O7    O     O_R   0.007050 0.649970 0.960540 -0.507775
O8    O     O_R   0.807910 0.482370 0.965590 -0.502006
O9    O     O_R   0.643310 0.460980 0.963840 -0.522594
O10   O     O_R   0.666140 0.657800 0.967020 -0.492002
O11   O     O_3   0.830520 0.660760 0.007110 -0.284853
O12   O     O_R   0.645130 0.163230 0.552140 -0.502731
O13   O     O_R   0.684760 0.998800 0.456360 -0.517402
O14   O     O_R   0.647540 0.166310 0.470260 -0.501709
O15   O     O_R   0.500960 0.181750 0.467450 -0.518976
O16   O     O_R   0.331100 0.981120 0.457080 -0.500240
O17   O     O_R   0.315560 0.821140 0.532010 -0.516949
O18   O     O_R   0.522630 0.854180 0.531710 -0.500769
O19   O     O_R   0.682160 0.995480 0.544690 -0.517842
O20   O     O_2   0.957505 0.044707 0.103968 -0.280822
O21   O     O_2   0.799978 0.026961 0.066599 -0.244676
O22   O     O_3   0.861466 0.141810 0.137963 -0.541964
O23   O     O_R   0.498360 0.178430 0.555780 -0.519521
O24   O     O_2   0.882666 0.858957 0.728642 -0.307312
O25   O     O_2   0.036545 0.984711 0.697359 -0.323898
O26   O     O_3   0.916916 0.799489 0.655644 -0.522595
O27   O     O_R   0.328690 0.978040 0.538950 -0.500259
O28   O     O_3   0.499990 0.999990 0.500010 -0.235800
O29   O     O_R   0.828710 0.851830 0.052170 -0.425799
O30   O     O_R   0.005980 0.823990 0.047210 -0.494140
O31   O     O_R   0.031900 0.688850 0.050170 -0.480010
O32   O     O_R   0.830940 0.518420 0.048680 -0.494179
S1    S     S_3+6 0.848738 0.034823 0.107931 0.022665
S2    S     S_3+6 0.970590 0.871321 0.701728 -0.028643

loop_
_geom_bond_atom_site_label_1
_geom_bond_atom_site_label_2
_ccdc_geom_bond_type
C4    H40   S    
C55   C62   A    
C52   H7    S    
C73   C74   A    
C53   C55   A    
C19   C20   A    
C40   H58   S    
C8    C105  S    
Cr3   O27   S    
C15   H37   S    
C81   C82   A    
C90   C91   A    
C7    C8    A    
C7    H44   S    
C12   O10   A    
C77   C78   T    
C25   C28   A    
O20   S1    D    
C29   C36   A    
Cr2   O14   S    
C26   C27   A    
C37   C38   A    
Cr6   O11   S    
C56   H10   S    
C22   C24   A    
Cr1   O28   S    
Cr1   O17   S    
C72   C79   A    
C39   C40   A    
C2    O8    A    
C30   C31   A    
C80   C81   A    
C89   H27   S    
C1    C46   S    
C65   O31   A    
Cr1   O18   S    
C58   C60   S    
C15   C16   A    
C74   H19   S    
C46   C52   A    
C56   C57   A    
Cr3   O28   S    
C59   O12   A    
C17   C18   A    
C18   C19   A    
C41   C42   S    
C88   H28   S    
C47   O18   A    
C73   H20   S    
C92   C93   A    
C38   C45   A    
C80   C86   A    
C2    C79   S    
C103  C104  A    
C103  H36   S    
C108  H38   S    
C18   H50   S    
Cr1   O4    S    
Cr5   O7    S    
C63   C69   A    
C95   H1    S    
C68   C69   A    
Cr5   O31   S    
C31   C33   A    
C102  C108  A    
C32   H39   S    
C9    C10   A    
C91   C92   A    
Cr4   O6    S    
Cr6   O3    S    
C94   H31   S    
Cr6   O2    S    
C66   C67   A    
C71   C101  S    
Cr5   O11   S    
O26   S2    S    
C13   C14   A    
C24   H12   S    
C99   H25   S    
C16   H26   S    
C67   C78   S    
C42   C44   T    
C14   C83   A    
C10   C54   A    
C76   C83   S    
C90   C100  S    
C104  C105  A    
C97   C99   A    
C76   O32   A    
C91   S2    S    
C1    O13   A    
C15   C20   A    
C46   C48   A    
Cr2   O13   S    
C9    C43   A    
C85   H33   S    
C74   C75   A    
C72   H13   S    
O24   S2    D    
C67   C68   A    
C17   C27   S    
C64   H18   S    
C76   O2    A    
C84   C85   A    
C3    C8    A    
Cr4   O11   S    
C82   H29   S    
C38   I1    S    
C9    H46   S    
C50   C51   A    
C25   C26   A    
C85   C86   A    
C70   H15   S    
C104  H42   S    
C51   C52   A    
C60   C61   T    
C13   H23   S    
C94   C96   A    
C31   H4    S    
C12   C102  S    
C29   C30   A    
C57   H9    S    
C1    O4    A    
Cr5   O8    S    
C94   C100  A    
C69   H17   S    
C14   H3    S    
C83   C95   A    
Cr2   O19   S    
C11   H49   S    
C51   H6    S    
C73   C79   A    
C13   C21   A    
C26   H14   S    
C23   C28   S    
C20   C21   S    
C68   H16   S    
C75   C77   S    
Cr2   O12   S    
C21   C107  A    
C34   H55   S    
C95   C107  A    
C47   C54   S    
C23   O14   A    
C11   C54   A    
C40   C41   A    
C11   C32   A    
Cr3   O15   S    
C10   H47   S    
C82   C84   A    
C22   C27   A    
Cr4   O5    S    
C45   C65   S    
C56   C62   A    
C3    H41   S    
Cr4   O30   S    
C98   O6    A    
C3    C4    A    
C23   O15   A    
C6    H43   S    
C87   O3    A    
C81   H22   S    
C105  C106  A    
C71   O27   A    
C88   C93   A    
C48   C49   A    
H54   O26   S    
C80   C98   S    
C33   C44   S    
C59   C63   S    
C47   O19   A    
C24   C28   A    
C4    C5    A    
C53   C58   A    
C53   H5    S    
C6    C7    A    
C107  I2    S    
C35   O16   A    
C49   H11   S    
C62   C87   S    
C29   C35   S    
C36   H56   S    
C84   C93   S    
C87   O29   A    
C99   C100  A    
C39   C45   A    
Cr2   O28   S    
C35   O1    A    
Cr5   O32   S    
C37   H45   S    
C98   O7    A    
C55   S1    S    
Cr1   O1    S    
Cr3   O23   S    
C48   H8    S    
C57   C58   A    
C5    C6    A    
C65   O30   A    
C106  C108  A    
C59   O23   A    
Cr6   O10   S    
C63   C64   A    
O25   S2    D    
C32   C43   A    
C33   C34   A    
C25   H34   S    
C34   C36   A    
C2    O9    A    
C106  H48   S    
O22   S1    S    
C37   C41   A    
C102  C103  A    
C92   H30   S    
C30   H57   S    
C86   H24   S    
C66   H21   S    
C22   H52   S    
H53   O22   S    
C12   O5    A    
O21   S1    D    
C88   C89   A    
C70   C75   A    
Cr3   O16   S    
C49   C50   A    
C96   H32   S    
C39   H2    S    
C50   C61   S    
C97   H35   S    
C5    C43   S    
C70   C72   A    
C19   H51   S    
Cr4   O29   S    
C71   O17   A    
C89   C90   A    
C96   C101  A    
C97   C101  A    
Cr6   O9    S    
C16   C17   A    
C64   C66   A    
