data_mof_unit_67053.cif
_audit_creation_date              2012-12-11T17:41:19-0500
_audit_creation_method            fapswitch 2.2
_symmetry_space_group_name_H-M    P1
_symmetry_Int_Tables_number       1
_space_group_crystal_system       triclinic
_cell_length_a                    8.190576
_cell_length_b                    12.667444
_cell_length_c                    14.198003
_cell_angle_alpha                 92.874367
_cell_angle_beta                  90.588988
_cell_angle_gamma                 98.242065
_cell_volume                      1455.8180156

loop_
_atom_site_label
_atom_site_type_symbol
_atom_type_description
_atom_site_fract_x
_atom_site_fract_y
_atom_site_fract_z
_atom_type_partial_charge
Ba1   Ba    Ba6+2 0.855630 0.555280 0.454520 1.637256
Ba2   Ba    Ba6+2 0.334200 0.444810 0.545490 1.631516
C1    C     C_3   0.577519 0.935234 0.156491 -0.255924
C2    C     C_R   0.182432 0.498524 0.195890 0.043622
C3    C     C_R   0.337154 0.550269 0.226013 -0.284898
C4    C     C_3   0.126109 0.805456 0.195579 0.380098
C5    C     C_R   0.449585 0.597147 0.162336 0.008835
C6    C     C_R   0.404694 0.600553 0.067555 -0.149975
C7    C     C_R   0.247935 0.552112 0.034734 0.000600
C8    C     C_R   0.136804 0.496974 0.098043 -0.024367
C9    C     C_R   0.052547 0.502255 0.901886 -0.024492
C10   C     C_R   0.941448 0.446977 0.965174 -0.002994
C11   C     C_R   0.007592 0.500117 0.803910 0.043769
C12   C     C_3   0.626262 0.854306 0.223283 0.767806
C13   C     C_R   0.854373 0.445795 0.773416 -0.293542
C14   C     C_R   0.741033 0.399637 0.837176 0.013733
C15   C     C_R   0.785091 0.397793 0.932240 -0.146749
C16   C     C_3   0.112702 0.846109 0.097172 -0.358873
C17   C     C_R   0.203824 0.556435 0.938880 -0.036759
C18   C     C_R   0.764811 0.176574 0.536031 -0.283836
C19   C     C_R   0.431120 0.813187 0.461079 -0.276538
C20   C     C_R   0.407589 0.994763 0.427472 -0.072397
C21   C     C_R   0.343472 0.887215 0.422497 -0.003925
C22   C     C_R   0.576768 0.846442 0.512895 0.053324
C23   C     C_3   0.475455 0.309835 0.257869 0.301805
C24   C     C_R   0.641495 0.957088 0.522464 -0.043349
C25   C     C_R   0.556170 0.031573 0.477241 -0.025202
C26   C     C_R   0.619875 0.141297 0.484630 0.040011
C27   C     C_R   0.853725 0.104578 0.576735 -0.008703
C28   C     C_3   0.226126 0.762536 0.656269 0.281158
C29   C     C_R   0.789893 0.995822 0.573312 -0.092306
C30   C     C_3   0.242359 0.882219 0.677614 -0.351948
C31   C     C_3   0.970737 0.236590 0.343000 0.239531
C32   C     C_3   0.964961 0.117803 0.321171 -0.297484
C33   C     C_3   0.713877 0.672942 0.738054 0.309482
C34   C     C_3   0.455159 0.287286 0.151806 -0.390248
C35   C     C_3   0.729844 0.696594 0.844202 -0.396368
C36   C     C_3   0.047614 0.196257 0.805625 0.361874
C37   C     C_3   0.062610 0.159942 0.905484 -0.364014
C38   C     C_3   0.543221 0.142270 0.765089 0.344708
C39   C     C_3   0.590529 0.052549 0.822256 -0.412436
C40   C     C_R   0.985310 0.443049 0.061117 -0.035473
H1    H     H_    0.328670 0.905145 0.738065 0.112760
H2    H     H_    0.612379 0.605848 0.723783 0.066551
H3    H     H_    0.504516 0.990852 0.194556 0.086476
H4    H     H_    0.836885 0.759388 0.860783 0.127443
H5    H     H_    0.748147 0.623704 0.880539 0.065760
H6    H     H_    0.615846 0.724740 0.871076 0.117648
H7    H     H_    0.510501 0.814148 0.253753 -0.143026
H8    H     H_    0.501567 0.893094 0.097048 0.034040
H9    H     H_    0.358095 0.331460 0.285850 0.017647
H10   H     H_    0.576019 0.377862 0.271150 0.060198
H11   H     H_    0.350546 0.222448 0.136186 0.127624
H12   H     H_    0.290270 0.925826 0.615776 0.076655
H13   H     H_    0.430127 0.360096 0.117267 0.065322
H14   H     H_    0.569848 0.262505 0.122494 0.117918
H15   H     H_    0.689341 0.981977 0.127590 0.104550
H16   H     H_    0.137216 0.783583 0.043622 0.067101
H17   H     H_    0.129112 0.273660 0.800506 0.093278
H18   H     H_    0.917721 0.207714 0.792662 -0.069331
H19   H     H_    0.192730 0.151623 0.922095 0.153577
H20   H     H_    0.021790 0.219578 0.956642 0.067623
H21   H     H_    0.984424 0.081697 0.912741 0.108752
H22   H     H_    0.656144 0.179366 0.729850 -0.054793
H23   H     H_    0.120046 0.904966 0.695560 0.144118
H24   H     H_    0.451779 0.108141 0.709432 0.079465
H25   H     H_    0.686072 0.085444 0.876028 0.112903
H26   H     H_    0.640330 0.992697 0.775045 0.093337
H27   H     H_    0.033591 0.733230 0.201185 0.104386
H28   H     H_    0.481177 0.013000 0.859006 0.129373
H29   H     H_    0.373591 0.549924 0.299468 0.071353
H30   H     H_    0.492720 0.639818 0.019526 0.067805
H31   H     H_    0.696716 0.359175 0.980424 0.070179
H32   H     H_    0.818988 0.444692 0.699694 0.069302
H33   H     H_    0.899299 0.397632 0.106216 0.098511
H34   H     H_    0.847211 0.253729 0.362658 0.008976
H35   H     H_    0.289918 0.601789 0.893793 0.097196
H36   H     H_    0.336579 0.048524 0.394381 0.091421
H37   H     H_    0.859455 0.943213 0.608930 0.104475
H38   H     H_    0.813758 0.260730 0.539902 0.064705
H39   H     H_    0.250961 0.783215 0.204673 -0.084039
H40   H     H_    0.380006 0.729419 0.455828 0.067945
H41   H     H_    0.987113 0.866230 0.084387 0.153503
H42   H     H_    0.204014 0.918801 0.089609 0.104605
H43   H     H_    0.347665 0.740861 0.637321 0.006955
H44   H     H_    0.137729 0.741690 0.596228 0.077997
H45   H     H_    0.058909 0.260130 0.402667 0.085180
H46   H     H_    0.742688 0.855123 0.341842 0.325820
H47   H     H_    0.879773 0.092276 0.260391 0.161953
H48   H     H_    0.921715 0.072940 0.383254 0.120593
H49   H     H_    0.090107 0.100103 0.303022 0.129370
H50   H     H_    0.831089 0.650477 0.711517 0.011728
O1    O     O_2   0.887370 0.460630 0.272300 -0.464659
O2    O     O_2   0.194797 0.110846 0.567854 -0.485131
O3    O     O_3   0.095441 0.118786 0.741435 -0.601619
O4    O     O_3   0.129410 0.451380 0.388510 -0.493641
O5    O     O_3   0.575400 0.626570 0.547370 -0.490700
O6    O     O_2   0.344320 0.238700 0.455090 -0.469738
O7    O     O_3   0.514398 0.218061 0.299099 -0.644943
O8    O     O_2   0.402425 0.408488 0.835967 -0.494228
O9    O     O_3   0.471140 0.213581 0.825437 -0.592593
O10   O     O_3   0.670210 0.653170 0.329170 -0.489181
O11   O     O_2   0.787578 0.589805 0.164103 -0.497555
O12   O     O_3   0.680222 0.765031 0.695877 -0.641927
O13   O     O_3   0.018325 0.289418 0.261626 -0.641274
O14   O     O_3   0.716621 0.784088 0.172701 -0.616839
O15   O     O_2   0.845380 0.761330 0.544970 -0.474008
O16   O     O_3   0.088930 0.704860 0.376040 -0.495434
O17   O     O_2   0.009355 0.890300 0.439571 -0.480289
O18   O     O_3   0.725332 0.908849 0.295940 -0.739994
O19   O     O_3   0.096748 0.885448 0.262892 -0.584699
O20   O     O_2   0.302330 0.539400 0.727760 -0.469213
O21   O     O_3   0.060300 0.548700 0.611500 -0.495983
O22   O     O_3   0.519500 0.346920 0.670840 -0.471099
O23   O     O_3   0.171655 0.711041 0.737365 -0.639368
O24   O     O_3   0.614310 0.373510 0.452640 -0.480099
O25   O     O_3   0.100780 0.295230 0.623970 -0.486723
P1    P     P_3+3 0.054400 0.427280 0.286870 0.971664
P2    P     P_3+3 0.668300 0.742890 0.573060 0.963211
P3    P     P_3+3 0.134905 0.843055 0.375551 0.955333
P4    P     P_3+3 0.135310 0.572810 0.713130 0.969958
P5    P     P_3+3 0.060346 0.155997 0.626645 0.948625
P6    P     P_3+3 0.656068 0.653458 0.206279 0.936493
P7    P     P_3+3 0.526800 0.241562 0.421694 0.938589
P8    P     P_3+3 0.533399 0.344557 0.793419 0.957848

loop_
_geom_bond_atom_site_label_1
_geom_bond_atom_site_label_2
_ccdc_geom_bond_type
C4    H27   S    
O5    P2    S    
O23   P4    S    
C8    C40   A    
C9    C11   A    
C4    O19   S    
O16   P3    S    
O11   P6    D    
Ba1   O16   S    
C23   H9    S    
C5    C6    A    
C39   H25   S    
O6    P7    D    
Ba2   O20   S    
C24   C25   A    
O4    P1    S    
C33   C35   S    
C22   C24   A    
C36   C37   S    
Ba2   O21   S    
C12   H7    S    
C13   C14   A    
Ba1   Ba2   S    
Ba1   P2    S    
O15   P2    D    
C17   H35   S    
C32   H49   S    
C10   C40   A    
C34   H11   S    
C38   O9    S    
Ba2   O24   S    
C1    H8    S    
Ba2   O5    S    
C14   C15   A    
O14   P6    S    
C16   H42   S    
Ba1   O24   S    
C35   H5    S    
C14   P8    S    
C28   O23   S    
O12   P2    S    
H46   O18   S    
C33   H50   S    
C24   C29   A    
C4    H39   S    
C38   H24   S    
C15   H31   S    
C2    P1    S    
Ba1   O21   S    
C37   H19   S    
C30   H12   S    
Ba2   O25   S    
C7    C17   A    
C16   H41   S    
C39   H26   S    
C18   C27   A    
C4    C16   S    
C6    H30   S    
C18   H38   S    
O8    P8    D    
C31   O13   S    
C20   H36   S    
C33   O12   S    
Ba1   O5    S    
C21   P3    S    
C3    C5    A    
O22   P8    S    
C6    C7    A    
C18   C26   A    
C1    H3    S    
O19   P3    S    
C35   H6    S    
C36   O3    S    
O25   P5    S    
C32   H48   S    
C34   H14   S    
C11   P4    S    
C31   H34   S    
O9    P8    S    
C27   C29   A    
C9    C17   A    
C27   P5    S    
C31   C32   S    
C40   H33   S    
C28   H43   S    
C33   H2    S    
C1    C12   S    
Ba1   O15   S    
C36   H18   S    
C1    H15   S    
O3    P5    S    
C38   C39   S    
C20   C25   A    
C19   C21   A    
O13   P1    S    
C28   H44   S    
O1    P1    D    
C2    C8    A    
O10   P6    S    
O2    P5    D    
C7    C8    A    
Ba2   P4    S    
C12   O18   S    
C37   H20   S    
C22   P2    S    
O24   P7    S    
C5    P6    S    
C2    C3    A    
C9    C10   A    
C26   P7    S    
C29   H37   S    
C37   H21   S    
C38   H22   S    
C11   C13   A    
C31   H45   S    
C32   H47   S    
O20   P4    D    
C3    H29   S    
C34   H13   S    
C10   C15   A    
C28   C30   S    
C23   O7    S    
Ba2   O22   S    
Ba1   O4    S    
Ba2   O4    S    
C30   H1    S    
C16   H16   S    
Ba1   P1    S    
C23   H10   S    
C23   C34   S    
C36   H17   S    
C12   O14   S    
C13   H32   S    
O21   P4    S    
C19   H40   S    
Ba2   O6    S    
Ba1   O1    S    
C19   C22   A    
C25   C26   A    
C20   C21   A    
C39   H28   S    
O7    P7    S    
C35   H4    S    
Ba1   O10   S    
O17   P3    D    
C30   H23   S    
