data_mof_unit_57805.cif
_audit_creation_date              2012-12-10T19:44:56-0500
_audit_creation_method            fapswitch 2.2
_symmetry_space_group_name_H-M    P1
_symmetry_Int_Tables_number       1
_space_group_crystal_system       triclinic
_cell_length_a                    15.094237
_cell_length_b                    10.836639
_cell_length_c                    13.676721
_cell_angle_alpha                 90.10901
_cell_angle_beta                  89.778785
_cell_angle_gamma                 89.866344
_cell_volume                      2237.08531085

loop_
_atom_site_label
_atom_site_type_symbol
_atom_type_description
_atom_site_fract_x
_atom_site_fract_y
_atom_site_fract_z
_atom_type_partial_charge
C1    C     C_R   0.497749 0.262118 0.499703 0.849343
C2    C     C_R   0.502252 0.737882 0.500296 0.849364
C3    C     C_R   0.047078 0.540725 0.322624 0.148172
C4    C     C_R   0.952922 0.459351 0.677375 0.148134
C5    C     C_R   0.308146 0.241873 0.255291 0.504702
C6    C     C_R   0.691713 0.758118 0.744866 0.504701
C7    C     C_R   0.343897 0.183987 0.337675 0.494110
C8    C     C_R   0.656024 0.815979 0.662438 0.494174
C9    C     C_R   0.424925 0.120054 0.330425 -0.074410
C10   C     C_R   0.575009 0.879957 0.669614 -0.074411
C11   C     C_R   0.468609 0.113374 0.239693 -0.328109
C12   C     C_R   0.531276 0.886708 0.760313 -0.328168
C13   C     C_R   0.432687 0.171590 0.157736 -0.304484
C14   C     C_R   0.567138 0.828523 0.842316 -0.304508
C15   C     C_R   0.352770 0.236277 0.165562 0.531439
C16   C     C_R   0.647043 0.763792 0.834566 0.531459
C17   C     C_R   0.470121 0.933205 0.419246 -0.234432
C18   C     C_R   0.529889 0.066799 0.580748 -0.234445
C19   C     C_R   0.503944 0.871744 0.500949 -0.064712
C20   C     C_R   0.496063 0.128258 0.499048 -0.064679
C21   C     C_R   0.535045 0.939055 0.582515 0.126170
C22   C     C_R   0.464952 0.060949 0.417486 0.126145
C23   C     C_R   0.328502 0.500758 0.500173 0.857326
C24   C     C_R   0.671498 0.499250 0.499826 0.857364
C25   C     C_R   0.562391 0.432907 0.792809 0.064035
C26   C     C_R   0.437608 0.567091 0.207191 0.064024
C27   C     C_R   0.437654 0.566953 0.793621 0.053069
C28   C     C_R   0.562344 0.433043 0.206379 0.053145
C29   C     C_R   0.436062 0.568282 0.896680 -0.056300
C30   C     C_R   0.563934 0.431710 0.103320 -0.056321
C31   C     C_R   0.500045 0.499877 0.948159 0.040171
C32   C     C_R   0.499950 0.500114 0.051840 0.040138
C33   C     C_R   0.564138 0.431342 0.895990 -0.068607
C34   C     C_R   0.435858 0.568651 0.104010 -0.068589
C35   C     C_R   0.372356 0.636423 0.949134 -0.259620
C36   C     C_R   0.627639 0.363568 0.050866 -0.259599
C37   C     C_R   0.372046 0.636674 0.051872 0.628851
C38   C     C_R   0.627950 0.363319 0.948128 0.628839
C39   C     C_R   0.813950 0.478884 0.586611 -0.125864
C40   C     C_R   0.186052 0.521187 0.413389 -0.125817
C41   C     C_R   0.768250 0.496624 0.499472 -0.063949
C42   C     C_R   0.231750 0.503412 0.500526 -0.063947
C43   C     C_R   0.814572 0.511394 0.412017 -0.201221
C44   C     C_R   0.185428 0.488640 0.587980 -0.201185
C45   C     C_R   0.907382 0.510773 0.410114 0.079361
C46   C     C_R   0.092619 0.489291 0.589885 0.079357
C47   C     C_R   0.953611 0.498167 0.499763 -0.015901
C48   C     C_R   0.046389 0.501915 0.500238 -0.015917
C49   C     C_R   0.906726 0.478218 0.588511 0.087689
C50   C     C_R   0.093275 0.521863 0.411489 0.087763
C51   C     C_R   0.954248 0.524001 0.320675 0.156227
C52   C     C_R   0.045753 0.476058 0.679324 0.156240
Cu1   Cu    Cu3+1 0.500010 0.499980 0.597420 0.965942
Cu2   Cu    Cu3+1 0.499990 0.500020 0.402580 0.965913
H1    H     H_    0.776034 0.468327 0.653264 0.190087
H2    H     H_    0.223968 0.531749 0.346737 0.190029
H3    H     H_    0.444994 0.881444 0.357328 0.171401
H4    H     H_    0.555012 0.118559 0.642669 0.171401
H5    H     H_    0.610723 0.380526 0.751254 0.167412
H6    H     H_    0.389277 0.619473 0.248746 0.167401
H7    H     H_    0.389335 0.619810 0.752953 0.129729
H8    H     H_    0.610663 0.380187 0.247047 0.129710
H9    H     H_    0.322694 0.689578 0.910586 0.168566
H10   H     H_    0.677301 0.310413 0.089414 0.168567
H11   H     H_    0.777187 0.527109 0.345910 0.169742
H12   H     H_    0.222812 0.472899 0.654082 0.169741
H13   H     H_    0.531032 0.064560 0.232855 0.206533
H14   H     H_    0.468862 0.935559 0.767092 0.206552
H15   H     H_    0.467167 0.167175 0.088262 0.205046
H16   H     H_    0.532620 0.833000 0.911765 0.205066
N1    N     N_R   0.499960 0.499900 0.743810 -0.210334
N2    N     N_R   0.500040 0.500100 0.256190 -0.210318
O1    O     O_R   0.500000 0.319630 0.582270 -0.587448
O2    O     O_R   0.500000 0.680370 0.417730 -0.587456
O3    O     O_R   0.499990 0.319660 0.417730 -0.594599
O4    O     O_R   0.500010 0.680340 0.582270 -0.594584
O5    O     O_R   0.370260 0.499960 0.582280 -0.596086
O6    O     O_R   0.629740 0.500040 0.417720 -0.596102
O7    O     O_R   0.370250 0.499990 0.417740 -0.593740
O8    O     O_R   0.629750 0.500010 0.582260 -0.593680
F1    F     F_    0.309331 0.703364 0.100082 -0.674620
F2    F     F_    0.690666 0.296630 0.899918 -0.674608
C53   C     C_3   0.905659 0.513355 0.223857 -0.807549
H17   H     H_    0.857473 0.436142 0.226469 0.224642
H18   H     H_    0.870417 0.600949 0.207661 0.245804
H19   H     H_    0.950071 0.489109 0.162020 0.253015
C54   C     C_3   0.094349 0.486654 0.776142 -0.807567
H20   H     H_    0.142553 0.563844 0.773545 0.224632
H21   H     H_    0.049945 0.510900 0.837985 0.253007
H22   H     H_    0.129569 0.399037 0.792318 0.245812
C55   C     C_3   0.096365 0.584892 0.232077 -0.733712
H23   H     H_    0.052322 0.628644 0.177520 0.239080
H24   H     H_    0.143756 0.659023 0.251771 0.236044
H25   H     H_    0.132607 0.506831 0.197558 0.289452
C56   C     C_3   0.903631 0.415173 0.767917 -0.733722
H26   H     H_    0.947668 0.371428 0.822481 0.239087
H27   H     H_    0.867375 0.493227 0.802429 0.289466
H28   H     H_    0.856250 0.341035 0.748212 0.236044
F3    F     F_    0.318519 0.293326 0.085995 -0.625969
F4    F     F_    0.681235 0.706774 0.914177 -0.625965
F5    F     F_    0.229909 0.302964 0.262327 -0.624602
F6    F     F_    0.769934 0.696973 0.737903 -0.624633
F7    F     F_    0.299950 0.190344 0.424342 -0.636969
F8    F     F_    0.700018 0.809555 0.575802 -0.636983

loop_
_geom_bond_atom_site_label_1
_geom_bond_atom_site_label_2
_ccdc_geom_bond_type
C54   H20   S    
C27   C29   A    
C18   C21   A    
C26   N2    A    
C44   H12   S    
C56   H26   S    
C56   H28   S    
C2    O4    A    
C39   C41   A    
C28   N2    A    
Cu1   Cu2   S    
C12   H14   S    
C23   C42   S    
C4    C52   A    
C19   C21   A    
C8    C10   A    
C31   C32   A    
C9    C22   S    
C45   C51   A    
C34   C37   A    
C46   C52   A    
C11   H13   S    
C3    C55   S    
C27   H7    S    
Cu2   O2    S    
C26   C34   A    
C39   H1    S    
C47   C48   A    
C44   C46   A    
C40   H2    S    
C31   C33   A    
C25   N1    A    
C2    O2    A    
C40   C42   A    
C7    F7    S    
C38   F2    S    
C24   C41   S    
C41   C43   A    
C37   F1    S    
C14   H16   S    
C42   C44   A    
C3    C50   A    
C24   O8    A    
C46   C48   A    
C45   C47   A    
C10   C21   S    
C5    F5    S    
C1    O3    A    
Cu1   O8    S    
C47   C49   A    
C15   F3    S    
C55   H23   S    
C5    C7    A    
C3    C51   A    
C16   F4    S    
C6    C8    A    
C32   C34   A    
Cu1   O5    S    
C55   H24   S    
C4    C56   S    
C8    F8    S    
C53   H17   S    
C43   H11   S    
C23   O5    A    
C48   C50   A    
C9    C11   A    
C10   C12   A    
C24   O6    A    
C39   C49   A    
C20   C22   A    
C13   C15   A    
C14   C16   A    
Cu1   O4    S    
Cu1   N1    S    
C51   C53   S    
C27   N1    A    
Cu2   O7    S    
C7    C9    A    
C1    C20   S    
C35   C37   A    
C2    C19   S    
C52   C54   S    
Cu1   O1    S    
C33   C38   A    
C12   C14   A    
C56   H27   S    
C29   C35   A    
C17   C22   A    
C30   C36   A    
C4    C49   A    
C1    O1    A    
C36   C38   A    
C43   C45   A    
C55   H25   S    
C30   C32   A    
C11   C13   A    
C13   H15   S    
C40   C50   A    
C28   C30   A    
C17   C19   A    
C18   H4    S    
C18   C20   A    
C6    F6    S    
C53   H18   S    
C5    C15   A    
C6    C16   A    
Cu2   O3    S    
C53   H19   S    
Cu2   N2    S    
C29   C31   A    
C54   H22   S    
C17   H3    S    
C54   H21   S    
C35   H9    S    
C25   H5    S    
C23   O7    A    
C36   H10   S    
C26   H6    S    
C25   C33   A    
Cu2   O6    S    
C28   H8    S    
