data_mof_unit_52095.cif
_audit_creation_date              2013-03-05T15:41:46-0500
_audit_creation_method            fapswitch 2.2
_symmetry_space_group_name_H-M    P1
_symmetry_Int_Tables_number       1
_space_group_crystal_system       triclinic
_cell_length_a                    11.177472
_cell_length_b                    12.717938
_cell_length_c                    23.501668
_cell_angle_alpha                 90.933281
_cell_angle_beta                  96.783493
_cell_angle_gamma                 68.197154
_cell_volume                      3078.79133287

loop_
_atom_site_label
_atom_site_type_symbol
_atom_site_description
_atom_site_fract_x
_atom_site_fract_y
_atom_site_fract_z
_atom_type_partial_charge
O1    O     O_R   0.196340 0.303200 0.448500 -0.499986
O2    O     O_R   0.199310 0.519670 0.454880 -0.495038
C1    C     C_R   0.149637 0.616466 0.428808 0.557252
O3    O     O_R   0.045660 0.691380 0.441680 -0.469349
O4    O     O_R   0.811930 0.659460 0.430950 -0.469741
C2    C     C_R   0.751219 0.603217 0.403183 0.563066
O5    O     O_R   0.757900 0.507620 0.421760 -0.522341
O6    O     O_R   0.988630 0.322990 0.439840 -0.490670
C3    C     C_R   0.101432 0.282018 0.423417 0.556187
O7    O     O_R   0.196380 0.301720 0.573850 -0.532465
O8    O     O_R   0.199350 0.518300 0.571080 -0.504828
C4    C     C_R   0.107309 0.595689 0.595155 0.547312
O9    O     O_R   0.045700 0.689900 0.567030 -0.460348
O10   O     O_R   0.811960 0.658090 0.547150 -0.479567
C5    C     C_R   0.748785 0.602846 0.565678 0.545067
O11   O     O_R   0.757930 0.506140 0.547110 -0.534963
O12   O     O_R   0.988670 0.321620 0.556040 -0.488404
C6    C     C_R   0.100077 0.278366 0.584804 0.574948
Cr1   Cr    Cr6+3 0.189770 0.415650 0.511620 1.028542
Cr2   Cr    Cr6+3 0.930400 0.667320 0.496770 1.105206
Cr3   Cr    Cr6+3 0.879870 0.417010 0.491650 1.021287
O13   O     O_3   0.000020 0.499990 0.500010 -0.292624
C7    C     C_R   0.688478 0.749827 0.135734 -0.016133
C8    C     C_R   0.706956 0.630699 0.341738 0.000228
C9    C     C_R   0.710058 0.543790 0.249404 -0.128414
C10   C     C_R   0.702819 0.540706 0.307356 -0.157572
C11   C     C_R   0.702405 0.732009 0.315781 0.053375
C12   C     C_R   0.706112 0.736526 0.255739 -0.030031
C13   C     C_R   0.712915 0.640228 0.222704 -0.008096
C14   C     C_R   0.717292 0.644154 0.163227 0.040081
C15   C     C_R   0.701197 0.840176 0.168397 0.007451
C16   C     C_R   0.706960 0.833444 0.227995 -0.142671
H1    H     H_    0.714541 0.468652 0.226336 0.180114
H2    H     H_    0.709519 0.905830 0.252034 0.195446
H3    H     H_    0.705336 0.462287 0.325803 0.158855
C17   C     C_1   0.234873 0.163732 0.122833 0.030264
C18   C     C_2   0.178840 0.234354 0.226501 -0.104821
C19   C     C_2   0.156046 0.165198 0.262575 -0.106751
C20   C     C_1   0.133073 0.198326 0.320490 -0.024867
C21   C     C_1   0.208917 0.199052 0.169569 -0.010617
C22   C     C_1   0.116697 0.231473 0.368396 0.016221
H4    H     H_    0.157838 0.082472 0.249237 0.147942
H5    H     H_    0.177941 0.316736 0.240021 0.143162
C23   C     C_1   0.166729 0.750317 0.123566 0.032541
C24   C     C_2   0.140878 0.689923 0.227694 -0.109850
C25   C     C_2   0.235615 0.675253 0.271183 -0.113979
C26   C     C_1   0.217215 0.651527 0.328845 -0.024185
C27   C     C_1   0.153969 0.721519 0.170546 -0.017081
C28   C     C_1   0.193758 0.634015 0.375922 0.019696
H6    H     H_    0.325583 0.684375 0.263995 0.147581
H7    H     H_    0.050504 0.681846 0.235177 0.148672
C29   C     C_1   0.627562 0.753694 0.864750 0.012402
C30   C     C_2   0.697345 0.695788 0.761507 -0.115471
C31   C     C_2   0.606219 0.708063 0.716891 -0.093610
C32   C     C_1   0.644432 0.672048 0.661090 0.005220
C33   C     C_1   0.662218 0.729328 0.817984 -0.041798
C34   C     C_1   0.685675 0.641350 0.616018 0.044921
H8    H     H_    0.503672 0.745553 0.722002 0.152181
H9    H     H_    0.799463 0.655959 0.756151 0.137593
C35   C     C_R   0.199075 0.177612 0.854143 0.008867
C36   C     C_R   0.107554 0.230708 0.641248 0.011326
C37   C     C_R   0.027589 0.146013 0.712725 0.066407
C38   C     C_R   0.024066 0.177198 0.655006 0.256177
C39   C     C_R   0.188279 0.256906 0.683922 -0.175342
C40   C     C_R   0.185207 0.235136 0.740409 0.009922
C41   C     C_R   0.105375 0.179011 0.755882 -0.027221
C42   C     C_R   0.110755 0.153463 0.813961 -0.107387
C43   C     C_R   0.271438 0.238808 0.838140 -0.126337
C44   C     C_R   0.264975 0.266906 0.781434 -0.112081
H10   H     H_    0.054973 0.106870 0.827656 0.161236
H11   H     H_    0.341424 0.256342 0.868843 0.127313
H12   H     H_    0.328637 0.306899 0.769301 0.110796
H13   H     H_    0.251042 0.299569 0.673474 0.138558
C45   C     C_R   0.111670 0.734384 0.860225 0.015237
C46   C     C_R   0.127181 0.607797 0.657468 -0.014338
C47   C     C_R   0.258146 0.538102 0.748382 -0.126552
C48   C     C_R   0.237301 0.529846 0.689526 -0.177108
C49   C     C_R   0.033699 0.694100 0.685767 0.049642
C50   C     C_R   0.050541 0.696384 0.745827 -0.007422
C51   C     C_R   0.166310 0.621038 0.776968 0.047556
C52   C     C_R   0.192949 0.635901 0.835592 0.264057
C53   C     C_R   0.988605 0.796807 0.832081 -0.150768
C54   C     C_R   0.957815 0.777537 0.775440 -0.113261
H14   H     H_    0.920470 0.867906 0.851944 0.152469
H15   H     H_    0.348476 0.481319 0.771201 0.162457
H16   H     H_    0.864896 0.833115 0.754350 0.161289
H17   H     H_    0.310471 0.464335 0.668911 0.139882
O14   O     O_R   0.113660 0.883270 0.047820 -0.498790
O15   O     O_R   0.186930 0.068530 0.043990 -0.498652
C55   C     C_R   0.265525 0.110381 0.069355 0.542648
O16   O     O_R   0.377770 0.089040 0.054220 -0.490395
O17   O     O_R   0.562800 0.872960 0.056970 -0.468092
C56   C     C_R   0.604670 0.773466 0.080021 0.564142
O18   O     O_R   0.555390 0.700940 0.062700 -0.482629
O19   O     O_R   0.295020 0.731920 0.049950 -0.499215
C57   C     C_R   0.189386 0.787870 0.069771 0.542921
O20   O     O_R   0.094290 0.884230 0.921550 -0.522230
O21   O     O_R   0.168980 0.069410 0.926940 -0.501694
C58   C     C_R   0.240885 0.114976 0.908017 0.543061
O22   O     O_R   0.358400 0.089990 0.927950 -0.516407
O23   O     O_R   0.544850 0.873850 0.939920 -0.492199
C59   C     C_R   0.573653 0.775917 0.918129 0.554228
O24   O     O_R   0.536020 0.701900 0.936430 -0.481094
O25   O     O_R   0.277070 0.732810 0.932890 -0.455418
C60   C     C_R   0.161353 0.783925 0.909291 0.559826
Cr4   Cr    Cr6+3 0.149500 0.973980 0.985330 1.040541
Cr5   Cr    Cr6+3 0.457000 0.976510 0.994660 1.066256
Cr6   Cr    Cr6+3 0.411170 0.724270 0.995270 1.085916
O26   O     O_3   0.339220 0.891590 0.991750 -0.268643
C61   C     C_2   0.748308 0.540397 0.128577 0.586360
O27   O     O_2   0.841585 0.513031 0.101455 -0.515402
O28   O     O_R   0.667434 0.478336 0.124305 -0.692165
H18   H     H_    0.698100 0.411084 0.098616 0.342816
C62   C     C_2   0.959068 0.072026 0.726730 0.604849
O29   O     O_2   0.022005 0.977044 0.747110 -0.508467
O30   O     O_R   0.823774 0.110730 0.717526 -0.720364
H19   H     H_    0.789163 0.051805 0.728819 0.336785
O31   O     O_3   0.951437 0.144235 0.611556 -0.541511
C63   C     C_3   0.820452 0.220525 0.605808 -0.049522
H20   H     H_    0.794083 0.259825 0.562048 0.149697
H21   H     H_    0.797408 0.289949 0.637288 0.116762
H22   H     H_    0.757096 0.172211 0.609963 0.159602
O32   O     O_3   0.306450 0.562656 0.866016 -0.556996
C64   C     C_3   0.273670 0.496537 0.904512 -0.111009
H23   H     H_    0.363994 0.427902 0.923382 0.141803
H24   H     H_    0.208387 0.456341 0.882565 0.101948
H25   H     H_    0.227324 0.547787 0.940309 0.129053
C65   C     C_2   0.710626 0.941282 0.141501 0.604471
O33   O     O_2   0.670650 0.033305 0.164020 -0.509849
O34   O     O_R   0.769502 0.930327 0.091257 -0.676320
H26   H     H_    0.771450 0.004646 0.077341 0.336570
C66   C     C_2   0.929498 0.791717 0.653758 0.601166
O35   O     O_2   0.816716 0.799411 0.649555 -0.557081
O36   O     O_R   0.961125 0.877290 0.630661 -0.606160
H27   H     H_    0.882327 0.940190 0.610660 0.352519
C67   C     C_2   0.692738 0.831390 0.351687 0.579427
O37   O     O_2   0.776574 0.872112 0.353977 -0.510041
O38   O     O_R   0.590387 0.874494 0.385029 -0.688423
H28   H     H_    0.594995 0.940761 0.408512 0.343485

loop_
_geom_bond_atom_site_label_1
_geom_bond_atom_site_label_2
_geom_bond_distance
_ccdc_geom_bond_type
O23   Cr5   1.901385 S    
O14   C57   1.268481 A    
O11   Cr3   2.016279 S    
C36   C39   1.389119 A    
Cr5   O26   1.984111 S    
C31   C32   1.442026 S    
O19   C57   1.269830 A    
C8    C11   1.415777 A    
C35   C58   1.439646 S    
C65   O33   1.223390 D    
C62   O29   1.221277 D    
C30   H9    1.085200 S    
O32   C64   1.411322 S    
C20   C22   1.206092 T    
O4    Cr2   1.940547 S    
C30   C31   1.340230 D    
O30   H19   1.013803 S    
O8    Cr1   1.917709 S    
C56   O18   1.277546 A    
C52   O32   1.384913 S    
C11   C67   1.485453 S    
C12   C13   1.422064 A    
C18   C19   1.341274 D    
C8    C10   1.401915 A    
C19   H4    1.086588 S    
C18   C21   1.442026 S    
C19   C20   1.442080 S    
C30   C33   1.441569 S    
C24   H7    1.086989 S    
C5    O11   1.270121 A    
Cr6   O26   1.975002 S    
C36   C38   1.410202 A    
C49   C66   1.487637 S    
O31   C63   1.416165 S    
O28   H18   1.013815 S    
C61   O27   1.222557 D    
C15   C16   1.397085 A    
C35   C42   1.398654 A    
C66   O35   1.219734 D    
O15   Cr4   1.924839 S    
C39   H13   1.083800 S    
O24   Cr6   2.022070 S    
O20   C60   1.265288 A    
C41   C42   1.397432 A    
C2    C8    1.473596 S    
Cr3   O13   1.984847 S    
C29   C59   1.434303 S    
C5    C34   1.434831 S    
C15   C65   1.485583 S    
C45   C53   1.396745 A    
O25   C60   1.273120 A    
O6    Cr3   1.900707 S    
C63   H21   1.117166 S    
C9    C13   1.399260 A    
O1    Cr1   2.032198 S    
C37   C41   1.417609 A    
C1    C28   1.439934 S    
O23   C59   1.279657 A    
O10   Cr2   1.912727 S    
C12   C16   1.407419 A    
Cr1   O13   1.976418 S    
O1    C3    1.266808 A    
C47   C48   1.384171 A    
C67   O38   1.398306 S    
O19   Cr6   1.908557 S    
C38   O31   1.385838 S    
C49   C50   1.403062 A    
O6    C3    1.276948 A    
C7    C15   1.413016 A    
C9    C10   1.375927 A    
O5    Cr3   2.061588 S    
C53   C54   1.376338 A    
O12   Cr3   1.941604 S    
C7    C56   1.481942 S    
C16   H2    1.079933 S    
C18   H5    1.086685 S    
C44   H12   1.080685 S    
C7    C14   1.408904 A    
C13   C14   1.406774 A    
C23   C57   1.440744 S    
O16   Cr5   2.019380 S    
O14   Cr4   2.045899 S    
O17   Cr5   1.942706 S    
C58   O22   1.263016 A    
C17   C21   1.206139 T    
O7    Cr1   2.051303 S    
O8    C4    1.309368 A    
O18   Cr6   2.062643 S    
C37   C38   1.411479 A    
O12   C6    1.270688 A    
C46   C48   1.401536 A    
C48   H17   1.082610 S    
C2    O5    1.271419 A    
C64   H25   1.111409 S    
O20   Cr4   2.044380 S    
C14   C61   1.488787 S    
C40   C41   1.412871 A    
C53   H14   1.083621 S    
C32   C34   1.206312 T    
C45   C52   1.408768 A    
C1    O3    1.265344 A    
O25   Cr6   1.942395 S    
C64   H24   1.113303 S    
C31   H8    1.086402 S    
C24   C27   1.447188 S    
C17   C55   1.434777 S    
C25   C26   1.447428 S    
O22   Cr5   2.059009 S    
O9    Cr2   2.055887 S    
O2    Cr1   1.932747 S    
C43   C44   1.372083 A    
C47   C51   1.397546 A    
Cr2   O13   1.975162 S    
C51   C52   1.399658 A    
C65   O34   1.398917 S    
C62   O30   1.396149 S    
C63   H20   1.109094 S    
C6    C36   1.447893 S    
C37   C62   1.478279 S    
O36   H27   1.013755 S    
C26   C28   1.209288 T    
C25   H6    1.086599 S    
C3    C22   1.434577 S    
O21   Cr4   1.929936 S    
C42   H10   1.082378 S    
C39   C40   1.367494 A    
O2    C1    1.278936 A    
C45   C60   1.456034 S    
C50   C54   1.405765 A    
C55   O16   1.274202 A    
O4    C2    1.280119 A    
C29   C33   1.205972 T    
O7    C6    1.272250 A    
C43   H11   1.083186 S    
C40   C44   1.392703 A    
O17   C56   1.279132 A    
C63   H22   1.109098 S    
O34   H26   1.013825 S    
C59   O24   1.264168 A    
C46   C49   1.423839 A    
C61   O28   1.398644 S    
O38   H28   1.013827 S    
C50   C51   1.416456 A    
O3    Cr2   2.032101 S    
C24   C25   1.343326 D    
C10   H3    1.083408 S    
C54   H16   1.080956 S    
C4    O9    1.285336 A    
C35   C43   1.396573 A    
C66   O36   1.398007 S    
O21   C58   1.272151 A    
C4    C46   1.469325 S    
C11   C12   1.419299 A    
O10   C5    1.277895 A    
C67   O37   1.223482 D    
O15   C55   1.274244 A    
C47   H15   1.082404 S    
C23   C27   1.209439 T    
C9    H1    1.078689 S    
C64   H23   1.109099 S    
Cr4   O26   1.973981 S    
