data_mof_unit_38407.cif
_audit_creation_date              2013-03-05T15:50:50-0500
_audit_creation_method            fapswitch 2.2
_symmetry_space_group_name_H-M    P1
_symmetry_Int_Tables_number       1
_space_group_crystal_system       triclinic
_cell_length_a                    9.605662
_cell_length_b                    10.858986
_cell_length_c                    15.37205
_cell_angle_alpha                 86.747166
_cell_angle_beta                  74.761891
_cell_angle_gamma                 89.386372
_cell_volume                      1544.54336736

loop_
_atom_site_label
_atom_site_type_symbol
_atom_site_description
_atom_site_fract_x
_atom_site_fract_y
_atom_site_fract_z
_atom_type_partial_charge
O1    O     O_R   0.118810 0.319640 0.500010 -0.597047
O2    O     O_R   0.881240 0.319660 0.500000 -0.589678
C1    C     C_R   0.003321 0.262039 0.497298 0.787419
O3    O     O_R   0.055570 0.499980 0.629840 -0.587335
O4    O     O_R   0.818000 0.500010 0.629830 -0.588935
C2    C     C_R   0.918597 0.499548 0.672337 0.779642
Cu1   Cu    Cu3+1 0.140660 0.499990 0.500010 0.927816
Cu2   Cu    Cu3+1 0.859340 0.500010 0.499990 0.975835
O5    O     O_R   0.118760 0.680340 0.500000 -0.610022
O6    O     O_R   0.881190 0.680360 0.499990 -0.573046
O7    O     O_R   0.182000 0.499990 0.370170 -0.617942
O8    O     O_R   0.944430 0.500020 0.370160 -0.521830
C3    C     C_R   0.996222 0.736263 0.508362 0.837570
C4    C     C_R   0.081552 0.497134 0.327924 0.851759
C5    C     C_R   0.873390 0.500717 0.771397 -0.047626
C6    C     C_R   0.127767 0.482353 0.230164 -0.019940
C7    C     C_R   0.922035 0.536378 0.914388 -0.203792
C8    C     C_R   0.970961 0.526994 0.821302 -0.200382
C9    C     C_R   0.727782 0.479684 0.815895 -0.244106
C10   C     C_R   0.675985 0.485902 0.909998 0.092178
C11   C     C_R   0.775520 0.517693 0.958819 0.147134
C12   C     C_R   0.527821 0.465192 0.956299 0.068813
C13   C     C_R   0.479311 0.487879 0.049826 0.057734
C14   C     C_R   0.582825 0.518289 0.096027 -0.201919
C15   C     C_R   0.727951 0.531677 0.051311 -0.215355
C16   C     C_R   0.427172 0.420363 0.912700 -0.218796
C17   C     C_R   0.283289 0.401649 0.958366 -0.230873
C18   C     C_R   0.233146 0.428651 0.048582 0.164530
C19   C     C_R   0.329480 0.475242 0.094693 0.092738
C20   C     C_R   0.087472 0.407431 0.093713 -0.231649
C21   C     C_R   0.035725 0.431919 0.184452 -0.133376
C22   C     C_R   0.272038 0.507028 0.184447 -0.247808
H1    H     H_    0.803434 0.554699 0.089402 0.192161
H2    H     H_    0.337410 0.551246 0.220814 0.146371
H3    H     H_    0.925024 0.408615 0.219194 0.177984
H4    H     H_    0.210586 0.365500 0.922597 0.148287
H5    H     H_    0.998460 0.560467 0.951490 0.151300
H6    H     H_    0.083942 0.543740 0.788206 0.154335
H7    H     H_    0.655835 0.462505 0.774879 0.149756
H8    H     H_    0.556238 0.528859 0.167755 0.167071
H9    H     H_    0.456508 0.394247 0.843741 0.138652
H10   H     H_    0.014344 0.368824 0.059351 0.144432
H11   H     H_    0.794067 0.114073 0.479138 0.158764
C23   C     C_R   0.269272 0.107899 0.504743 -0.176735
H12   H     H_    0.306295 0.193985 0.468350 0.173321
C24   C     C_R   0.371035 0.042651 0.538837 -0.169777
H13   H     H_    0.475548 0.083317 0.533684 0.128086
C25   C     C_R   0.337667 0.926015 0.580373 -0.119213
H14   H     H_    0.414243 0.877034 0.610018 0.133425
C26   C     C_R   0.208526 0.869821 0.579607 -0.145588
H15   H     H_    0.186417 0.778989 0.612820 0.152638
C27   C     C_R   0.109871 0.930923 0.537847 0.083379
C28   C     C_R   0.130028 0.057743 0.512830 0.107925
C29   C     C_R   0.010174 0.126784 0.497092 -0.112553
C30   C     C_R   0.886083 0.064525 0.491562 -0.215838
H16   H     H_    0.785968 0.892357 0.488896 0.161334
C31   C     C_R   0.879693 0.937349 0.499240 -0.162513
C32   C     C_R   0.992760 0.869291 0.519141 -0.119292
H17   H     H_    0.594779 0.339976 0.585649 0.130647
C33   C     C_R   0.676631 0.697975 0.402722 0.366585
C34   C     C_R   0.605982 0.805981 0.384893 -0.265670
H18   H     H_    0.667773 0.887526 0.354391 0.184349
C35   C     C_R   0.466935 0.797680 0.377091 -0.231901
H19   H     H_    0.420488 0.873795 0.345828 0.180632
C36   C     C_R   0.393577 0.686857 0.400431 -0.131400
H20   H     H_    0.299001 0.679393 0.377197 0.208031
C37   C     C_R   0.443822 0.592526 0.451221 0.178846
C38   C     C_R   0.593021 0.594666 0.451508 0.082883
N1    N     N_R   0.648320 0.501210 0.499140 -0.197270
C39   C     C_R   0.555271 0.412018 0.546921 -0.060255
H21   H     H_    0.336549 0.341476 0.586955 0.137637
C40   C     C_R   0.407313 0.412657 0.547447 -0.084263
N2    N     N_R   0.352470 0.501290 0.499110 -0.191026
N3    N     N_R   0.807492 0.680779 0.335186 0.153881
O9    O     O_R   0.911082 0.761479 0.323090 -0.398038
O10   O     O_R   0.800206 0.617974 0.266886 -0.413088

loop_
_geom_bond_atom_site_label_1
_geom_bond_atom_site_label_2
_geom_bond_distance
_ccdc_geom_bond_type
C5    C8    1.398878 A    
C35   C36   1.381946 A    
C9    C10   1.405941 A    
Cu1   Cu2   2.702343 S    
Cu1   N2    2.031178 S    
C28   C29   1.432961 A    
C27   C28   1.410087 A    
C6    C21   1.398585 A    
C5    C9    1.400892 A    
Cu2   N1    2.030358 S    
N3    O10   1.301252 A    
C13   C19   1.427439 A    
C18   C19   1.417811 A    
C19   C22   1.406042 A    
C20   C21   1.392187 A    
O7    C4    1.298454 A    
H16   C31   1.080742 S    
C34   C35   1.376392 A    
O5    C3    1.297990 A    
C14   H8    1.076968 S    
C2    C5    1.470376 S    
C29   C30   1.400761 A    
C23   C28   1.421827 A    
C38   N1    1.398845 A    
C36   C37   1.410148 A    
C26   C27   1.417158 A    
C13   C14   1.416671 A    
C37   N2    1.374683 A    
C25   C26   1.391405 A    
N1    C39   1.367166 A    
O3    Cu1   1.947714 S    
C23   C24   1.394453 A    
C26   H15   1.081194 S    
C27   C32   1.415644 A    
C24   C25   1.387048 A    
N3    O9    1.302139 A    
C37   C38   1.434753 A    
C14   C15   1.387897 A    
O3    C2    1.306082 A    
C3    C32   1.462374 S    
C7    C11   1.404800 A    
C33   C34   1.398368 A    
O1    C1    1.290640 A    
C22   H2    1.076487 S    
Cu1   O7    1.929950 S    
Cu2   O8    1.947714 S    
C7    C8    1.393125 A    
C16   C17   1.387116 A    
C7    H5    1.083402 S    
C9    H7    1.074763 S    
H11   C30   1.083561 S    
C25   H14   1.082566 S    
C10   C12   1.427894 A    
C30   C31   1.380001 A    
C4    C6    1.468432 S    
C23   H12   1.075412 S    
Cu1   O5    1.967438 S    
C11   C15   1.390987 A    
C24   H13   1.082976 S    
O1    Cu1   1.971866 S    
O2    Cu2   1.967438 S    
O8    C4    1.307395 A    
C40   N2    1.367378 A    
O6    C3    1.305368 A    
O4    Cu2   1.929950 S    
C17   H4    1.084603 S    
C6    C22   1.400289 A    
C18   C20   1.403884 A    
O2    C1    1.315298 A    
C8    H6    1.083132 S    
H21   C40   1.081347 S    
C31   C32   1.396827 A    
O4    C2    1.300827 A    
C33   N3    1.422578 S    
C1    C29   1.469656 S    
C21   H3    1.082531 S    
C34   H18   1.083553 S    
H17   C39   1.081660 S    
C35   H19   1.082995 S    
C10   C11   1.417797 A    
C33   C38   1.439842 A    
Cu2   O6    1.971866 S    
C36   H20   1.065295 S    
C12   C16   1.417245 A    
C17   C18   1.390387 A    
C12   C13   1.424911 A    
C20   H10   1.083819 S    
C39   C40   1.419073 A    
C16   H9    1.076517 S    
C15   H1    1.083858 S    
