data_mof_unit_37814.cif
_audit_creation_date              2012-12-10T19:10:07-0500
_audit_creation_method            fapswitch 2.2
_symmetry_space_group_name_H-M    P1
_symmetry_Int_Tables_number       1
_space_group_crystal_system       triclinic
_cell_length_a                    10.827755
_cell_length_b                    10.815218
_cell_length_c                    9.541013
_cell_angle_alpha                 90.556927
_cell_angle_beta                  90.358029
_cell_angle_gamma                 89.833406
_cell_volume                      1117.21672789

loop_
_atom_site_label
_atom_site_type_symbol
_atom_type_description
_atom_site_fract_x
_atom_site_fract_y
_atom_site_fract_z
_atom_type_partial_charge
C1    C     C_R   0.498177 0.262493 0.499222 0.796651
C2    C     C_R   0.245444 0.707793 0.033918 -0.117441
C3    C     C_R   0.932228 0.555247 0.392479 -0.249207
C4    C     C_R   0.871531 0.495083 0.501111 -0.082619
C5    C     C_R   0.939573 0.436617 0.608405 0.000772
C6    C     C_R   0.067486 0.445954 0.608456 -0.243090
C7    C     C_R   0.128263 0.505193 0.498998 -0.077105
C8    C     C_R   0.060135 0.559161 0.388596 -0.000267
C9    C     C_R   0.894079 0.380251 0.856684 -0.179292
C10   C     C_R   0.842423 0.300685 0.954844 -0.127384
C11   C     C_R   0.781777 0.193320 0.909889 -0.113265
C12   C     C_R   0.262295 0.502736 0.499529 0.787399
C13   C     C_R   0.772353 0.165766 0.766743 -0.140217
C14   C     C_R   0.820855 0.246825 0.668302 -0.110409
C15   C     C_R   0.881940 0.354807 0.712718 0.131022
C16   C     C_R   0.430986 0.064925 0.601529 0.124532
C17   C     C_R   0.489321 0.129576 0.495011 -0.091652
C18   C     C_R   0.532168 0.063454 0.377366 -0.233248
C19   C     C_R   0.533419 0.934579 0.378390 -0.231318
C20   C     C_R   0.492435 0.870987 0.497292 -0.096652
C21   C     C_R   0.433542 0.938012 0.603135 0.117628
C22   C     C_3   0.442066 0.934460 0.759106 -0.477212
C23   C     C_R   0.499377 0.737683 0.500207 0.793604
C24   C     C_3   0.436653 0.075080 0.757492 -0.487761
C25   C     C_R   0.548990 0.597084 0.074874 0.277776
C26   C     C_R   0.440352 0.410745 0.073060 -0.063086
C27   C     C_R   0.440395 0.410720 0.924163 -0.076988
C28   C     C_R   0.547713 0.597836 0.927552 0.247858
C29   C     C_3   0.676455 0.645357 0.921510 -0.497073
C30   C     C_3   0.679222 0.641360 0.080441 -0.518836
C31   C     C_R   0.737628 0.496893 0.500458 0.794201
C32   C     C_R   0.255269 0.767883 0.163917 -0.119931
C33   C     C_R   0.191861 0.722233 0.279607 -0.102019
C34   C     C_R   0.119037 0.615490 0.265358 0.128082
C35   C     C_R   0.107937 0.557136 0.133808 -0.154202
C36   C     C_R   0.171186 0.603200 0.018520 -0.135981
Cu1   Cu    Cu3+1 0.499990 0.499980 0.640670 0.942509
Cu2   Cu    Cu3+1 0.500010 0.500020 0.359330 0.944134
H1    H     H_    0.296485 0.740938 0.945333 0.114237
H2    H     H_    0.742914 0.131050 0.985909 0.115096
H3    H     H_    0.727956 0.081313 0.731811 0.127850
H4    H     H_    0.570958 0.110766 0.288329 0.158643
H5    H     H_    0.572297 0.885415 0.289554 0.154601
H6    H     H_    0.358539 0.893172 0.805617 0.190772
H7    H     H_    0.531834 0.897453 0.797384 0.194345
H8    H     H_    0.349443 0.112753 0.801776 0.187707
H9    H     H_    0.521761 0.120153 0.797536 0.209763
H10   H     H_    0.393716 0.337404 0.127673 0.137710
H11   H     H_    0.313312 0.848709 0.175431 0.129751
H12   H     H_    0.741218 0.579239 0.871467 0.230215
H13   H     H_    0.680416 0.740786 0.879813 0.182374
H14   H     H_    0.743865 0.570040 0.120912 0.211891
H15   H     H_    0.687567 0.734226 0.130331 0.185273
H16   H     H_    0.201835 0.767850 0.380607 0.100694
H17   H     H_    0.164407 0.556664 0.917818 0.133912
H18   H     H_    0.879926 0.600337 0.310376 0.148833
H19   H     H_    0.941969 0.462497 0.892391 0.118289
H20   H     H_    0.850270 0.321769 0.065689 0.125456
N1    N     N_R   0.500790 0.500930 0.147930 -0.181604
N2    N     N_R   0.500790 0.500890 0.852020 -0.180649
O1    O     O_R   0.500000 0.319640 0.618810 -0.577985
O2    O     O_R   0.500010 0.319680 0.381230 -0.593199
O3    O     O_R   0.319640 0.499990 0.618790 -0.592879
O4    O     O_R   0.319650 0.500030 0.381210 -0.566182
O5    O     O_R   0.499990 0.680320 0.618770 -0.581618
O6    O     O_R   0.500000 0.680360 0.381190 -0.582757
O7    O     O_R   0.680350 0.499970 0.618790 -0.570491
O8    O     O_R   0.680360 0.500010 0.381210 -0.589354
H21   H     H_    0.812795 0.224436 0.557709 0.101427
H22   H     H_    0.393536 0.337582 0.867385 0.133582
H23   H     H_    0.053162 0.474046 0.121843 0.116763
H24   H     H_    0.120240 0.400036 0.689938 0.147617

loop_
_geom_bond_atom_site_label_1
_geom_bond_atom_site_label_2
_ccdc_geom_bond_type
Cu1   O1    S    
C16   C21   A    
C3    H18   S    
C1    C17   S    
C19   C20   A    
C20   C23   S    
C26   H10   S    
C27   N2    A    
C24   H8    S    
C32   C33   A    
C23   O5    A    
C13   H3    S    
C33   C34   A    
C9    C15   A    
C35   H23   S    
C7    C8    A    
C16   C24   S    
C36   H17   S    
C8    C34   S    
C21   C22   S    
C1    O2    A    
C25   C28   A    
C6    H24   S    
C11   C13   A    
C26   C27   A    
C29   C30   S    
C27   H22   S    
C5    C6    A    
Cu1   O7    S    
C23   O6    A    
Cu1   O5    S    
C28   C29   S    
Cu1   O3    S    
Cu1   Cu2   S    
C19   H5    S    
C17   C18   A    
C6    C7    A    
Cu2   O4    S    
C29   H12   S    
C28   N2    A    
C3    C8    A    
C29   H13   S    
C31   O8    A    
C12   O4    A    
C30   H15   S    
C22   C24   S    
C7    C12   S    
C5    C15   S    
C4    C31   S    
C32   H11   S    
C10   C11   A    
C31   O7    A    
C11   H2    S    
Cu1   N2    S    
C16   C17   A    
Cu2   O6    S    
C25   C30   S    
C22   H7    S    
C18   C19   A    
C20   C21   A    
C9    H19   S    
C2    C32   A    
C34   C35   A    
C9    C10   A    
C2    C36   A    
C33   H16   S    
C12   O3    A    
C30   H14   S    
C14   C15   A    
C14   H21   S    
C26   N1    A    
C25   N1    A    
C18   H4    S    
C10   H20   S    
C13   C14   A    
C24   H9    S    
C2    H1    S    
C22   H6    S    
C3    C4    A    
Cu2   N1    S    
Cu2   O8    S    
C4    C5    A    
Cu2   O2    S    
C35   C36   A    
C1    O1    A    
