data_mof_unit_42253.cif
_audit_creation_date              2012-12-10T17:31:55-0500
_audit_creation_method            fapswitch 2.2
_symmetry_space_group_name_H-M    P1
_symmetry_Int_Tables_number       1
_space_group_crystal_system       triclinic
_cell_length_a                    12.196735
_cell_length_b                    11.48903
_cell_length_c                    12.632969
_cell_angle_alpha                 92.940356
_cell_angle_beta                  94.811228
_cell_angle_gamma                 86.211607
_cell_volume                      1758.28422191

loop_
_atom_site_label
_atom_site_type_symbol
_atom_type_description
_atom_site_fract_x
_atom_site_fract_y
_atom_site_fract_z
_atom_type_partial_charge
C1    C     C_R   0.477312 0.515767 0.300287 0.921876
C2    C     C_R   0.522621 0.481778 0.698823 0.913768
C3    C     C_R   0.044830 0.650763 0.514907 0.473571
C4    C     C_R   0.955009 0.348901 0.485450 0.475577
C5    C     C_R   0.157443 0.628122 0.543623 0.112962
C6    C     C_R   0.842456 0.371789 0.456406 0.097211
C7    C     C_R   0.141224 0.430132 0.483311 0.545381
C8    C     C_R   0.858926 0.569586 0.516682 0.552063
C9    C     C_R   0.024938 0.443196 0.494201 -0.300041
C10   C     C_R   0.975109 0.556446 0.505762 -0.300769
C11   C     C_R   0.500066 0.282410 0.499505 0.880279
C12   C     C_R   0.499867 0.717585 0.500338 0.912748
C13   C     C_1   0.500324 0.161785 0.499525 -0.097689
C14   C     C_1   0.499305 0.838219 0.499940 -0.090061
C15   C     C_1   0.499994 0.059396 0.499562 0.059744
C16   C     C_1   0.499394 0.940619 0.499692 0.046399
C17   C     C_R   0.537544 0.449216 0.809786 -0.303663
C18   C     C_R   0.463076 0.540775 0.187287 -0.205420
C19   C     C_R   0.351628 0.523011 0.021490 -0.006811
C20   C     C_R   0.651522 0.461957 0.974305 0.008339
C21   C     C_R   0.359019 0.554984 0.130613 0.372765
C22   C     C_R   0.641977 0.434630 0.864887 0.449538
C23   C     C_R   0.558653 0.540092 0.133073 0.025044
C24   C     C_R   0.443574 0.444384 0.865578 0.059108
C25   C     C_R   0.554870 0.498834 0.026552 -0.067016
C26   C     C_R   0.448987 0.485804 0.971796 0.036736
N1    N     N_R   0.792200 0.479100 0.480660 -0.189625
N2    N     N_R   0.207800 0.520900 0.519340 -0.183246
O1    O     O_R   0.578300 0.494420 0.341180 -0.645423
O2    O     O_R   0.421700 0.505580 0.658820 -0.638510
O3    O     O_R   0.390690 0.507830 0.353590 -0.497046
O4    O     O_R   0.609310 0.492170 0.646410 -0.506227
O5    O     O_R   0.593810 0.327740 0.493800 -0.632153
O6    O     O_R   0.406190 0.672260 0.506200 -0.638186
O7    O     O_R   0.406190 0.341150 0.506220 -0.556181
O8    O     O_R   0.593810 0.658850 0.493780 -0.539875
Zn1   Zn    Zn3+2 0.625270 0.491050 0.491710 1.062140
Zn2   Zn    Zn3+2 0.374730 0.508950 0.508290 1.060217
N3    N     N_3   0.345338 0.394564 0.815754 -0.365281
H1    H     H_    0.364859 0.341930 0.749105 0.212983
H2    H     H_    0.321064 0.334527 0.867380 0.210650
N4    N     N_3   0.651599 0.597339 0.184425 -0.399804
H3    H     H_    0.714859 0.536946 0.209415 0.204125
H4    H     H_    0.678483 0.656697 0.133712 0.214763
S1    S     S_3+6 0.755560 0.363860 0.802207 0.085691
O9    O     O_2   0.714125 0.290810 0.706976 -0.279135
O10   O     O_2   0.827684 0.453777 0.768096 -0.235529
O11   O     O_3   0.830967 0.275657 0.886511 -0.512644
H5    H     H_    0.893708 0.243730 0.846725 0.402171
S2    S     S_3+6 0.243954 0.625641 0.192026 0.054894
O12   O     O_2   0.173380 0.535109 0.227612 -0.247050
O13   O     O_2   0.283804 0.700982 0.286381 -0.256731
O14   O     O_3   0.166387 0.712030 0.107869 -0.560441
H6    H     H_    0.103360 0.742632 0.147892 0.408191
N5    N     N_3   0.247358 0.531207 0.959590 -0.394363
H7    H     H_    0.187641 0.493881 0.999446 0.254347
H8    H     H_    0.224815 0.618788 0.946470 0.269377
N6    N     N_3   0.758008 0.443425 0.030203 -0.351069
H9    H     H_    0.752612 0.391143 0.094643 0.211756
H10   H     H_    0.791689 0.522987 0.052576 0.205918
S3    S     S_3+6 0.812273 0.689443 0.602400 0.115753
O15   O     O_2   0.727066 0.657472 0.672181 -0.263572
O16   O     O_2   0.907616 0.729341 0.675448 -0.270545
O17   O     O_3   0.759749 0.802150 0.530430 -0.492368
H11   H     H_    0.748917 0.868018 0.583018 0.383104
S4    S     S_3+6 0.188397 0.307682 0.400248 0.118149
O18   O     O_2   0.233873 0.209320 0.468148 -0.247195
O19   O     O_2   0.093067 0.266334 0.328040 -0.267074
O20   O     O_3   0.283950 0.336114 0.319483 -0.510217
H12   H     H_    0.305533 0.259827 0.284560 0.361951
N7    N     N_3   0.783980 0.281842 0.398259 -0.396116
H13   H     H_    0.716588 0.318419 0.352330 0.215540
H14   H     H_    0.759116 0.223513 0.450815 0.272733
N8    N     N_3   0.215934 0.718283 0.601421 -0.387414
H15   H     H_    0.283315 0.681880 0.647483 0.228320
H16   H     H_    0.240778 0.776349 0.548616 0.271392
S5    S     S_3+6 0.004803 0.786231 0.456403 0.105820
O21   O     O_2   0.904176 0.774199 0.380342 -0.265595
O22   O     O_2   0.982572 0.879595 0.540922 -0.206764
O23   O     O_3   0.107528 0.826418 0.388132 -0.513148
H17   H     H_    0.077517 0.897823 0.352437 0.412665
S6    S     S_3+6 0.994323 0.213778 0.545242 0.112032
O24   O     O_2   0.017872 0.119609 0.461801 -0.187617
O25   O     O_2   0.093955 0.226497 0.622481 -0.274324
O26   O     O_3   0.890778 0.173603 0.612299 -0.521246
H18   H     H_    0.920170 0.101850 0.647787 0.405395

loop_
_geom_bond_atom_site_label_1
_geom_bond_atom_site_label_2
_ccdc_geom_bond_type
S4    O19   D    
N5    H7    S    
C18   C21   A    
N3    H2    S    
O14   H6    S    
C1    C18   S    
C23   N4    S    
N8    H16   S    
O8    Zn1   S    
C19   C21   A    
C24   C26   A    
O26   H18   S    
S5    O23   S    
S4    O20   S    
C20   C25   A    
N6    H10   S    
C15   C16   S    
C1    O3    A    
C24   N3    S    
O2    Zn2   S    
C2    O4    A    
C5    N8    S    
S3    O16   D    
C19   C26   A    
S2    O13   D    
C12   O8    A    
C9    C10   A    
C8    S3    S    
S1    O10   D    
S4    O18   D    
C2    C17   S    
S3    O15   D    
N4    H4    S    
C21   S2    S    
S5    O22   D    
C6    N7    S    
C17   C24   A    
N8    H15   S    
C18   C23   A    
S2    O14   S    
C11   O5    A    
O7    Zn2   S    
C4    C6    A    
N3    H1    S    
N7    H14   S    
C25   C26   A    
S5    O21   D    
O5    Zn1   S    
C7    N2    A    
S3    O17   S    
C5    N2    A    
C6    N1    A    
N2    Zn2   S    
C1    O1    A    
S2    O12   D    
O4    Zn1   S    
O11   H5    S    
C12   C14   S    
S6    O25   D    
N5    H8    S    
C14   C16   T    
N4    H3    S    
C20   N6    S    
C3    S5    S    
S1    O11   S    
C19   N5    S    
C7    C9    A    
O6    Zn2   S    
C20   C22   A    
O23   H17   S    
C3    C5    A    
S6    O26   S    
C17   C22   A    
O3    Zn2   S    
C2    O2    A    
O17   H11   S    
C13   C15   T    
N6    H9    S    
N7    H13   S    
C3    C10   A    
C7    S4    S    
C11   C13   S    
N1    Zn1   S    
C11   O7    A    
C23   C25   A    
O20   H12   S    
S1    O9    D    
C22   S1    S    
C4    S6    S    
C8    C10   A    
S6    O24   D    
O1    Zn1   S    
C8    N1    A    
C4    C9    A    
C12   O6    A    
