data_mof_unit_33430.cif
_audit_creation_date              2012-12-10T18:29:42-0500
_audit_creation_method            fapswitch 2.2
_symmetry_space_group_name_H-M    P1
_symmetry_Int_Tables_number       1
_space_group_crystal_system       triclinic
_cell_length_a                    11.518031
_cell_length_b                    14.979198
_cell_length_c                    15.320233
_cell_angle_alpha                 82.644555
_cell_angle_beta                  89.899119
_cell_angle_gamma                 103.94135
_cell_volume                      2542.78125158

loop_
_atom_site_label
_atom_site_type_symbol
_atom_type_description
_atom_site_fract_x
_atom_site_fract_y
_atom_site_fract_z
_atom_type_partial_charge
C1    C     C_R   0.483220 0.442214 0.662914 0.878609
C2    C     C_R   0.725683 0.641625 0.996023 -0.310869
C3    C     C_R   0.667113 0.838792 0.644706 -0.267478
C4    C     C_R   0.313719 0.157203 0.367112 -0.244476
C5    C     C_R   0.640066 0.750767 0.619877 -0.000551
C6    C     C_R   0.349214 0.247070 0.387145 0.040618
C7    C     C_R   0.514718 0.795338 0.508825 0.008047
C8    C     C_R   0.487320 0.204790 0.489048 0.009715
C9    C     C_R   0.528798 0.883455 0.536665 -0.034568
C10   C     C_R   0.448603 0.110748 0.477248 -0.018097
C11   C     C_R   0.614038 0.906876 0.601867 0.005624
C12   C     C_R   0.518496 0.557680 0.337415 0.885313
C13   C     C_R   0.362761 0.088089 0.412291 -0.023734
C14   C     C_R   0.466045 0.949484 0.499574 -0.163111
C15   C     C_R   0.497572 0.040772 0.524074 -0.134299
C16   C     C_R   0.717975 0.500739 0.500124 0.895867
C17   C     C_R   0.282058 0.499355 0.499668 0.889050
C18   C     C_R   0.572759 0.059177 0.596751 0.350446
C19   C     C_R   0.366883 0.926413 0.443899 0.379104
C20   C     C_R   0.643024 0.996511 0.625965 0.396959
C21   C     C_R   0.325221 0.996828 0.394161 0.338684
C22   C     C_1   0.838967 0.502061 0.499952 -0.195160
C23   C     C_R   0.497674 0.338831 0.934643 0.042931
C24   C     C_1   0.161212 0.498499 0.498828 -0.191483
C25   C     C_1   0.941053 0.501364 0.499338 -0.017418
C26   C     C_1   0.059230 0.499530 0.498725 -0.019773
C27   C     C_R   0.482056 0.407193 0.757031 -0.202834
C28   C     C_R   0.552782 0.590077 0.244865 -0.191614
C29   C     C_R   0.446653 0.278265 0.875159 -0.174822
C30   C     C_R   0.691913 0.692916 0.136043 -0.177738
C31   C     C_R   0.443125 0.311713 0.786259 -0.279710
C32   C     C_R   0.636967 0.674374 0.219826 -0.277216
C33   C     C_R   0.524434 0.469084 0.818106 0.488666
C34   C     C_R   0.669557 0.624557 0.079483 0.025561
C35   C     C_R   0.519813 0.526628 0.184332 0.501161
C36   C     C_R   0.547345 0.433649 0.904186 -0.050348
C37   C     C_R   0.590008 0.537301 0.107079 -0.038235
C38   C     C_3   0.638235 0.181835 0.682050 0.118044
C39   C     C_3   0.652766 0.162417 0.781630 -0.273497
C40   C     C_3   0.744099 0.241555 0.814870 -1.001859
C41   C     C_3   0.193458 0.813225 0.482929 0.130432
C42   C     C_3   0.203044 0.803504 0.583408 -0.383098
C43   C     C_3   0.079141 0.776006 0.628503 -0.990562
C44   C     C_3   0.317523 0.479217 0.165492 0.054544
C45   C     C_R   0.607167 0.492393 0.963433 -0.145874
C46   C     C_3   0.241697 0.501689 0.238116 -0.336771
C47   C     C_3   0.122624 0.516826 0.203939 -0.965400
C48   C     C_3   0.451230 0.597251 0.832392 0.091813
C49   C     C_3   0.353238 0.605745 0.766754 -0.324014
C50   C     C_3   0.260487 0.649060 0.804501 -1.002029
C51   C     C_3   0.657961 0.336796 0.194271 0.055303
C52   C     C_3   0.661077 0.301658 0.292056 -0.288824
C53   C     C_3   0.788435 0.304255 0.320930 -0.985796
C54   C     C_3   0.828380 0.533858 0.850124 0.081629
C55   C     C_3   0.902899 0.562833 0.764268 -0.321280
C56   C     C_R   0.576374 0.466148 0.053105 -0.127079
C57   C     C_3   0.976921 0.493808 0.749714 -0.985453
C58   C     C_3   0.842850 0.066825 0.632993 0.052052
C59   C     C_3   0.922722 0.000677 0.620512 -0.371497
C60   C     C_3   0.045013 0.053358 0.579541 -0.916261
C61   C     C_3   0.299972 0.967993 0.252754 0.089698
C62   C     C_3   0.208191 0.949116 0.181369 -0.317826
C63   C     C_3   0.267745 0.942450 0.094157 -0.980681
C64   C     C_R   0.536216 0.369823 0.084394 0.547266
C65   C     C_R   0.695313 0.576326 0.937312 0.533287
C66   C     C_R   0.498410 0.306778 0.024356 -0.323638
H1    H     H_    0.465584 0.233646 0.048403 0.158676
H2    H     H_    0.678883 0.697434 0.653466 0.186356
H3    H     H_    0.727282 0.852483 0.698250 0.194435
H4    H     H_    0.246792 0.141972 0.318023 0.184488
H5    H     H_    0.615142 0.250073 0.669166 0.155856
H6    H     H_    0.723261 0.190923 0.644233 0.105907
H7    H     H_    0.565200 0.153832 0.816025 0.219650
H8    H     H_    0.681200 0.097068 0.799199 0.259505
H9    H     H_    0.833425 0.249345 0.783186 0.263164
H10   H     H_    0.750914 0.226420 0.887283 0.267403
H11   H     H_    0.715873 0.307575 0.800055 0.267636
H12   H     H_    0.790559 0.706546 0.975271 0.164993
H13   H     H_    0.142639 0.745544 0.464757 0.171120
H14   H     H_    0.139977 0.864176 0.460781 0.171654
H15   H     H_    0.252937 0.750084 0.605113 0.243791
H16   H     H_    0.252165 0.870551 0.603828 0.228646
H17   H     H_    0.025952 0.826457 0.604672 0.269761
H18   H     H_    0.088302 0.775760 0.700604 0.269715
H19   H     H_    0.030992 0.705792 0.614803 0.273658
H20   H     H_    0.263744 0.418682 0.136629 0.169861
H21   H     H_    0.338724 0.538260 0.110761 0.111109
H22   H     H_    0.223761 0.443576 0.293129 0.232475
H23   H     H_    0.663057 0.724357 0.265745 0.179862
H24   H     H_    0.291451 0.565516 0.263992 0.203287
H25   H     H_    0.138207 0.575461 0.149551 0.264946
H26   H     H_    0.070538 0.533479 0.258090 0.270233
H27   H     H_    0.069416 0.453045 0.179800 0.259227
H28   H     H_    0.493554 0.667386 0.849534 0.171587
H29   H     H_    0.410248 0.554450 0.894905 0.109898
H30   H     H_    0.393798 0.649818 0.705161 0.251163
H31   H     H_    0.307906 0.535819 0.750528 0.209533
H32   H     H_    0.218202 0.606343 0.866221 0.265291
H33   H     H_    0.189949 0.652656 0.756042 0.284889
H34   H     H_    0.407524 0.263047 0.740742 0.200443
H35   H     H_    0.302888 0.720514 0.818173 0.273246
H36   H     H_    0.716289 0.408555 0.181751 0.138049
H37   H     H_    0.693733 0.290756 0.155318 0.126724
H38   H     H_    0.622997 0.346081 0.330892 0.266564
H39   H     H_    0.605538 0.229272 0.305681 0.215981
H40   H     H_    0.828591 0.259657 0.283568 0.261975
H41   H     H_    0.786753 0.278123 0.392239 0.263280
H42   H     H_    0.844688 0.376515 0.309935 0.272773
H43   H     H_    0.773992 0.461729 0.850025 0.142435
H44   H     H_    0.890311 0.535703 0.906144 0.123186
H45   H     H_    0.410570 0.205072 0.897239 0.146896
H46   H     H_    0.843056 0.568133 0.707934 0.236878
H47   H     H_    0.963776 0.631996 0.767069 0.223841
H48   H     H_    0.033772 0.484101 0.806929 0.271128
H49   H     H_    0.035870 0.520458 0.689963 0.276244
H50   H     H_    0.917223 0.425893 0.740031 0.269234
H51   H     H_    0.892661 0.121319 0.671158 0.172231
H52   H     H_    0.826905 0.103395 0.567475 0.102293
H53   H     H_    0.935581 0.962067 0.685260 0.233817
H54   H     H_    0.879405 0.950177 0.576238 0.218054
H55   H     H_    0.034549 0.091793 0.514204 0.264392
H56   H     H_    0.755109 0.759009 0.116795 0.148819
H57   H     H_    0.100317 0.003685 0.570443 0.267055
H58   H     H_    0.092542 0.103134 0.623140 0.266563
H59   H     H_    0.345626 0.909931 0.262535 0.164296
H60   H     H_    0.367284 0.034198 0.230079 0.132022
H61   H     H_    0.140941 0.882923 0.202723 0.228412
H62   H     H_    0.161089 0.006100 0.171603 0.221350
H63   H     H_    0.333665 0.008672 0.070673 0.261340
H64   H     H_    0.198714 0.928517 0.043858 0.267737
H65   H     H_    0.313970 0.884957 0.102056 0.267384
H66   H     H_    0.561217 0.229801 0.529001 0.139475
H67   H     H_    0.466851 0.775510 0.451504 0.194690
H68   H     H_    0.309396 0.300402 0.354828 0.158442
N1    N     N_R   0.566020 0.731700 0.552730 -0.128561
N2    N     N_R   0.433980 0.268300 0.447270 -0.126708
O1    O     O_R   0.466720 0.383110 0.605620 -0.620799
O2    O     O_3   0.307450 0.834947 0.439377 -0.667933
O3    O     O_3   0.419465 0.453461 0.201918 -0.600590
O4    O     O_3   0.541759 0.564007 0.793598 -0.600881
O5    O     O_3   0.538436 0.335383 0.172424 -0.601156
O6    O     O_3   0.754361 0.595864 0.855735 -0.612517
O7    O     O_3   0.735996 0.020153 0.682428 -0.665429
O8    O     O_3   0.240414 0.974548 0.331450 -0.651529
O9    O     O_R   0.533280 0.616890 0.394380 -0.626631
O10   O     O_R   0.509090 0.531900 0.639510 -0.569449
O11   O     O_R   0.490910 0.468100 0.360490 -0.571987
O12   O     O_R   0.644370 0.425610 0.483050 -0.632764
O13   O     O_R   0.355630 0.574390 0.516950 -0.611886
O14   O     O_R   0.686740 0.574390 0.516930 -0.614077
O15   O     O_R   0.313260 0.425610 0.483070 -0.618437
O16   O     O_3   0.541016 0.114645 0.654893 -0.646632
Zn1   Zn    Zn3+2 0.471710 0.400660 0.477370 0.936047
Zn2   Zn    Zn3+2 0.528290 0.599340 0.522630 0.939445

loop_
_geom_bond_atom_site_label_1
_geom_bond_atom_site_label_2
_ccdc_geom_bond_type
C15   C18   A    
C30   C32   A    
C59   H54   S    
C65   O6    S    
C48   H29   S    
C55   H46   S    
C8    N2    A    
C34   C37   A    
C43   H17   S    
C41   C42   S    
C42   H16   S    
C9    C14   A    
C2    C65   A    
C41   H14   S    
C4    H4    S    
C57   H49   S    
C27   C33   A    
C51   H36   S    
C50   H33   S    
N1    Zn2   S    
C48   H28   S    
C12   C28   S    
C23   C29   A    
C23   C66   A    
C3    H3    S    
C24   C26   T    
C7    H67   S    
C10   C15   A    
C62   H61   S    
C63   H63   S    
C18   O16   S    
C63   H64   S    
C64   O5    S    
C33   O4    S    
C51   H37   S    
C58   H52   S    
C33   C36   A    
C54   H44   S    
C5    N1    A    
C47   H26   S    
C39   H8    S    
C4    C13   A    
C60   H58   S    
C6    N2    A    
C35   O3    S    
C46   C47   S    
C37   C56   A    
C53   H40   S    
C30   H56   S    
C28   C35   A    
C22   C25   T    
C8    H66   S    
C59   H53   S    
C56   C64   A    
C61   H60   S    
C63   H65   S    
C44   H21   S    
C61   C62   S    
C2    C34   A    
C39   H7    S    
C66   H1    S    
C59   C60   S    
C43   H18   S    
C20   O7    S    
C1    O10   A    
C17   O15   A    
C42   H15   S    
C5    H2    S    
C44   H20   S    
C58   O7    S    
C38   O16   S    
C44   C46   S    
C57   H50   S    
C46   H22   S    
C51   O5    S    
C38   H6    S    
C11   C20   A    
C50   H32   S    
C17   C24   S    
C30   C34   A    
C27   C31   A    
C51   C52   S    
C43   H19   S    
C28   C32   A    
C45   C56   A    
C4    C6    A    
C39   C40   S    
C48   O4    S    
C55   H47   S    
C25   C26   S    
C58   H51   S    
C40   H10   S    
C54   H43   S    
C64   C66   A    
C12   O9    A    
C60   H57   S    
O13   Zn2   S    
C7    N1    A    
C62   C63   S    
C2    H12   S    
C53   H41   S    
C61   O8    S    
C32   H23   S    
O10   Zn2   S    
C47   H27   S    
O1    Zn1   S    
C36   C45   A    
C31   H34   S    
C9    C11   A    
C41   O2    S    
O9    Zn2   S    
C8    C10   A    
C48   C49   S    
C54   O6    S    
C52   H39   S    
C23   C36   A    
C44   O3    S    
C55   C57   S    
C45   C65   A    
C42   C43   S    
C1    O1    A    
C52   C53   S    
C12   O11   A    
C7    C9    A    
C54   C55   S    
C52   H38   S    
C16   C22   S    
C35   C37   A    
C14   C15   A    
C47   H25   S    
C14   C19   A    
C29   H45   S    
C17   O13   A    
C21   O8    S    
C3    C5    A    
C10   C13   A    
C41   H13   S    
C16   O14   A    
C57   H48   S    
C46   H24   S    
C40   H9    S    
C16   O12   A    
C58   C59   S    
C29   C31   A    
C13   C21   A    
C62   H62   S    
N2    Zn1   S    
C53   H42   S    
C38   C39   S    
C19   O2    S    
C18   C20   A    
O15   Zn1   S    
C49   H30   S    
C60   H55   S    
O11   Zn1   S    
C3    C11   A    
C49   H31   S    
C50   H35   S    
C6    H68   S    
C49   C50   S    
O14   Zn2   S    
C1    C27   S    
C40   H11   S    
C61   H59   S    
O12   Zn1   S    
C38   H5    S    
C19   C21   A    
