data_mof_unit_54139.cif
_audit_creation_date              2013-03-05T16:33:41-0500
_audit_creation_method            fapswitch 2.2
_symmetry_space_group_name_H-M    P1
_symmetry_Int_Tables_number       1
_space_group_crystal_system       triclinic
_cell_length_a                    9.063705
_cell_length_b                    10.841601
_cell_length_c                    9.59754
_cell_angle_alpha                 89.604886
_cell_angle_beta                  89.724412
_cell_angle_gamma                 91.990693
_cell_volume                      942.499349814

loop_
_atom_site_label
_atom_site_type_symbol
_atom_site_description
_atom_site_fract_x
_atom_site_fract_y
_atom_site_fract_z
_atom_type_partial_charge
O1    O     O_R   0.500000 0.319640 0.618810 -0.540532
O2    O     O_R   0.500020 0.319680 0.381230 -0.597518
C1    C     C_R   0.497899 0.262432 0.500237 0.798468
O3    O     O_R   0.288380 0.499980 0.618770 -0.539588
O4    O     O_R   0.288400 0.500020 0.381190 -0.578082
C2    C     C_R   0.220831 0.499513 0.500213 0.835997
Cu1   Cu    Cu3+1 0.499990 0.499980 0.640670 1.015758
Cu2   Cu    Cu3+1 0.500010 0.500020 0.359330 1.015495
O5    O     O_R   0.499980 0.680320 0.618770 -0.603573
O6    O     O_R   0.500000 0.680360 0.381190 -0.529619
O7    O     O_R   0.711600 0.499980 0.618810 -0.544982
O8    O     O_R   0.711620 0.500020 0.381230 -0.536070
C3    C     C_R   0.498841 0.737373 0.499578 0.779078
C4    C     C_R   0.779088 0.499056 0.499853 0.832076
C5    C     C_1   0.065563 0.498669 0.500463 -0.089007
C6    C     C_1   0.934331 0.498314 0.499947 -0.065143
C7    C     C_R   0.540031 0.063694 0.618296 0.124111
C8    C     C_R   0.500944 0.129025 0.499080 -0.076782
C9    C     C_R   0.473020 0.064145 0.375117 -0.227263
H1    H     H_    0.446210 0.111987 0.279575 0.169275
C10   C     C_R   0.472458 0.935737 0.374935 -0.198908
H2    H     H_    0.444531 0.887601 0.279662 0.189893
C11   C     C_R   0.502496 0.870766 0.498054 -0.091264
C12   C     C_R   0.541981 0.936480 0.617477 0.101380
C13   C     C_3   0.477913 0.925933 0.760754 -0.497768
C14   C     C_3   0.473543 0.065163 0.760970 -0.413802
H3    H     H_    0.366818 0.879127 0.763307 0.209900
H4    H     H_    0.557456 0.890590 0.836939 0.177334
H5    H     H_    0.358801 0.097295 0.761261 0.246742
H6    H     H_    0.548770 0.109182 0.838696 0.202380
C15   C     C_R   0.627221 0.524903 0.071817 0.125379
N1    N     N_R   0.500920 0.500930 0.147930 -0.215411
C16   C     C_R   0.379563 0.460327 0.076481 -0.116927
H7    H     H_    0.282381 0.427852 0.133324 0.200724
C17   C     C_R   0.379486 0.457438 0.928493 0.375216
N2    N     N_R   0.500930 0.500890 0.852020 -0.261463
C18   C     C_R   0.626489 0.525666 0.925886 0.125589
C19   C     C_3   0.729726 0.635174 0.914313 0.094837
C20   C     C_3   0.734956 0.634090 0.076379 0.572806
H8    H     H_    0.672435 0.711774 0.863494 0.070867
N3    N     N_R   0.876544 0.598068 0.136036 0.137507
O9    O     O_R   0.941947 0.665731 0.230050 -0.405099
O10   O     O_R   0.927560 0.489744 0.110395 -0.320109
O11   O     O_3   0.671724 0.734874 0.146966 -0.607424
C21   C     C_3   0.723021 0.853172 0.099143 0.023340
H9    H     H_    0.623724 0.906760 0.076197 0.156882
H10   H     H_    0.788985 0.853386 0.002081 0.092671
C22   C     C_3   0.813582 0.921290 0.211327 -0.288458
H11   H     H_    0.763172 0.904964 0.315651 0.239831
H12   H     H_    0.927274 0.886949 0.213427 0.244057
C23   C     C_3   0.825348 0.059915 0.181802 -0.884852
H13   H     H_    0.880923 0.077935 0.079889 0.268293
H14   H     H_    0.891169 0.106364 0.264803 0.261762
H15   H     H_    0.714225 0.099761 0.179770 0.260171
N4    N     N_R   0.251863 0.404319 0.862400 0.132921
O12   O     O_R   0.121518 0.439277 0.898347 -0.317913
O13   O     O_R   0.262513 0.303363 0.791744 -0.385789
O14   O     O_3   0.861439 0.600426 0.847433 -0.522602
C24   C     C_3   0.961019 0.702499 0.826488 0.146363
H16   H     H_    0.068929 0.664375 0.797225 0.201598
H17   H     H_    0.981769 0.754625 0.924033 0.124865
C25   C     C_3   0.912929 0.787996 0.707526 -0.429192
H18   H     H_    0.871790 0.732306 0.618391 0.238117
H19   H     H_    0.822521 0.846552 0.743523 0.201232
C26   C     C_3   0.040560 0.872761 0.657226 -0.881685
H20   H     H_    0.083576 0.930139 0.744507 0.258037
H21   H     H_    0.001324 0.934796 0.573686 0.266295
H22   H     H_    0.131054 0.817569 0.614267 0.249579

loop_
_geom_bond_atom_site_label_1
_geom_bond_atom_site_label_2
_geom_bond_distance
_ccdc_geom_bond_type
C7    C8    1.395167 A    
O4    Cu2   1.928408 S    
Cu1   O7    1.928409 S    
N4    O12   1.298987 A    
C18   C19   1.489100 S    
C13   H3    1.111805 S    
Cu1   N2    2.028591 S    
C23   H14   1.110546 S    
C9    H1    1.083163 S    
Cu2   O8    1.930459 S    
C11   C12   1.395293 A    
C23   H15   1.109839 S    
N1    C16   1.360754 A    
C26   H22   1.111319 S    
C22   H12   1.107995 S    
C16   H7    1.081032 S    
C13   C14   1.511396 S    
C24   H16   1.110569 S    
C20   N3    1.471751 S    
O1    Cu1   1.967840 S    
C21   H9    1.110180 S    
O11   C21   1.421319 S    
C13   H4    1.105281 S    
C19   H8    1.106349 S    
N3    O10   1.301623 A    
C25   H18   1.109031 S    
C14   H5    1.108187 S    
O3    Cu1   1.930458 S    
C7    C14   1.493817 S    
C10   H2    1.082665 S    
C22   H11   1.109117 S    
C9    C10   1.391997 A    
C15   C20   1.509153 S    
C14   H6    1.111901 S    
O2    C1    1.295891 A    
N4    O13   1.297728 A    
C10   C11   1.404101 A    
O4    C2    1.293433 A    
O7    C4    1.292900 A    
C4    C6    1.407385 S    
C24   H17   1.110319 S    
C7    C12   1.380002 A    
C26   H21   1.110667 S    
C5    C6    1.189353 T    
C20   O11   1.425234 S    
C17   N4    1.427545 S    
C23   H13   1.111032 S    
Cu2   N1    2.028853 S    
C15   C18   1.400595 A    
Cu1   Cu2   2.700167 S    
C19   C20   1.556361 S    
C12   C13   1.492222 S    
C3    C11   1.445397 S    
C1    C8    1.447682 S    
Cu2   O6    1.967840 S    
C26   H20   1.110937 S    
N3    O9    1.299131 A    
C21   H10   1.104438 S    
Cu1   O5    1.965002 S    
C8    C9    1.405842 A    
O5    C3    1.296966 A    
N2    C18   1.363451 A    
C24   C25   1.539809 S    
C25   H19   1.109188 S    
C21   C22   1.534849 S    
C25   C26   1.526580 S    
C16   C17   1.420893 A    
C2    C5    1.407006 S    
C19   O14   1.416450 S    
O14   C24   1.416136 S    
O3    C2    1.294659 A    
O6    C3    1.297390 A    
C22   C23   1.527450 S    
O2    Cu2   1.965000 S    
C15   N1    1.371244 A    
O8    C4    1.295065 A    
O1    C1    1.299703 A    
C17   N2    1.386957 A    
