data_mof_unit_22285.cif
_audit_creation_date              2012-12-11T14:21:17-0500
_audit_creation_method            fapswitch 2.2
_symmetry_space_group_name_H-M    P1
_symmetry_Int_Tables_number       1
_space_group_crystal_system       triclinic
_cell_length_a                    21.959591
_cell_length_b                    7.207696
_cell_length_c                    14.930963
_cell_angle_alpha                 90.041895
_cell_angle_beta                  106.858435
_cell_angle_gamma                 90.011556
_cell_volume                      2261.68074182

loop_
_atom_site_label
_atom_site_type_symbol
_atom_type_description
_atom_site_fract_x
_atom_site_fract_y
_atom_site_fract_z
_atom_type_partial_charge
O1    O     O_R   0.584770 0.505770 0.002090 -0.541194
O2    O     O_R   0.415230 0.005770 0.997910 -0.541032
O3    O     O_R   0.467060 0.173340 0.861950 -0.537833
O4    O     O_R   0.532940 0.673340 0.138050 -0.537664
C1    C     C_R   0.455255 0.344061 0.826019 0.677730
C2    C     C_R   0.544759 0.844228 0.173962 0.677833
O5    O     O_R   0.587510 0.175890 0.993210 -0.540786
O6    O     O_R   0.412490 0.675890 0.006790 -0.540731
O7    O     O_R   0.536540 0.008150 0.130100 -0.537466
O8    O     O_R   0.463460 0.508150 0.869900 -0.537585
C3    C     C_R   0.612962 0.344933 0.997410 0.731506
C4    C     C_R   0.387038 0.844908 0.002583 0.731548
O9    O     O_3   0.483140 0.340040 0.044760 -0.377509
O10   O     O_3   0.516860 0.840040 0.955240 -0.377794
V1    V     V_3+5 0.503130 0.064190 0.991700 1.425982
V2    V     V_3+5 0.496870 0.564190 0.008300 1.426165
C5    C     C_2   0.213955 0.727648 0.003277 -0.086159
C6    C     C_2   0.785987 0.227627 0.996532 -0.085913
C7    C     C_2   0.180404 0.886836 0.996668 -0.287539
C8    C     C_2   0.819602 0.386788 0.003350 -0.286980
H1    H     H_    0.190712 0.596746 0.008412 0.161764
H2    H     H_    0.809170 0.096736 0.991186 0.160572
H3    H     H_    0.202126 0.019215 0.990499 0.127035
H4    H     H_    0.797934 0.519150 0.009711 0.126108
C9    C     C_2   0.281886 0.714630 0.003314 -0.129274
C10   C     C_2   0.718063 0.214652 0.996530 -0.129844
C11   C     C_2   0.319945 0.861407 0.003545 -0.300423
C12   C     C_2   0.680055 0.361448 0.996442 -0.300237
H5    H     H_    0.301038 0.575643 0.003667 0.139757
H6    H     H_    0.698863 0.075671 0.996057 0.139318
H7    H     H_    0.302031 0.001232 0.003994 0.133954
H8    H     H_    0.698006 0.501272 0.996081 0.133542
C13   C     C_R   0.924795 0.884406 0.724606 -0.059078
C14   C     C_R   0.075293 0.385461 0.275366 -0.059160
C15   C     C_R   0.572749 0.849851 0.275327 -0.025568
C16   C     C_R   0.427360 0.348851 0.724607 -0.026448
C17   C     C_R   0.935548 0.837065 0.569933 -0.160022
C18   C     C_R   0.064382 0.349614 0.430613 -0.160148
C19   C     C_R   0.962611 0.844838 0.666307 -0.225270
C20   C     C_R   0.037256 0.353687 0.334192 -0.226597
C21   C     C_R   0.858658 0.909350 0.686802 0.171334
C22   C     C_R   0.141637 0.406390 0.312743 0.171509
C23   C     C_R   0.829350 0.871716 0.590088 0.040682
C24   C     C_R   0.170748 0.372784 0.409870 0.040354
C25   C     C_R   0.869489 0.852094 0.531317 0.110903
C26   C     C_R   0.130561 0.361024 0.468940 0.110726
C27   C     C_R   0.762236 0.853056 0.549084 0.072792
C28   C     C_R   0.237728 0.351173 0.451021 0.072400
C29   C     C_R   0.735911 0.859195 0.449732 0.055099
C30   C     C_R   0.264203 0.362086 0.550255 0.055103
C31   C     C_R   0.778100 0.859104 0.394060 -0.182740
C32   C     C_R   0.222102 0.369726 0.605976 -0.182778
C33   C     C_R   0.843460 0.847896 0.434373 -0.184962
C34   C     C_R   0.156658 0.361412 0.565897 -0.185176
C35   C     C_R   0.721609 0.807698 0.603526 -0.116220
C36   C     C_R   0.277934 0.298504 0.397085 -0.116640
C37   C     C_R   0.656247 0.794620 0.564299 -0.198750
C38   C     C_R   0.343199 0.282534 0.436355 -0.198269
C39   C     C_R   0.629063 0.819543 0.468493 0.130959
C40   C     C_R   0.370658 0.311641 0.531809 0.130670
C41   C     C_R   0.668409 0.852387 0.409553 0.082984
C42   C     C_R   0.331662 0.352085 0.590423 0.082710
C43   C     C_R   0.562865 0.803030 0.430520 -0.159116
C44   C     C_R   0.436707 0.291407 0.569881 -0.159087
C45   C     C_R   0.535016 0.815294 0.334292 -0.169545
C46   C     C_R   0.464708 0.306901 0.665947 -0.169129
C47   C     C_R   0.638523 0.872160 0.312454 -0.209235
C48   C     C_R   0.361796 0.375441 0.687279 -0.209633
H9    H     H_    0.874002 0.837532 0.389076 0.120965
H10   H     H_    0.126116 0.357127 0.611366 0.120972
H11   H     H_    0.664933 0.902006 0.263522 0.095858
H12   H     H_    0.335686 0.410551 0.735946 0.096586
H13   H     H_    0.484122 0.795973 0.305638 0.114471
H14   H     H_    0.515400 0.283952 0.694768 0.114770
H15   H     H_    0.626871 0.760415 0.609128 0.131300
H16   H     H_    0.372248 0.242574 0.391910 0.131569
H17   H     H_    0.966222 0.816065 0.525527 0.125279
H18   H     H_    0.033622 0.334796 0.475331 0.125420
H19   H     H_    0.013537 0.826842 0.695338 0.114785
H20   H     H_    0.986163 0.339276 0.305479 0.114669
H21   H     H_    0.762062 0.855144 0.318742 0.119486
H22   H     H_    0.238178 0.369884 0.681315 0.119454
H23   H     H_    0.740078 0.769365 0.676167 0.176538
H24   H     H_    0.259113 0.256678 0.324964 0.177010
H25   H     H_    0.532782 0.775775 0.475172 0.121005
H26   H     H_    0.466498 0.258244 0.525513 0.121125
O11   O     O_R   0.036450 0.233070 0.130130 -0.540665
O12   O     O_R   0.963550 0.733070 0.869870 -0.540935
O13   O     O_R   0.912470 0.560570 0.006790 -0.546604
O14   O     O_R   0.087530 0.060570 0.993210 -0.545978
C49   C     C_R   0.886965 0.391919 0.002474 0.747202
C50   C     C_R   0.113034 0.891942 0.997524 0.746463
O15   O     O_R   0.032920 0.562940 0.138050 -0.526650
O16   O     O_R   0.967080 0.062940 0.861950 -0.525761
O17   O     O_R   0.084790 0.730500 0.002090 -0.528985
O18   O     O_R   0.915210 0.230500 0.997910 -0.528906
C51   C     C_R   0.045370 0.394523 0.174323 0.743615
C52   C     C_R   0.954588 0.894357 0.825680 0.742739
O19   O     O_3   0.016820 0.396170 0.955260 -0.381307
O20   O     O_3   0.983180 0.896170 0.044740 -0.382040
V3    V     V_3+5 0.996880 0.672090 0.008300 1.482416
V4    V     V_3+5 0.003120 0.172090 0.991700 1.484077
Br1   Br    Br    0.814656 0.036506 0.764440 -0.600302
Br2   Br    Br    0.186479 0.524304 0.233545 -0.601140

loop_
_geom_bond_atom_site_label_1
_geom_bond_atom_site_label_2
_ccdc_geom_bond_type
C43   C45   A    
C17   C25   A    
O18   V4    S    
C14   C22   A    
O2    C4    A    
C2    O7    A    
O12   V3    S    
C38   H16   S    
C27   C29   A    
O5    C3    A    
C13   C19   A    
C14   C20   A    
C16   C46   A    
C37   C39   A    
C15   C45   A    
C38   C40   A    
C46   H14   S    
C1    C16   S    
C14   C51   S    
C45   H13   S    
C2    C15   S    
C40   C42   A    
C13   C52   S    
O14   V4    S    
C7    C50   S    
C49   O18   A    
C8    H4    S    
C24   C26   A    
C29   C31   A    
C6    C10   S    
C30   C32   A    
C20   H20   S    
O13   C49   A    
C31   H21   S    
C47   H11   S    
C48   H12   S    
C28   C30   A    
C33   H9    S    
O6    V2    S    
C43   H25   S    
C21   C23   A    
C22   C24   A    
C44   H26   S    
C32   C34   A    
C36   H24   S    
C9    H5    S    
C8    C49   S    
C39   C41   A    
C29   C41   A    
C4    C11   S    
C11   H7    S    
C12   H8    S    
O4    C2    A    
O15   V3    S    
C18   H18   S    
C17   H17   S    
C50   O17   A    
C5    H1    S    
C21   Br1   S    
C31   C33   A    
C44   C46   A    
O4    V2    S    
C7    H3    S    
O11   V4    S    
C41   C47   A    
O14   C50   A    
C34   H10   S    
C15   C47   A    
O6    C4    A    
C26   C34   A    
O1    V2    S    
C32   H22   S    
O2    V1    S    
C23   C25   A    
C10   H6    S    
C35   C37   A    
C30   C42   A    
C35   H23   S    
O15   C51   A    
O3    V1    S    
C27   C35   A    
C28   C36   A    
O13   V3    S    
C6    H2    S    
C10   C12   D    
O3    C1    A    
C22   Br2   S    
C16   C48   A    
C9    C11   D    
C39   C43   A    
C42   C48   A    
C40   C44   A    
C13   C21   A    
C37   H15   S    
O7    V1    S    
C5    C9    S    
C1    O8    A    
C17   C19   A    
O8    V2    S    
C18   C20   A    
C3    C12   S    
O5    V1    S    
O20   V3    S    
C5    C7    D    
C36   C38   A    
C6    C8    D    
C18   C26   A    
C25   C33   A    
O17   V3    S    
O19   V4    S    
O16   V4    S    
O9    V2    S    
O16   C52   A    
O10   V1    S    
O1    C3    A    
C23   C27   A    
O12   C52   A    
C24   C28   A    
C19   H19   S    
O11   C51   A    
