data_mof_unit_5992.cif
_audit_creation_date              2012-12-10T17:15:12-0500
_audit_creation_method            fapswitch 2.2
_symmetry_space_group_name_H-M    P1
_symmetry_Int_Tables_number       1
_space_group_crystal_system       triclinic
_cell_length_a                    15.806299
_cell_length_b                    12.986288
_cell_length_c                    11.837656
_cell_angle_alpha                 99.700262
_cell_angle_beta                  90.913099
_cell_angle_gamma                 92.704885
_cell_volume                      2391.74513055

loop_
_atom_site_label
_atom_site_type_symbol
_atom_type_description
_atom_site_fract_x
_atom_site_fract_y
_atom_site_fract_z
_atom_type_partial_charge
C1    C     C_R   0.499257 0.299613 0.478689 0.797689
C2    C     C_R   0.500537 0.700397 0.521337 0.796296
C3    C     C_R   0.526834 0.018236 0.349329 0.155644
C4    C     C_R   0.472658 0.981815 0.650791 0.156690
C5    C     C_R   0.521354 0.126899 0.361443 -0.188310
C6    C     C_R   0.478328 0.873144 0.638704 -0.187191
C7    C     C_R   0.485219 0.138367 0.560889 -0.282229
C8    C     C_R   0.513885 0.861684 0.439093 -0.282974
C9    C     C_R   0.489126 0.030316 0.553509 0.085608
C10   C     C_R   0.510138 0.969737 0.446549 0.084046
C11   C     C_R   0.403958 0.423354 0.035847 -0.342561
C12   C     C_R   0.585852 0.591229 0.967702 -0.349031
C13   C     C_R   0.414607 0.430786 0.154289 0.039263
C14   C     C_R   0.577319 0.583028 0.849085 0.048626
C15   C     C_R   0.546659 0.525014 0.146917 0.304901
C16   C     C_R   0.455388 0.467484 0.849153 0.308583
C17   C     C_R   0.531258 0.532203 0.029416 0.011031
C18   C     C_R   0.462178 0.474728 0.970997 0.043322
C19   C     C_R   0.340240 0.500007 0.502449 0.824167
C20   C     C_R   0.659762 0.500006 0.497536 0.821686
C21   C     C_3   0.970939 0.504612 0.606080 0.175987
C22   C     C_3   0.029104 0.495785 0.393612 0.176207
C23   C     C_3   0.023599 0.416569 0.542775 0.178307
C24   C     C_3   0.976416 0.583821 0.456902 0.178220
C25   C     C_1   0.250673 0.500521 0.507334 -0.185220
C26   C     C_1   0.749335 0.499692 0.492545 -0.184768
C27   C     C_3   0.031298 0.588844 0.567504 -0.243811
C28   C     C_3   0.968730 0.411561 0.432170 -0.244753
C29   C     C_3   0.083209 0.500033 0.503709 0.021848
C30   C     C_3   0.916816 0.500356 0.496001 0.020968
C31   C     C_1   0.175043 0.500588 0.507476 -0.071291
C32   C     C_1   0.824971 0.499742 0.492318 -0.068893
C33   C     C_R   0.498225 0.813797 0.533774 -0.095305
C34   C     C_R   0.501281 0.186231 0.466283 -0.091116
Cu1   Cu    Cu3+1 0.506200 0.507730 0.615930 0.923969
Cu2   Cu    Cu3+1 0.493800 0.492270 0.384070 0.930656
H1    H     H_    0.941517 0.339586 0.377005 0.146745
H2    H     H_    0.058522 0.660831 0.622636 0.147506
H3    H     H_    0.529201 0.813146 0.359456 0.159432
H4    H     H_    0.469456 0.186949 0.640357 0.146973
H5    H     H_    0.465937 0.833006 0.709996 0.172761
H6    H     H_    0.534060 0.167050 0.290247 0.171271
H7    H     H_    0.620783 0.627397 0.803781 0.135889
H8    H     H_    0.367785 0.392899 0.201181 0.140083
H9    H     H_    0.349111 0.377112 0.998089 0.156420
H10   H     H_    0.635976 0.644008 0.009920 0.159669
N1    N     N_R   0.515540 0.519350 0.790140 -0.194843
N2    N     N_R   0.484460 0.480650 0.209860 -0.188264
O1    O     O_R   0.504400 0.354460 0.582000 -0.604001
O2    O     O_R   0.495600 0.645540 0.418000 -0.576377
O3    O     O_R   0.493920 0.341410 0.386200 -0.590224
O4    O     O_R   0.506080 0.658590 0.613800 -0.589744
O5    O     O_R   0.384320 0.506520 0.597880 -0.582516
O6    O     O_R   0.615680 0.493480 0.402120 -0.584973
O7    O     O_R   0.373840 0.493460 0.402080 -0.582556
O8    O     O_R   0.626160 0.506540 0.597920 -0.578083
C35   C     C_3   0.056010 0.320154 0.584910 -0.393595
C36   C     C_3   0.983798 0.247096 0.612607 -0.839749
H11   H     H_    0.947814 0.285382 0.686284 0.254115
H12   H     H_    0.940244 0.223753 0.537153 0.249767
H13   H     H_    0.010221 0.175524 0.635798 0.239993
H14   H     H_    0.094507 0.276887 0.516629 0.197993
H15   H     H_    0.097776 0.344947 0.661809 0.197551
C37   C     C_3   0.943792 0.680094 0.414680 -0.393125
C38   C     C_3   0.015856 0.753116 0.386488 -0.840761
H16   H     H_    0.059646 0.776510 0.461685 0.250295
H17   H     H_    0.051614 0.714776 0.312610 0.254721
H18   H     H_    0.989308 0.824656 0.363394 0.240002
H19   H     H_    0.901789 0.655111 0.338009 0.198904
H20   H     H_    0.905451 0.723453 0.483086 0.198357
C39   C     C_3   0.932815 0.515570 0.725339 -0.383261
C40   C     C_3   0.000596 0.522943 0.819949 -0.852590
H21   H     H_    0.033357 0.448671 0.813384 0.253948
H22   H     H_    0.047761 0.588048 0.814917 0.251834
H23   H     H_    0.970373 0.537995 0.904783 0.241319
H24   H     H_    0.896717 0.587797 0.739957 0.197993
H25   H     H_    0.887699 0.448236 0.729177 0.203863
C41   C     C_3   0.067463 0.484888 0.274492 -0.382149
C42   C     C_3   0.999886 0.477517 0.179646 -0.855260
H26   H     H_    0.952804 0.412254 0.184373 0.250114
H27   H     H_    0.967016 0.551718 0.186253 0.253665
H28   H     H_    0.030310 0.462698 0.094935 0.241869
H29   H     H_    0.112586 0.552260 0.270846 0.204408
H30   H     H_    0.103602 0.412691 0.259976 0.197324
C43   C     C_3   0.550975 0.953526 0.235145 -0.412524
C44   C     C_3   0.570057 0.013861 0.137278 -0.862285
H31   H     H_    0.513391 0.054394 0.114968 0.253068
H32   H     H_    0.624467 0.071163 0.161036 0.251119
H33   H     H_    0.587269 0.958158 0.060241 0.243828
H34   H     H_    0.608569 0.911172 0.249728 0.199385
H35   H     H_    0.498437 0.894903 0.205029 0.208756
C45   C     C_3   0.448909 0.046593 0.765138 -0.416192
C46   C     C_3   0.429995 0.986228 0.863035 -0.858282
H36   H     H_    0.375551 0.928951 0.839413 0.252674
H37   H     H_    0.486695 0.945656 0.885151 0.252992
H38   H     H_    0.412917 0.041910 0.940157 0.243016
H39   H     H_    0.501633 0.105029 0.794977 0.205382
H40   H     H_    0.391383 0.089266 0.750986 0.197889
C47   C     C_3   0.381446 0.400415 0.787493 -0.367878
C48   C     C_3   0.298138 0.457110 0.800238 -0.820034
H41   H     H_    0.306541 0.537184 0.779703 0.270785
H42   H     H_    0.248983 0.412466 0.741131 0.229750
H43   H     H_    0.274285 0.464527 0.888524 0.233137
H44   H     H_    0.392087 0.373135 0.697147 0.245780
H45   H     H_    0.374222 0.324909 0.819259 0.145919
C49   C     C_3   0.639054 0.542771 0.187713 -0.330605
C50   C     C_3   0.661009 0.652361 0.255076 -0.814393
H46   H     H_    0.636756 0.713015 0.209011 0.220540
H47   H     H_    0.634902 0.663522 0.341695 0.273726
H48   H     H_    0.730929 0.664681 0.264937 0.219512
H49   H     H_    0.660868 0.477645 0.227141 0.210995
H50   H     H_    0.681838 0.532196 0.113682 0.154964

loop_
_geom_bond_atom_site_label_1
_geom_bond_atom_site_label_2
_ccdc_geom_bond_type
C25   C31   T    
C5    H6    S    
C11   C18   A    
C26   C32   T    
C46   H36   S    
C22   C29   S    
Cu1   O5    S    
Cu1   Cu2   S    
C24   C27   S    
C20   O8    A    
Cu1   N1    S    
C43   H35   S    
C45   H40   S    
C35   H14   S    
C49   H50   S    
C43   C44   S    
C21   C39   S    
C23   C29   S    
C15   C49   S    
C39   H24   S    
C44   H32   S    
C3    C43   S    
C49   C50   S    
C27   H2    S    
C36   H12   S    
C27   C29   S    
C15   C17   A    
C48   H41   S    
C2    O2    A    
C41   H29   S    
C38   H17   S    
C6    H5    S    
C12   C17   A    
Cu1   O1    S    
C50   H46   S    
C8    H3    S    
C37   H20   S    
C9    C10   A    
C19   O5    A    
C36   H13   S    
C47   H44   S    
C21   C27   S    
C46   H37   S    
C22   C28   S    
C50   H47   S    
C20   O6    A    
C15   N2    A    
C40   H23   S    
C16   N1    A    
C45   H39   S    
C35   H15   S    
C49   H49   S    
C47   H45   S    
C22   C41   S    
C40   H22   S    
C42   H27   S    
C41   C42   S    
C36   H11   S    
C23   C28   S    
C48   H43   S    
C42   H28   S    
C47   C48   S    
C7    H4    S    
C38   H18   S    
C1    C34   S    
C5    C34   A    
C48   H42   S    
C17   C18   A    
C16   C18   A    
C37   H19   S    
C1    O3    A    
Cu2   O3    S    
C2    O4    A    
C23   C35   S    
C2    C33   S    
C12   H10   S    
C12   C14   A    
C46   H38   S    
C21   C23   S    
C50   H48   S    
C22   C24   S    
C11   H9    S    
C4    C6    A    
C39   H25   S    
Cu2   O2    S    
C19   O7    A    
C7    C9    A    
Cu1   O8    S    
C44   H31   S    
C8    C10   A    
C40   H21   S    
C3    C5    A    
C44   H33   S    
C13   N2    A    
C43   H34   S    
C16   C47   S    
C14   N1    A    
C21   C30   S    
C6    C33   A    
C37   C38   S    
C28   C30   S    
C39   C40   S    
C29   C31   S    
Cu2   O7    S    
C30   C32   S    
C11   C13   A    
C35   C36   S    
C20   C26   S    
C28   H1    S    
C45   C46   S    
C7    C34   A    
Cu2   N2    S    
C8    C33   A    
C19   C25   S    
C24   C30   S    
Cu2   O6    S    
C42   H26   S    
C41   H30   S    
C24   C37   S    
C38   H16   S    
Cu1   O4    S    
C3    C10   A    
C4    C9    A    
C1    O1    A    
C13   H8    S    
C14   H7    S    
C4    C45   S    
