data_mof_unit_32789.cif
_audit_creation_date              2012-12-10T19:25:49-0500
_audit_creation_method            fapswitch 2.2
_symmetry_space_group_name_H-M    P1
_symmetry_Int_Tables_number       1
_space_group_crystal_system       triclinic
_cell_length_a                    9.779159
_cell_length_b                    10.503835
_cell_length_c                    16.427572
_cell_angle_alpha                 90.104748
_cell_angle_beta                  84.464389
_cell_angle_gamma                 89.624712
_cell_volume                      1679.50784603

loop_
_atom_site_label
_atom_site_type_symbol
_atom_type_description
_atom_site_fract_x
_atom_site_fract_y
_atom_site_fract_z
_atom_type_partial_charge
C1    C     C_R   0.499490 0.742389 0.500456 1.047881
C2    C     C_R   0.500646 0.257742 0.499027 0.947575
C3    C     C_3   0.371190 0.961738 0.510493 0.796959
C4    C     C_3   0.629307 0.038782 0.488019 0.771693
C5    C     C_3   0.430042 0.042262 0.437493 -0.258649
C6    C     C_3   0.570592 0.958342 0.560983 -0.285249
C7    C     C_3   0.501492 0.122972 0.498464 -0.219707
C8    C     C_3   0.499039 0.877378 0.500150 -0.219720
C9    C     C_3   0.440776 0.044474 0.571534 -0.349519
C10   C     C_3   0.559843 0.955949 0.427014 -0.271011
C11   C     C_3   0.947121 0.611351 0.519597 -0.001890
C12   C     C_3   0.052866 0.388651 0.480411 -0.017865
C13   C     C_3   0.055245 0.580566 0.448666 0.006681
C14   C     C_3   0.944724 0.419413 0.551336 0.044176
C15   C     C_3   0.036926 0.529637 0.571670 -0.165020
C16   C     C_3   0.963055 0.470336 0.428348 -0.168406
C17   C     C_R   0.479855 0.501747 0.653732 0.882369
C18   C     C_R   0.520105 0.500737 0.346378 1.014088
C19   C     C_R   0.463879 0.538515 0.739471 -0.235609
C20   C     C_R   0.535889 0.534352 0.260520 -0.195664
C21   C     C_R   0.516950 0.656995 0.758680 0.514761
C22   C     C_R   0.500084 0.659426 0.241964 0.435471
C23   C     C_R   0.497746 0.705039 0.837851 -0.104607
C24   C     C_R   0.518249 0.704100 0.162113 -0.081097
C25   C     C_R   0.427670 0.630267 0.899652 -0.060319
C26   C     C_R   0.570680 0.620071 0.099415 -0.028725
C27   C     C_R   0.366443 0.513228 0.880287 -0.052939
C28   C     C_R   0.613845 0.494898 0.117771 -0.098231
C29   C     C_R   0.387441 0.465250 0.799291 -0.133873
C30   C     C_R   0.594275 0.450306 0.199349 -0.122130
C31   C     C_2   0.438541 0.661362 0.985840 -0.096535
C32   C     C_2   0.562482 0.654295 0.013641 -0.082645
H1    H     H_    0.898169 0.704917 0.535626 0.191035
H2    H     H_    0.101791 0.295069 0.464403 0.183080
H3    H     H_    0.072648 0.553556 0.631953 0.160548
H4    H     H_    0.927309 0.446316 0.368086 0.177113
H5    H     H_    0.653958 0.642822 0.970984 0.146166
H6    H     H_    0.346380 0.659741 0.028531 0.140232
H7    H     H_    0.371995 0.080390 0.387933 0.197095
H8    H     H_    0.630466 0.922445 0.610228 0.247746
H9    H     H_    0.391232 0.084471 0.629777 0.200272
H10   H     H_    0.610073 0.916434 0.368830 0.223149
N1    N     N_3   0.136700 0.499970 0.500060 -0.121095
N2    N     N_3   0.863300 0.500030 0.499940 -0.120201
O1    O     O_R   0.383390 0.686040 0.500000 -0.559980
O2    O     O_R   0.616610 0.313960 0.500000 -0.563890
O3    O     O_R   0.616650 0.686050 0.499970 -0.612363
O4    O     O_R   0.383350 0.313950 0.500030 -0.638294
O5    O     O_R   0.369590 0.500020 0.615820 -0.629183
O6    O     O_R   0.630410 0.499980 0.384180 -0.583761
O7    O     O_R   0.602840 0.500020 0.615790 -0.600422
O8    O     O_R   0.397160 0.499980 0.384210 -0.638316
Zn1   Zn    Zn3+2 0.344250 0.499990 0.500020 0.989602
Zn2   Zn    Zn3+2 0.655750 0.500010 0.499980 1.025143
F1    F     F_    0.585153 0.727724 0.698742 -0.709244
F2    F     F_    0.449616 0.739356 0.303107 -0.712894
C33   C     C_2   0.622267 0.313893 0.218220 0.458180
H11   H     H_    0.620404 0.241844 0.171004 0.130229
O9    O     O_2   0.647624 0.279642 0.286147 -0.568262
C34   C     C_2   0.341425 0.335657 0.777157 0.489651
H12   H     H_    0.313573 0.316093 0.716088 0.051222
O10   O     O_2   0.340725 0.247524 0.825543 -0.499753
C35   C     C_2   0.281763 0.442690 0.945371 0.542952
H13   H     H_    0.312568 0.438023 0.007005 0.020172
O11   O     O_2   0.173822 0.393186 0.931384 -0.489418
C36   C     C_2   0.676809 0.411460 0.050572 0.406523
H14   H     H_    0.638592 0.413424 0.990725 0.071453
O12   O     O_2   0.775508 0.343425 0.060525 -0.511193
C37   C     C_2   0.482928 0.839520 0.147065 0.490361
H15   H     H_    0.415708 0.891860 0.191950 0.115470
O13   O     O_2   0.532080 0.895830 0.086353 -0.493868
C38   C     C_2   0.550804 0.834422 0.853304 0.517628
H16   H     H_    0.629547 0.876089 0.810593 0.111700
O14   O     O_2   0.503886 0.898051 0.911802 -0.472212
F3    F     F_    0.237612 0.918400 0.522727 -0.587591
F4    F     F_    0.762845 0.082254 0.475801 -0.579076
C39   C     C_2   0.122575 0.671920 0.387930 0.534027
H17   H     H_    0.190718 0.636672 0.336809 0.080013
O15   O     O_2   0.099628 0.785901 0.394877 -0.480565
C40   C     C_2   0.877269 0.327616 0.611767 0.495067
H18   H     H_    0.807465 0.362235 0.662337 0.054655
O16   O     O_2   0.901691 0.213846 0.605065 -0.491142

loop_
_geom_bond_atom_site_label_1
_geom_bond_atom_site_label_2
_ccdc_geom_bond_type
C25   C31   S    
C36   O12   D    
C35   O11   D    
C26   C32   S    
C10   H10   S    
C1    C8    S    
C2    C7    S    
C17   O7    A    
C6    C9    S    
C18   O8    A    
C20   C30   A    
C39   H17   S    
C2    O2    A    
O6    Zn2   S    
C19   C21   A    
C24   C26   A    
C12   N1    S    
C33   O9    D    
C27   C29   A    
C30   C33   S    
C34   O10   D    
C37   O13   D    
C11   C15   S    
N1    Zn1   S    
C12   C16   S    
C14   C40   S    
C3    F3    S    
C16   N2    S    
C18   C20   S    
C38   H16   S    
C36   H14   S    
O1    Zn1   S    
C4    C7    S    
C15   H3    S    
C24   C37   S    
C39   O15   D    
O4    Zn1   S    
C13   C39   S    
C11   H1    S    
C38   O14   D    
C3    C8    S    
C17   O5    A    
C5    C7    S    
C1    O3    A    
C22   F2    S    
C2    O4    A    
C34   H12   S    
C28   C36   S    
C3    C9    S    
C31   C32   D    
C29   C34   S    
O2    Zn2   S    
C11   N2    S    
C32   H5    S    
C27   C35   S    
O3    Zn2   S    
C40   O16   D    
C12   C14   S    
C21   C23   A    
C22   C24   A    
C4    C6    S    
C12   H2    S    
C19   C29   A    
C13   N1    S    
O8    Zn1   S    
C18   O6    A    
C14   N2    S    
C7    C9    S    
C21   F1    S    
C26   C28   A    
C23   C38   S    
C20   C22   A    
C40   H18   S    
C3    C5    S    
C6    C8    S    
C25   C27   A    
C9    H9    S    
C31   H6    S    
O7    Zn2   S    
C5    H7    S    
C15   N1    S    
C5    C10   S    
C16   H4    S    
C11   C13   S    
C1    O1    A    
C33   H11   S    
O5    Zn1   S    
C28   C30   A    
C17   C19   S    
C6    H8    S    
C23   C25   A    
C37   H15   S    
C4    F4    S    
C35   H13   S    
N2    Zn2   S    
C8    C10   S    
C13   C16   S    
C14   C15   S    
C4    C10   S    
