data_mof_unit_58056.cif
_audit_creation_date              2013-03-05T16:13:54-0500
_audit_creation_method            fapswitch 2.2
_symmetry_space_group_name_H-M    P1
_symmetry_Int_Tables_number       1
_space_group_crystal_system       triclinic
_cell_length_a                    20.323815
_cell_length_b                    22.63313
_cell_length_c                    6.937831
_cell_angle_alpha                 90.000028
_cell_angle_beta                  86.450844
_cell_angle_gamma                 90.000012
_cell_volume                      3185.22279442

loop_
_atom_site_label
_atom_site_type_symbol
_atom_site_description
_atom_site_fract_x
_atom_site_fract_y
_atom_site_fract_z
_atom_type_partial_charge
O1    O     O_R   0.751270 0.447300 0.600030 -0.590769
O2    O     O_R   0.248730 0.947300 0.399970 -0.590768
O3    O     O_R   0.613530 0.440160 0.952150 -0.587720
O4    O     O_R   0.386470 0.940160 0.047850 -0.587721
O5    O     O_R   0.613050 0.552700 0.122560 -0.597932
O6    O     O_R   0.386950 0.052700 0.877440 -0.597933
C1    C     C_R   0.591476 0.425336 0.787959 0.959280
C2    C     C_R   0.408524 0.925336 0.212041 0.959280
O7    O     O_R   0.750780 0.440350 0.929820 -0.573256
O8    O     O_R   0.249220 0.940350 0.070180 -0.573258
O9    O     O_R   0.751280 0.552900 0.100070 -0.565692
O10   O     O_R   0.248720 0.052900 0.899930 -0.565689
C3    C     C_R   0.773226 0.425394 0.757411 1.028791
C4    C     C_R   0.226774 0.925394 0.242589 1.028788
O11   O     O_R   0.613040 0.447100 0.622520 -0.594159
O12   O     O_R   0.386960 0.947100 0.377480 -0.594159
O13   O     O_3   0.682160 0.536920 0.777780 -0.257241
O14   O     O_3   0.317840 0.036920 0.222220 -0.257237
V1    V     V_3+5 0.682160 0.493150 0.052630 1.236711
V2    V     V_3+5 0.317840 0.993150 0.947370 1.236711
O15   O     O_R   0.750790 0.559840 0.429870 -0.569743
O16   O     O_R   0.249210 0.059840 0.570130 -0.569741
C5    C     C_R   0.774123 0.573774 0.256840 0.982088
C6    C     C_R   0.225877 0.073775 0.743160 0.982085
O17   O     O_R   0.613540 0.559650 0.452200 -0.597298
O18   O     O_R   0.386460 0.059650 0.547800 -0.597297
C7    C     C_R   0.591813 0.574719 0.287660 0.951362
C8    C     C_R   0.408187 0.074719 0.712340 0.951363
V3    V     V_3+5 0.682160 0.506850 0.552630 1.228672
V4    V     V_3+5 0.317840 0.006850 0.447370 1.228673
O19   O     O_3   0.682150 0.463080 0.277610 -0.263591
O20   O     O_3   0.317850 0.963080 0.722390 -0.263592
C9    C     C_R   0.573911 0.857642 0.076322 0.213593
C10   C     C_R   0.426089 0.357642 0.923678 0.213593
H1    H     H_    0.530272 0.943603 0.057458 0.150180
H2    H     H_    0.469727 0.443603 0.942542 0.150180
H3    H     H_    0.664126 0.769835 0.050658 0.173457
H4    H     H_    0.335874 0.269835 0.949341 0.173458
C11   C     C_R   0.463396 0.882384 0.203173 -0.160219
C12   C     C_R   0.536604 0.382384 0.796827 -0.160220
C13   C     C_R   0.475049 0.598136 0.363947 -0.308867
C14   C     C_R   0.524951 0.098136 0.636053 -0.308868
C15   C     C_R   0.419556 0.634503 0.361592 0.368037
C16   C     C_R   0.580444 0.134503 0.638409 0.368037
C17   C     C_R   0.425940 0.692568 0.288626 0.066834
C18   C     C_R   0.574060 0.192568 0.711374 0.066834
C19   C     C_R   0.489899 0.717318 0.248009 -0.020004
C20   C     C_R   0.510101 0.217318 0.751991 -0.020004
C21   C     C_R   0.544941 0.677701 0.235386 0.088101
C22   C     C_R   0.455059 0.177701 0.764614 0.088100
C23   C     C_R   0.501300 0.779168 0.212066 0.118099
C24   C     C_R   0.498700 0.279168 0.787934 0.118100
C25   C     C_R   0.563957 0.797902 0.130692 0.063260
C26   C     C_R   0.436043 0.297902 0.869307 0.063260
C27   C     C_R   0.615587 0.756947 0.107884 -0.158506
C28   C     C_R   0.384413 0.256947 0.892116 -0.158506
C29   C     C_R   0.606889 0.698588 0.165343 -0.177680
C30   C     C_R   0.393111 0.198588 0.834657 -0.177679
C31   C     C_R   0.453818 0.823526 0.262641 -0.197182
C32   C     C_R   0.546182 0.323526 0.737359 -0.197182
C33   C     C_R   0.523051 0.898552 0.107332 -0.193108
C34   C     C_R   0.476948 0.398552 0.892667 -0.193107
C35   C     C_R   0.536773 0.617739 0.291798 -0.218547
C36   C     C_R   0.463227 0.117739 0.708202 -0.218547
H5    H     H_    0.409203 0.813169 0.348158 0.158650
H6    H     H_    0.590796 0.313169 0.651842 0.158650
H7    H     H_    0.469673 0.553170 0.416492 0.177401
H8    H     H_    0.530327 0.053170 0.583508 0.177401
H9    H     H_    0.649272 0.669571 0.151056 0.113695
H10   H     H_    0.350728 0.169571 0.848944 0.113696
C37   C     C_R   0.171340 0.882095 0.261491 -0.217150
C38   C     C_R   0.828660 0.382095 0.738508 -0.217147
C39   C     C_R   0.158149 0.840778 0.114554 0.209917
C40   C     C_R   0.841851 0.340778 0.885445 0.209918
C41   C     C_R   0.103985 0.802483 0.139078 -0.169358
C42   C     C_R   0.896015 0.302483 0.860920 -0.169357
C43   C     C_R   0.062226 0.803609 0.309151 0.220432
C44   C     C_R   0.937774 0.303609 0.690847 0.220431
C45   C     C_R   0.076309 0.843410 0.455117 -0.103428
C46   C     C_R   0.923691 0.343411 0.544882 -0.103428
C47   C     C_R   0.129587 0.882414 0.431286 -0.112340
C48   C     C_R   0.870413 0.382414 0.568713 -0.112338
C49   C     C_R   0.886221 0.701597 0.376612 0.227039
C50   C     C_R   0.113778 0.201597 0.623385 0.227039
C51   C     C_R   0.834782 0.660092 0.384364 -0.178944
C52   C     C_R   0.165217 0.160092 0.615635 -0.178944
C53   C     C_R   0.934488 0.700442 0.218936 0.136491
C54   C     C_R   0.065512 0.200442 0.781063 0.136489
N1    N     N_2   0.007300 0.764562 0.341308 -0.046650
N2    N     N_2   0.992700 0.264562 0.658689 -0.046649
N3    N     N_2   0.988680 0.740567 0.192167 -0.060119
N4    N     N_2   0.011320 0.240567 0.807830 -0.060119
C55   C     C_R   0.828874 0.617642 0.238389 -0.340421
C56   C     C_R   0.171126 0.117643 0.761611 -0.340422
H11   H     H_    0.798225 0.661746 0.504656 0.191871
H12   H     H_    0.201775 0.161745 0.495342 0.191873
H13   H     H_    0.045311 0.844665 0.587804 0.154388
H14   H     H_    0.954689 0.344665 0.412194 0.154388
H15   H     H_    0.137780 0.913371 0.546430 0.163567
H16   H     H_    0.862220 0.413371 0.453570 0.163569
C57   C     C_R   0.876270 0.617397 0.080346 0.375050
C58   C     C_R   0.123730 0.117397 0.919655 0.375047
C59   C     C_R   0.927959 0.658457 0.073023 -0.238525
C60   C     C_R   0.072041 0.158457 0.926977 -0.238519
H17   H     H_    0.095393 0.771063 0.025696 0.159800
H18   H     H_    0.904608 0.271063 0.974303 0.159799
H19   H     H_    0.963984 0.657549 0.951110 0.181802
H20   H     H_    0.036016 0.157551 0.048890 0.181805
I1    I     I_    0.881469 0.764723 0.605005 -0.326780
I2    I     I_    0.118530 0.264721 0.394989 -0.326781
N5    N     N_R   0.874315 0.574602 0.929002 0.231482
O21   O     O_R   0.921655 0.536124 0.905255 -0.383371
O22   O     O_R   0.834551 0.582462 0.791459 -0.393368
N6    N     N_R   0.125685 0.074604 0.071004 0.231480
O23   O     O_R   0.078340 0.036133 0.094774 -0.383369
O24   O     O_R   0.165455 0.082463 0.208534 -0.393367
I3    I     I_    0.218131 0.828729 0.854866 -0.290240
I4    I     I_    0.781869 0.328729 0.145133 -0.290238
I5    I     I_    0.663041 0.890329 0.938409 -0.229027
I6    I     I_    0.336959 0.390329 0.061590 -0.229027
I7    I     I_    0.339740 0.728012 0.166274 -0.229428
I8    I     I_    0.660260 0.228013 0.833726 -0.229429
N7    N     N_R   0.356382 0.611314 0.428921 0.260439
O25   O     O_R   0.314550 0.644572 0.528444 -0.309322
O26   O     O_R   0.344037 0.555103 0.414765 -0.330513
N8    N     N_R   0.643618 0.111314 0.571080 0.260439
O27   O     O_R   0.685450 0.144572 0.471556 -0.309322
O28   O     O_R   0.655963 0.055103 0.585236 -0.330513

loop_
_geom_bond_atom_site_label_1
_geom_bond_atom_site_label_2
_geom_bond_distance
_ccdc_geom_bond_type
C49   C53   1.423656 A    
N8    O27   1.301350 A    
C21   C35   1.419320 A    
C53   N3    1.430728 S    
C38   C40   1.421051 A    
C22   C36   1.419322 A    
C4    C37   1.492849 S    
N5    O21   1.300610 A    
C11   C31   1.404551 A    
O4    C2    1.293949 A    
V1    O19   1.702784 S    
N6    O23   1.300614 A    
C21   C29   1.403215 A    
N7    O25   1.301349 A    
C13   H7    1.084274 S    
C44   N2    1.430423 S    
C43   N1    1.430424 S    
C40   C42   1.403145 A    
C12   C32   1.404551 A    
C42   C44   1.410397 A    
O3    C1    1.293949 A    
C44   C46   1.398145 A    
N7    O26   1.301630 A    
O12   V4    1.988214 S    
C10   C34   1.394460 A    
C12   C34   1.395061 A    
O17   V3    1.994708 S    
O7    C3    1.298418 A    
O9    V1    1.991928 S    
C24   C32   1.421401 A    
O5    C7    1.298254 A    
C51   C55   1.406488 A    
O7    V1    1.987942 S    
O6    C8    1.298253 A    
C54   N4    1.430729 S    
O8    V2    1.987940 S    
C42   H18   1.082597 S    
C1    C12   1.477849 S    
C49   I1    2.131303 S    
O3    V1    1.997566 S    
O14   V4    1.703877 S    
C2    C11   1.477849 S    
N1    N3    1.247905 D    
C52   C56   1.406487 A    
C25   C27   1.401708 A    
C32   H6    1.078200 S    
C2    O12   1.299943 A    
C14   H8    1.084273 S    
C13   C15   1.397167 A    
C14   C16   1.397167 A    
H2    C34   1.083815 S    
C54   C60   1.400714 A    
C24   C26   1.425168 A    
O11   V3    1.988212 S    
C18   C20   1.427424 A    
C17   C19   1.427424 A    
C9    C25   1.414920 A    
C40   I4    2.129450 S    
C26   C28   1.401707 A    
C39   I3    2.129449 S    
C22   C30   1.403217 A    
C19   C21   1.432102 A    
O8    C4    1.298418 A    
C55   C57   1.414005 A    
C37   C39   1.421052 A    
C30   H10   1.082833 S    
C19   C23   1.438185 A    
C1    O11   1.299944 A    
C47   H15   1.083169 S    
C17   I7    2.148813 S    
O15   V3    1.990530 S    
C50   I2    2.131302 S    
C5    C55   1.490896 S    
C23   C25   1.425169 A    
H3    C27   1.080456 S    
O1    C3    1.302866 A    
C58   N6    1.430878 S    
C6    C56   1.490898 S    
C7    C35   1.481970 S    
C15   C17   1.411419 A    
N2    N4    1.247904 D    
C16   N8    1.438002 S    
O10   V2    1.991929 S    
O1    V3    1.988655 S    
C43   C45   1.398144 A    
N5    O22   1.300325 A    
C58   C60   1.401139 A    
C20   C22   1.432101 A    
C41   C43   1.410396 A    
C52   H12   1.083125 S    
C53   C59   1.400715 A    
C8    C36   1.481967 S    
C46   C48   1.398914 A    
C49   C51   1.404038 A    
C10   C26   1.414921 A    
O15   C5    1.301902 A    
O16   C6    1.301903 A    
C23   C31   1.421400 A    
C39   C41   1.403147 A    
C15   N7    1.438003 S    
C60   H20   1.084069 S    
C11   C33   1.395060 A    
C45   C47   1.398915 A    
V2    O20   1.702783 S    
N8    O28   1.301628 A    
O16   V4    1.990530 S    
C46   H14   1.083201 S    
C48   H16   1.083168 S    
C45   H13   1.083201 S    
C50   C54   1.423656 A    
C50   C52   1.404040 A    
C14   C36   1.394047 A    
N6    O24   1.300324 A    
C9    I5    2.128289 S    
O5    V1    1.985049 S    
C3    C38   1.492850 S    
O17   C7    1.294933 A    
O6    V2    1.985054 S    
O10   C6    1.297779 A    
O18   C8    1.294934 A    
O2    V4    1.988653 S    
C27   C29   1.387832 A    
V3    O19   2.149899 S    
O13   V3    1.703876 S    
C31   H5    1.078200 S    
V4    O20   2.149900 S    
C51   H11   1.083126 S    
H1    C33   1.083813 S    
C9    C33   1.394461 A    
C57   N5    1.430876 S    
O9    C5    1.297780 A    
O13   V1    2.148843 S    
C28   C30   1.387831 A    
O14   V2    2.148842 S    
O2    C4    1.302867 A    
O4    V2    1.997568 S    
C20   C24   1.438185 A    
H4    C28   1.080456 S    
C56   C58   1.414006 A    
C10   I6    2.128286 S    
C57   C59   1.401137 A    
C13   C35   1.394048 A    
C18   I8    2.148813 S    
C59   H19   1.084068 S    
C41   H17   1.082596 S    
C29   H9    1.082833 S    
C16   C18   1.411420 A    
C38   C48   1.408574 A    
C37   C47   1.408573 A    
O18   V4    1.994707 S    
