data_mof_unit_20561.cif
_audit_creation_date              2012-12-10T17:50:41-0500
_audit_creation_method            fapswitch 2.2
_symmetry_space_group_name_H-M    P1
_symmetry_Int_Tables_number       1
_space_group_crystal_system       triclinic
_cell_length_a                    14.705589
_cell_length_b                    14.689989
_cell_length_c                    15.845137
_cell_angle_alpha                 77.185032
_cell_angle_beta                  102.600056
_cell_angle_gamma                 114.666807
_cell_volume                      3002.50859529

loop_
_atom_site_label
_atom_site_type_symbol
_atom_type_description
_atom_site_fract_x
_atom_site_fract_y
_atom_site_fract_z
_atom_type_partial_charge
C1    C     C_R   0.880442 0.312358 0.514201 0.793262
C2    C     C_R   0.119583 0.687695 0.485541 0.793898
C3    C     C_R   0.782437 0.030462 0.516568 -0.203283
C4    C     C_R   0.216226 0.972631 0.458898 -0.205211
C5    C     C_R   0.849679 0.130220 0.521382 -0.194585
C6    C     C_R   0.149606 0.871579 0.462790 -0.194297
C7    C     C_R   0.708941 0.178919 0.511029 -0.244994
C8    C     C_R   0.291239 0.821188 0.485454 -0.251132
C9    C     C_R   0.639139 0.079850 0.502188 0.090496
C10   C     C_R   0.359973 0.922587 0.479365 0.090754
C11   C     C_R   0.677787 0.004927 0.506248 0.165645
C12   C     C_R   0.320839 0.998557 0.468031 0.166704
C13   C     C_R   0.532559 0.053352 0.489410 0.064790
C14   C     C_R   0.466259 0.950156 0.486535 0.065237
C15   C     C_R   0.508292 0.878296 0.489441 -0.214815
C16   C     C_R   0.489991 0.126728 0.477518 -0.216703
C17   C     C_R   0.611860 0.905457 0.499079 -0.228630
C18   C     C_R   0.386284 0.099595 0.466446 -0.231341
C19   C     C_R   0.722729 0.678724 0.364462 0.387822
C20   C     C_R   0.275710 0.319129 0.632787 0.387740
C21   C     C_R   0.800880 0.643685 0.383186 -0.020287
C22   C     C_R   0.198357 0.355098 0.615440 -0.019437
C23   C     C_R   0.999529 0.500083 0.660019 0.829271
C24   C     C_R   0.000468 0.499911 0.339982 0.830123
C25   C     C_R   0.713117 0.507286 0.485464 -0.016451
C26   C     C_R   0.286836 0.492787 0.514449 -0.015853
C27   C     C_R   0.628802 0.535762 0.467270 -0.084155
C28   C     C_R   0.370270 0.463086 0.531081 -0.084265
C29   C     C_R   0.635665 0.624008 0.405836 0.047156
C30   C     C_R   0.362866 0.374027 0.591559 0.044965
C31   C     C_R   0.539430 0.481134 0.508605 0.115972
C32   C     C_R   0.459282 0.517268 0.489155 0.118020
C33   C     C_R   0.470851 0.606304 0.428476 -0.257110
C34   C     C_R   0.527235 0.391231 0.568217 -0.257119
C35   C     C_R   0.556594 0.657771 0.387543 -0.171680
C36   C     C_R   0.441350 0.339518 0.608904 -0.167806
C37   C     C_3   0.976207 0.404903 0.042554 -0.156774
C38   C     C_3   0.023779 0.595054 0.957459 -0.156487
C39   C     C_3   0.907373 0.440548 0.965889 -0.155680
C40   C     C_3   0.092613 0.559409 0.034123 -0.155764
C41   C     C_1   0.998666 0.500306 0.749611 -0.175592
C42   C     C_1   0.001324 0.499674 0.250395 -0.175435
C43   C     C_3   0.068031 0.464529 0.992268 -0.152344
C44   C     C_3   0.931955 0.535428 0.007744 -0.151949
C45   C     C_3   0.999200 0.500174 0.917148 0.184762
C46   C     C_3   0.000786 0.499784 0.082863 0.184752
C47   C     C_1   0.998612 0.500318 0.825244 -0.067295
C48   C     C_1   0.001375 0.499649 0.174765 -0.067303
C49   C     C_R   0.812915 0.205094 0.517474 -0.048681
C50   C     C_R   0.187077 0.795295 0.477181 -0.048853
Cu1   Cu    Cu3+1 0.081740 0.475690 0.522610 0.939892
Cu2   Cu    Cu3+1 0.918260 0.524310 0.477390 0.940420
H1    H     H_    0.831336 0.391805 0.936493 0.136910
H2    H     H_    0.168650 0.608152 0.063521 0.137012
H3    H     H_    0.284059 0.556765 0.467047 0.138338
H4    H     H_    0.716549 0.444408 0.534062 0.138072
H5    H     H_    0.131473 0.313899 0.647173 0.148140
H6    H     H_    0.867548 0.684367 0.351099 0.146889
H7    H     H_    0.414731 0.638881 0.410785 0.129040
H8    H     H_    0.582608 0.357712 0.584662 0.130670
H9    H     H_    0.956737 0.326872 0.078870 0.135396
H10   H     H_    0.043250 0.673086 0.921145 0.135736
H11   H     H_    0.876119 0.564534 0.015493 0.139496
H12   H     H_    0.123868 0.435423 0.984521 0.139290
H13   H     H_    0.640508 0.847856 0.500848 0.145036
H14   H     H_    0.357153 0.158363 0.457414 0.145961
H15   H     H_    0.317020 0.760241 0.499113 0.149287
H16   H     H_    0.684665 0.237830 0.513275 0.142589
H17   H     H_    0.069216 0.853138 0.456211 0.145811
H18   H     H_    0.929987 0.148959 0.526644 0.146267
H19   H     H_    0.812195 0.973466 0.519433 0.123877
H20   H     H_    0.186015 0.030592 0.449470 0.125853
H21   H     H_    0.463394 0.800261 0.482132 0.140196
H22   H     H_    0.534247 0.206755 0.474263 0.145084
H23   H     H_    0.560941 0.725590 0.341470 0.190381
H24   H     H_    0.436492 0.271007 0.654134 0.190171
N1    N     N_R   0.795440 0.560790 0.443380 -0.204954
N2    N     N_R   0.204560 0.439210 0.556620 -0.205503
O1    O     O_R   0.977900 0.338120 0.529810 -0.592644
O2    O     O_R   0.022100 0.661880 0.470190 -0.592006
O3    O     O_R   0.839850 0.379180 0.491620 -0.586844
O4    O     O_R   0.160150 0.620820 0.508380 -0.588205
O5    O     O_R   0.069010 0.479460 0.640020 -0.568598
O6    O     O_R   0.930990 0.520540 0.359980 -0.568804
O7    O     O_R   0.930960 0.520530 0.601820 -0.576066
O8    O     O_R   0.069040 0.479470 0.398180 -0.576075
O9    O     O_3   0.729632 0.763635 0.302979 -0.578823
C51   C     C_3   0.792229 0.850429 0.342551 -0.348035
H25   H     H_    0.871429 0.855326 0.360720 0.152235
H26   H     H_    0.762635 0.852296 0.400831 0.150676
H27   H     H_    0.793242 0.918550 0.294857 0.203223
O10   O     O_3   0.267371 0.232439 0.692261 -0.579339
C52   C     C_3   0.207611 0.147641 0.649249 -0.347583
H28   H     H_    0.241402 0.148268 0.592569 0.156053
H29   H     H_    0.128803 0.143221 0.627740 0.152479
H30   H     H_    0.204088 0.078054 0.695811 0.202939

loop_
_geom_bond_atom_site_label_1
_geom_bond_atom_site_label_2
_ccdc_geom_bond_type
C6    H17   S    
O9    C51   S    
C52   H28   S    
Cu1   O5    S    
C27   C29   A    
C24   C42   S    
C25   H4    S    
C26   H3    S    
C22   H5    S    
C20   C30   A    
C40   C46   S    
C20   O10   S    
C35   H23   S    
C26   N2    A    
C23   O5    A    
C16   H22   S    
Cu2   O7    S    
C19   C21   A    
C19   O9    S    
C1    O3    A    
C15   C17   A    
Cu2   O6    S    
C9    C13   A    
C38   C45   S    
C2    C50   S    
C7    H16   S    
C40   C43   S    
C4    C12   A    
C36   H24   S    
C39   C45   S    
C33   H7    S    
C13   C14   A    
C34   H8    S    
C5    C49   A    
Cu1   O8    S    
C44   C46   S    
C43   H12   S    
C45   C47   S    
C44   H11   S    
C46   C48   S    
C27   C31   A    
Cu1   Cu2   S    
C28   C32   A    
C2    O2    A    
C7    C49   A    
C4    C6    A    
C10   C14   A    
C37   C43   S    
C3    H19   S    
C38   C44   S    
C5    H18   S    
C9    C11   A    
C31   C32   A    
C51   H27   S    
C41   C47   T    
C31   C34   A    
C16   C18   A    
C42   C48   T    
C6    C50   A    
C43   C45   S    
Cu1   O4    S    
C22   N2    A    
C10   C12   A    
C8    C10   A    
C15   H21   S    
C51   H26   S    
C52   H30   S    
C40   H2    S    
C1    O1    A    
C25   N1    A    
C2    O4    A    
C18   H14   S    
C21   N1    A    
Cu2   N1    S    
C19   C29   A    
C8    C50   A    
C4    H20   S    
C7    C9    A    
C11   C17   A    
C17   H13   S    
C20   C22   A    
C3    C5    A    
C37   H9    S    
C39   C44   S    
C25   C27   A    
C29   C35   A    
C26   C28   A    
C23   C41   S    
C30   C36   A    
C32   C33   A    
C28   C30   A    
C24   O6    A    
Cu1   N2    S    
C21   H6    S    
C37   C39   S    
C38   C40   S    
C39   H1    S    
C24   O8    A    
O10   C52   S    
C33   C35   A    
C34   C36   A    
Cu2   O3    S    
Cu1   O1    S    
C3    C11   A    
C51   H25   S    
C8    H15   S    
C52   H29   S    
C23   O7    A    
C13   C16   A    
C12   C18   A    
C14   C15   A    
C37   C46   S    
Cu2   O2    S    
C1    C49   S    
C38   H10   S    
