data_mof_unit_40274.cif
_audit_creation_date              2012-12-10T17:47:44-0500
_audit_creation_method            fapswitch 2.2
_symmetry_space_group_name_H-M    P1
_symmetry_Int_Tables_number       1
_space_group_crystal_system       triclinic
_cell_length_a                    14.729496
_cell_length_b                    14.469765
_cell_length_c                    14.333154
_cell_angle_alpha                 77.486728
_cell_angle_beta                  102.592484
_cell_angle_gamma                 114.55934
_cell_volume                      2684.17411633

loop_
_atom_site_label
_atom_site_type_symbol
_atom_type_description
_atom_site_fract_x
_atom_site_fract_y
_atom_site_fract_z
_atom_type_partial_charge
C1    C     C_R   0.880570 0.311628 0.514734 0.831681
C2    C     C_R   0.119636 0.688346 0.486004 0.812101
C3    C     C_R   0.641495 0.073943 0.508004 -0.022478
C4    C     C_R   0.361729 0.923189 0.485298 -0.014139
C5    C     C_R   0.677296 0.997368 0.560261 0.058184
C6    C     C_R   0.325530 0.000712 0.436861 0.061150
C7    C     C_R   0.535786 0.049993 0.486683 0.039932
C8    C     C_R   0.467674 0.946762 0.503770 0.051489
C9    C     C_R   0.507477 0.869715 0.534107 -0.199727
C10   C     C_R   0.496549 0.127262 0.455344 -0.241453
C11   C     C_R   0.610268 0.893097 0.567459 -0.026299
C12   C     C_R   0.393563 0.104226 0.426562 -0.032853
C13   C     C_R   0.713985 0.666732 0.340820 -0.452522
C14   C     C_R   0.283675 0.330563 0.657408 -0.426234
C15   C     C_R   0.796943 0.636969 0.366269 0.673360
C16   C     C_R   0.202771 0.362011 0.632331 0.652277
C17   C     C_R   0.715522 0.511073 0.491427 -0.072261
C18   C     C_R   0.286843 0.492262 0.512211 -0.089129
C19   C     C_R   0.629853 0.537909 0.467899 -0.013550
C20   C     C_R   0.373975 0.467668 0.538852 -0.024751
C21   C     C_R   0.632636 0.621238 0.393535 0.066742
C22   C     C_R   0.370316 0.383411 0.612408 0.054343
C23   C     C_R   0.000234 0.500043 0.668934 0.793143
C24   C     C_R   0.999720 0.499910 0.331060 0.808488
C25   C     C_R   0.542829 0.485848 0.516206 0.094028
C26   C     C_R   0.462009 0.520880 0.492320 0.095964
C27   C     C_R   0.471483 0.608293 0.422844 -0.275066
C28   C     C_R   0.534275 0.399869 0.587636 -0.272026
C29   C     C_R   0.553686 0.657272 0.372486 0.033067
C30   C     C_R   0.451420 0.350834 0.637158 0.030064
C31   C     C_1   0.000481 0.499928 0.771323 -0.233919
C32   C     C_1   0.999243 0.499787 0.228666 -0.205907
C33   C     C_1   0.000350 0.499788 0.856747 -0.024261
C34   C     C_1   0.999178 0.499660 0.143253 -0.021073
C35   C     C_1   0.999898 0.499641 0.957330 -0.005024
C36   C     C_1   0.999481 0.499595 0.042682 -0.007176
C37   C     C_R   0.813292 0.202663 0.526970 -0.137948
C38   C     C_R   0.187902 0.797115 0.474834 -0.154631
C39   C     C_R   0.779030 0.027832 0.603708 -0.220220
C40   C     C_R   0.221893 0.972687 0.401503 -0.213707
C41   C     C_R   0.845383 0.130045 0.589525 -0.274279
C42   C     C_R   0.154523 0.871368 0.417909 -0.274316
C43   C     C_R   0.713660 0.172438 0.479536 0.368757
C44   C     C_R   0.289962 0.825613 0.516500 0.369433
Cu1   Cu    Cu3+1 0.081740 0.475690 0.523180 0.960813
Cu2   Cu    Cu3+1 0.918260 0.524310 0.476820 0.973093
H1    H     H_    0.416340 0.642398 0.406815 0.134857
H2    H     H_    0.591672 0.368609 0.607854 0.135194
H3    H     H_    0.076135 0.851354 0.386872 0.176760
H4    H     H_    0.921941 0.152121 0.626946 0.199214
H5    H     H_    0.807276 0.973965 0.651900 0.161848
H6    H     H_    0.192479 0.028049 0.358282 0.160586
H7    H     H_    0.459555 0.789975 0.530474 0.197192
H8    H     H_    0.544703 0.207257 0.456658 0.205729
H9    H     H_    0.280758 0.551134 0.453924 0.151648
H10   H     H_    0.722258 0.452528 0.549760 0.146321
H11   H     H_    0.710915 0.723774 0.279420 0.165883
H12   H     H_    0.277127 0.263899 0.711173 0.167563
N1    N     N_R   0.795420 0.560790 0.441960 -0.202345
N2    N     N_R   0.204580 0.439210 0.558040 -0.204403
O1    O     O_R   0.977910 0.338120 0.530560 -0.542927
O2    O     O_R   0.022090 0.661880 0.469440 -0.551652
O3    O     O_R   0.839850 0.379180 0.491410 -0.541972
O4    O     O_R   0.160150 0.620820 0.508590 -0.541175
O5    O     O_R   0.069040 0.479460 0.643530 -0.544755
O6    O     O_R   0.930960 0.520540 0.356470 -0.512042
O7    O     O_R   0.930990 0.520530 0.604380 -0.575961
O8    O     O_R   0.069010 0.479470 0.395620 -0.579763
C45   C     C_R   0.644424 0.806212 0.605478 0.117979
C46   C     C_R   0.590120 0.722428 0.669458 -0.154905
C47   C     C_R   0.620663 0.640331 0.704729 -0.129804
C48   C     C_R   0.705832 0.640742 0.676671 -0.097186
C49   C     C_R   0.759592 0.722447 0.612075 -0.128211
C50   C     C_R   0.728731 0.804236 0.575979 -0.168682
H13   H     H_    0.524381 0.720782 0.692557 0.144817
H14   H     H_    0.578134 0.576276 0.753735 0.125786
H15   H     H_    0.729346 0.577066 0.703893 0.127290
H16   H     H_    0.824788 0.722013 0.589271 0.133587
H17   H     H_    0.771383 0.866306 0.525674 0.120420
C51   C     C_R   0.359898 0.191271 0.392739 0.106623
C52   C     C_R   0.287391 0.199445 0.436587 -0.169831
C53   C     C_R   0.255442 0.280797 0.403579 -0.116584
C54   C     C_R   0.298273 0.356850 0.329255 -0.102210
C55   C     C_R   0.372732 0.351292 0.287376 -0.136581
C56   C     C_R   0.403198 0.268722 0.318599 -0.136766
H18   H     H_    0.255250 0.142578 0.495928 0.134037
H19   H     H_    0.198339 0.285572 0.436533 0.140667
H20   H     H_    0.274446 0.420583 0.304785 0.123358
H21   H     H_    0.406522 0.410729 0.230388 0.124835
H22   H     H_    0.460013 0.264738 0.284627 0.127742
O9    O     O_3   0.318294 0.760835 0.592386 -0.601459
C57   C     C_3   0.289600 0.767917 0.677777 0.106786
H23   H     H_    0.206611 0.727019 0.676600 0.121608
H24   H     H_    0.311280 0.849491 0.686729 0.083814
C58   C     C_3   0.342850 0.719742 0.765940 -0.357656
H25   H     H_    0.425648 0.762995 0.770128 0.202202
H26   H     H_    0.319855 0.726428 0.832271 0.165206
C59   C     C_3   0.317106 0.606514 0.763046 -0.753953
H27   H     H_    0.235171 0.561755 0.764128 0.245566
H28   H     H_    0.358995 0.575679 0.827378 0.203567
H29   H     H_    0.338670 0.596757 0.697334 0.273822
O10   O     O_3   0.690068 0.238248 0.401623 -0.618215
C60   C     C_3   0.689649 0.205651 0.315438 0.037450
H30   H     H_    0.621849 0.134206 0.303261 0.157354
H31   H     H_    0.759029 0.191252 0.317877 0.124454
C61   C     C_3   0.686423 0.289680 0.230876 -0.303786
H32   H     H_    0.618830 0.306691 0.227768 0.211572
H33   H     H_    0.754630 0.360857 0.241993 0.230644
C62   C     C_3   0.682639 0.257367 0.135089 -0.946097
H34   H     H_    0.750497 0.241607 0.135919 0.260016
H35   H     H_    0.680650 0.320065 0.075268 0.260551
H36   H     H_    0.613871 0.187443 0.121626 0.247545
C63   C     C_R   0.554364 0.748081 0.299640 0.111245
C64   C     C_R   0.475774 0.737740 0.221666 -0.159303
C65   C     C_R   0.473739 0.823523 0.155127 -0.131877
C66   C     C_R   0.549631 0.920293 0.166201 -0.108700
C67   C     C_R   0.627745 0.931412 0.243770 -0.146922
C68   C     C_R   0.630065 0.845828 0.310348 -0.150502
H37   H     H_    0.416195 0.663261 0.212514 0.120069
H38   H     H_    0.413154 0.815012 0.095100 0.121011
H39   H     H_    0.547870 0.986612 0.114718 0.114377
H40   H     H_    0.686505 0.006348 0.252356 0.118241
H41   H     H_    0.690913 0.855708 0.369830 0.124871
C69   C     C_R   0.452529 0.264743 0.714843 0.107053
C70   C     C_R   0.448720 0.173417 0.692213 -0.155729
C71   C     C_R   0.451660 0.092927 0.765540 -0.137099
C72   C     C_R   0.458843 0.103317 0.861919 -0.109994
C73   C     C_R   0.463197 0.194268 0.885048 -0.133407
C74   C     C_R   0.460306 0.274947 0.811843 -0.164333
H42   H     H_    0.443155 0.164626 0.617953 0.140319
H43   H     H_    0.448556 0.022629 0.747633 0.124932
H44   H     H_    0.461232 0.041011 0.918673 0.113224
H45   H     H_    0.469066 0.202341 0.959709 0.126838
H46   H     H_    0.464225 0.345289 0.830526 0.119820
O11   O     O_3   0.116403 0.309190 0.675757 -0.595066
C75   C     C_3   0.137903 0.305774 0.777589 0.028400
H47   H     H_    0.093275 0.341418 0.799152 0.175309
H48   H     H_    0.218441 0.349598 0.805632 0.117880
C76   C     C_3   0.104456 0.193945 0.825860 -0.358557
H49   H     H_    0.022338 0.153183 0.803077 0.221362
H50   H     H_    0.145273 0.155199 0.802732 0.215279
C77   C     C_3   0.125015 0.186602 0.935718 -0.908557
H51   H     H_    0.207123 0.224554 0.960312 0.253668
H52   H     H_    0.099029 0.104650 0.968494 0.254317
H53   H     H_    0.083809 0.223687 0.960755 0.257121
O12   O     O_3   0.880621 0.678371 0.317054 -0.583447
C78   C     C_3   0.887887 0.765866 0.247220 0.002514
H54   H     H_    0.968774 0.808168 0.238895 0.162855
H55   H     H_    0.866787 0.821535 0.271166 0.123448
C79   C     C_3   0.831257 0.734464 0.148396 -0.348741
H56   H     H_    0.868941 0.694696 0.121872 0.225451
H57   H     H_    0.752319 0.680003 0.154097 0.213980
C80   C     C_3   0.830271 0.827915 0.075077 -0.907732
H58   H     H_    0.790263 0.867010 0.099024 0.259232
H59   H     H_    0.790403 0.803151 0.004018 0.257133
H60   H     H_    0.908586 0.882734 0.066450 0.253680

loop_
_geom_bond_atom_site_label_1
_geom_bond_atom_site_label_2
_ccdc_geom_bond_type
C7    C10   A    
C39   H5    S    
Cu1   N2    S    
C71   C72   A    
Cu2   N1    S    
C27   C29   A    
C49   C50   A    
C58   H25   S    
C4    C8    A    
C73   C74   A    
C64   C65   A    
C58   C59   S    
C7    C8    A    
C39   C41   A    
Cu1   Cu2   S    
C25   C28   A    
C3    C43   A    
C26   C27   A    
C48   H15   S    
C20   C26   A    
Cu2   O2    S    
C78   H55   S    
C5    C11   A    
C3    C7    A    
C62   H35   S    
C6    C12   A    
C47   H14   S    
C76   C77   S    
C13   H11   S    
C61   H32   S    
C53   H19   S    
C66   C67   A    
C16   N2    A    
C23   O7    A    
C72   H44   S    
C17   C19   A    
C70   H42   S    
C78   H54   S    
C8    C9    A    
C79   C80   S    
C49   H16   S    
C31   C33   T    
C46   C47   A    
C80   H59   S    
C34   C36   S    
C52   H18   S    
C24   O6    A    
Cu1   O1    S    
C40   C42   A    
C54   H20   S    
C77   H53   S    
C45   C46   A    
C75   C76   S    
C10   H8    S    
C1    O3    A    
C2    O4    A    
C52   C53   A    
C14   H12   S    
C66   H39   S    
O12   C78   S    
O11   C75   S    
C78   C79   S    
C55   C56   A    
C4    C6    A    
C62   H36   S    
O9    C57   S    
C51   C52   A    
C4    C44   A    
C25   C26   A    
C40   H6    S    
C21   C29   A    
C53   C54   A    
C57   C58   S    
C74   H46   S    
C35   C36   T    
C23   C31   S    
C37   C43   A    
C67   H40   S    
C24   C32   S    
C38   C44   A    
C51   C56   A    
C79   H57   S    
C2    C38   S    
C54   C55   A    
C76   H49   S    
Cu1   O8    S    
C57   H24   S    
C13   C21   A    
C45   C50   A    
C60   H31   S    
C80   H60   S    
C9    C11   A    
C17   H10   S    
C6    C40   A    
C44   O9    S    
C10   C12   A    
C18   H9    S    
C17   N1    A    
C18   N2    A    
C30   C69   S    
C65   H38   S    
C59   H28   S    
C50   H17   S    
C13   C15   A    
Cu1   O5    S    
C70   C71   A    
C14   C16   A    
C9    H7    S    
C55   H21   S    
C72   C73   A    
C41   H4    S    
C46   H13   S    
C77   H52   S    
C75   H48   S    
C63   C64   A    
C27   H1    S    
C29   C63   S    
C28   H2    S    
C22   C30   A    
C19   C21   A    
C79   H56   S    
C15   N1    A    
C64   H37   S    
C20   C22   A    
C48   C49   A    
C3    C5    A    
C1    O1    A    
C15   O12   S    
C56   H22   S    
C58   H26   S    
Cu2   O6    S    
C1    C37   S    
C59   H29   S    
Cu1   O4    S    
Cu2   O3    S    
C23   O5    A    
C5    C39   A    
C43   O10   S    
C47   C48   A    
C11   C45   S    
C67   C68   A    
C76   H50   S    
C14   C22   A    
C65   C66   A    
C61   H33   S    
C71   H43   S    
C12   C51   S    
C28   C30   A    
C57   H23   S    
C33   C35   S    
C69   C74   A    
C60   C61   S    
C18   C20   A    
C68   H41   S    
C37   C41   A    
O10   C60   S    
C19   C25   A    
C24   O8    A    
C42   H3    S    
C63   C68   A    
C38   C42   A    
Cu2   O7    S    
C59   H27   S    
C62   H34   S    
C60   H30   S    
C77   H51   S    
C75   H47   S    
C80   H58   S    
C73   H45   S    
C16   O11   S    
C2    O2    A    
C32   C34   T    
C69   C70   A    
C61   C62   S    
