data_mof_unit_55596.cif
_audit_creation_date              2012-12-10T18:58:42-0500
_audit_creation_method            fapswitch 2.2
_symmetry_space_group_name_H-M    P1
_symmetry_Int_Tables_number       1
_space_group_crystal_system       triclinic
_cell_length_a                    13.055481
_cell_length_b                    10.856526
_cell_length_c                    9.523411
_cell_angle_alpha                 90.994386
_cell_angle_beta                  95.308464
_cell_angle_gamma                 90.510143
_cell_volume                      1343.75470278

loop_
_atom_site_label
_atom_site_type_symbol
_atom_type_description
_atom_site_fract_x
_atom_site_fract_y
_atom_site_fract_z
_atom_type_partial_charge
C1    C     C_R   0.498097 0.261766 0.498287 0.805758
C2    C     C_R   0.025906 0.487310 0.568735 0.074171
C3    C     C_R   0.972667 0.501599 0.434106 0.109975
C4    C     C_R   0.865726 0.505655 0.420714 -0.228676
C5    C     C_R   0.864483 0.486475 0.673953 -0.220121
C6    C     C_R   0.970881 0.481776 0.688230 -0.181083
C7    C     C_R   0.515370 0.066318 0.624917 0.094139
C8    C     C_R   0.504045 0.127667 0.496223 -0.223432
C9    C     C_R   0.508926 0.057371 0.369541 0.464782
C10   C     C_R   0.526908 0.930991 0.377959 -0.306573
C11   C     C_R   0.518159 0.869904 0.504304 -0.176392
C12   C     C_R   0.300508 0.497431 0.474796 0.812548
C13   C     C_R   0.519844 0.939577 0.628532 0.120593
C14   C     C_3   0.455060 0.931321 0.748830 -0.438574
C15   C     C_3   0.449653 0.070913 0.745706 -0.470349
C16   C     C_R   0.539509 0.598298 0.080428 0.254465
C17   C     C_R   0.448865 0.412000 0.066602 -0.063079
C18   C     C_R   0.450310 0.410422 0.917717 -0.047551
C19   C     C_R   0.539092 0.598554 0.932920 0.258339
C20   C     C_3   0.646141 0.648562 0.940902 -0.505558
C21   C     C_3   0.646745 0.647815 0.100377 -0.508238
C22   C     C_R   0.504939 0.737389 0.501749 0.828412
C23   C     C_R   0.699237 0.499826 0.525515 0.804760
C24   C     C_R   0.811299 0.497666 0.540249 -0.042060
C25   C     C_R   0.187777 0.494353 0.461929 -0.161813
C26   C     C_R   0.026882 0.511366 0.314886 -0.216026
C27   C     C_R   0.133694 0.509355 0.328939 -0.264897
C28   C     C_R   0.133168 0.477814 0.581848 0.371799
Cu1   Cu    Cu3+1 0.499990 0.499980 0.640670 0.959044
Cu2   Cu    Cu3+1 0.500010 0.500020 0.359330 0.953140
H1    H     H_    0.825276 0.514519 0.317160 0.141042
H2    H     H_    0.499055 0.896422 0.845173 0.192543
H3    H     H_    0.371006 0.105390 0.714857 0.173734
H4    H     H_    0.489845 0.116263 0.841175 0.212912
H5    H     H_    0.406846 0.342949 0.117270 0.135169
H6    H     H_    0.412114 0.336290 0.855956 0.138815
H7    H     H_    0.701222 0.582491 0.900425 0.213022
H8    H     H_    0.649259 0.742800 0.897632 0.194703
H9    H     H_    0.701669 0.580737 0.150137 0.211969
H10   H     H_    0.650802 0.741599 0.149283 0.192821
H11   H     H_    0.824063 0.480010 0.767765 0.152464
H12   H     H_    0.986755 0.522541 0.211127 0.147908
H13   H     H_    0.009507 0.474108 0.793135 0.179529
H14   H     H_    0.173943 0.520264 0.235365 0.185407
H15   H     H_    0.536110 0.879328 0.281893 0.171988
H16   H     H_    0.379690 0.884843 0.719336 0.202388
N1    N     N_R   0.500660 0.500930 0.148010 -0.184383
N2    N     N_R   0.500660 0.500890 0.852110 -0.183802
O1    O     O_R   0.500000 0.319640 0.618810 -0.591633
O2    O     O_R   0.500010 0.319680 0.381230 -0.542926
O3    O     O_R   0.348990 0.499960 0.599490 -0.535265
O4    O     O_R   0.349000 0.500000 0.361910 -0.599689
O5    O     O_R   0.499990 0.680320 0.618770 -0.579771
O6    O     O_R   0.500000 0.680360 0.381190 -0.591968
O7    O     O_R   0.651000 0.500000 0.638090 -0.590702
O8    O     O_R   0.651010 0.500040 0.400510 -0.585103
O9    O     O_3   0.183836 0.454611 0.712863 -0.567273
C29   C     C_3   0.187107 0.325689 0.733183 0.070314
H17   H     H_    0.259825 0.289566 0.697452 0.143048
H18   H     H_    0.121786 0.273544 0.674869 0.125979
C30   C     C_3   0.183923 0.299696 0.889366 -0.843745
H19   H     H_    0.106290 0.319263 0.922331 0.238364
H20   H     H_    0.201390 0.201496 0.909318 0.202213
H21   H     H_    0.240794 0.358216 0.953967 0.249802
O10   O     O_3   0.495465 0.108798 0.237009 -0.595496
C31   C     C_3   0.391672 0.092107 0.178958 0.056178
H22   H     H_    0.381141 0.149364 0.083849 0.159412
H23   H     H_    0.336327 0.125564 0.253111 0.117587
C32   C     C_3   0.365041 0.958928 0.128661 -0.381331
H24   H     H_    0.429209 0.920284 0.073578 0.225231
H25   H     H_    0.352229 0.900953 0.220463 0.216268
C33   C     C_3   0.267043 0.952628 0.028057 -0.910681
H26   H     H_    0.202012 0.994817 0.078299 0.255564
H27   H     H_    0.247360 0.854859 0.000804 0.264568
H28   H     H_    0.278691 0.001301 0.929193 0.255323

loop_
_geom_bond_atom_site_label_1
_geom_bond_atom_site_label_2
_ccdc_geom_bond_type
C31   H23   S    
C16   C21   S    
C30   H21   S    
C1    C8    S    
C19   C20   S    
C7    C8    A    
C14   H16   S    
Cu1   O1    S    
C28   O9    S    
C25   C28   A    
Cu2   O6    S    
C26   C27   A    
Cu1   O3    S    
C5    C6    A    
C4    C24   A    
C31   C32   S    
C29   H18   S    
C32   H25   S    
C30   H20   S    
C5    H11   S    
C27   H14   S    
C8    C9    A    
C1    O1    A    
C23   C24   S    
C1    O2    A    
C15   H4    S    
C29   C30   S    
C7    C15   S    
C31   H22   S    
Cu2   O2    S    
C13   C14   S    
C22   O6    A    
C32   H24   S    
C33   H28   S    
C16   N1    A    
C12   O4    A    
C22   O5    A    
Cu1   N2    S    
Cu2   N1    S    
C23   O8    A    
C33   H27   S    
C19   N2    A    
Cu1   O7    S    
C29   H17   S    
Cu2   O8    S    
C2    C6    A    
C32   C33   S    
Cu1   Cu2   S    
C20   H8    S    
C21   H9    S    
C10   H15   S    
C17   C18   A    
C6    H13   S    
C3    C4    A    
C12   O3    A    
C26   H12   S    
C9    C10   A    
Cu2   O4    S    
C3    C26   A    
C17   N1    A    
C14   H2    S    
C33   H26   S    
C18   N2    A    
C23   O7    A    
C25   C27   A    
C11   C22   S    
C12   C25   S    
C2    C3    A    
C20   H7    S    
C11   C13   A    
O9    C29   S    
C5    C24   A    
Cu1   O5    S    
C16   C19   A    
C30   H19   S    
C9    O10   S    
C4    H1    S    
C10   C11   A    
C7    C13   A    
C20   C21   S    
O10   C31   S    
C14   C15   S    
C2    C28   A    
C17   H5    S    
C18   H6    S    
C15   H3    S    
C21   H10   S    
