data_mof_unit_7838.cif
_audit_creation_date              2012-12-10T17:37:47-0500
_audit_creation_method            fapswitch 2.2
_symmetry_space_group_name_H-M    P1
_symmetry_Int_Tables_number       1
_space_group_crystal_system       triclinic
_cell_length_a                    12.412048
_cell_length_b                    13.295371
_cell_length_c                    17.367461
_cell_angle_alpha                 106.977778
_cell_angle_beta                  73.969834
_cell_angle_gamma                 117.506499
_cell_volume                      2397.30286858

loop_
_atom_site_label
_atom_site_type_symbol
_atom_type_description
_atom_site_fract_x
_atom_site_fract_y
_atom_site_fract_z
_atom_type_partial_charge
C1    C     C_R   0.144702 0.713516 0.506918 0.841284
C2    C     C_R   0.872107 0.507653 0.795033 -0.160025
C3    C     C_R   0.974325 0.549277 0.160167 -0.162706
C4    C     C_R   0.977391 0.559018 0.241267 -0.203957
C5    C     C_R   0.057805 0.412754 0.202097 -0.207375
C6    C     C_R   0.052765 0.401414 0.120857 -0.174819
C7    C     C_R   0.009063 0.468045 0.099422 0.176527
C8    C     C_2   0.942422 0.492771 0.987246 -0.220570
C9    C     C_2   0.006652 0.454279 0.012831 -0.217838
C10   C     C_R   0.018059 0.490220 0.262538 0.000788
C11   C     C_R   0.733989 0.981784 0.380488 -0.209458
C12   C     C_R   0.985284 0.501731 0.652033 0.853961
C13   C     C_R   0.776681 0.163667 0.474719 -0.084119
C14   C     C_R   0.183043 0.919775 0.558722 -0.208346
C15   C     C_R   0.262990 0.036088 0.573120 0.316535
C16   C     C_R   0.389100 0.069645 0.546696 -0.173725
C17   C     C_R   0.437605 0.987581 0.503333 0.058223
C18   C     C_R   0.353970 0.873552 0.476358 0.085875
C19   C     C_R   0.566101 0.017980 0.479448 0.018674
C20   C     C_R   0.607932 0.942988 0.414356 0.077024
C21   C     C_R   0.522470 0.833532 0.381755 -0.016203
C22   C     C_R   0.397487 0.800485 0.412733 -0.203037
C23   C     C_R   0.856053 0.286572 0.490308 0.841066
C24   C     C_R   0.655260 0.122242 0.515933 0.181380
C25   C     C_R   0.816414 0.092202 0.408692 -0.247115
C26   C     C_R   0.227614 0.837077 0.511680 -0.138164
C27   C     C_R   0.598507 0.592033 0.657494 -0.248478
C28   C     C_R   0.257462 0.370165 0.378598 0.070908
C29   C     C_R   0.358379 0.344133 0.345726 -0.279136
C30   C     C_R   0.455360 0.385320 0.388852 0.043932
C31   C     C_R   0.450063 0.455845 0.468844 -0.082189
C32   C     C_R   0.342445 0.481255 0.500140 0.228581
C33   C     C_R   0.544277 0.503829 0.520100 -0.041219
C34   C     C_R   0.012922 0.495838 0.348088 0.759852
C35   C     C_R   0.512799 0.544291 0.604537 0.145772
C36   C     C_R   0.399921 0.548902 0.635271 -0.251963
C37   C     C_R   0.331834 0.543494 0.582235 0.249511
C38   C     C_R   0.668579 0.517100 0.493283 0.027630
C39   C     C_R   0.717234 0.601886 0.627346 0.103097
C40   C     C_R   0.973722 0.499106 0.737579 -0.027626
C41   C     C_R   0.064677 0.487008 0.762266 -0.145198
C42   C     C_R   0.055845 0.485353 0.843109 -0.127617
C43   C     C_R   0.953231 0.491787 0.900630 0.183518
C44   C     C_R   0.861997 0.503865 0.876119 -0.155880
Cu1   Cu    Cu3+1 0.900140 0.524980 0.518800 0.967351
Cu2   Cu    Cu3+1 0.099860 0.475020 0.481200 0.978595
H1    H     H_    0.143711 0.479861 0.719385 0.175223
H2    H     H_    0.081861 0.339742 0.074778 0.133917
H3    H     H_    0.910404 0.123495 0.376451 0.162127
H4    H     H_    0.769115 0.930936 0.328163 0.161208
H5    H     H_    0.086342 0.894289 0.584642 0.185232
H6    H     H_    0.447076 0.160962 0.557042 0.187950
H7    H     H_    0.334305 0.718607 0.383294 0.163096
H8    H     H_    0.782224 0.636240 0.668821 0.127356
H9    H     H_    0.948591 0.620790 0.287458 0.141832
H10   H     H_    0.381140 0.586185 0.699388 0.171218
H11   H     H_    0.574385 0.623701 0.721943 0.138122
H12   H     H_    0.703076 0.492754 0.430231 0.146640
H13   H     H_    0.183893 0.335439 0.343697 0.128089
H14   H     H_    0.359208 0.288347 0.286074 0.146131
H15   H     H_    0.089214 0.358840 0.217926 0.136668
H16   H     H_    0.059112 0.409577 0.969047 0.152609
H17   H     H_    0.783035 0.510560 0.919780 0.125563
H18   H     H_    0.945847 0.606375 0.145979 0.127583
H19   H     H_    0.800339 0.516714 0.777400 0.159595
H20   H     H_    0.879166 0.525853 0.030579 0.134157
H21   H     H_    0.131290 0.481457 0.859806 0.131869
N1    N     N_R   0.749710 0.562810 0.547300 -0.191474
N2    N     N_R   0.249640 0.437820 0.453210 -0.196970
O1    O     O_R   0.025490 0.682370 0.523640 -0.588723
O2    O     O_R   0.194150 0.640180 0.491890 -0.539061
O3    O     O_R   0.905900 0.523560 0.631310 -0.595021
O4    O     O_R   0.074570 0.481370 0.599560 -0.557802
O5    O     O_R   0.805850 0.359820 0.508110 -0.552157
O6    O     O_R   0.974510 0.317630 0.476360 -0.586439
O7    O     O_R   0.925430 0.518630 0.400440 -0.591929
O8    O     O_R   0.094100 0.476440 0.368690 -0.613524
C45   C     C_R   0.561030 0.751377 0.315210 0.108539
C46   C     C_R   0.640191 0.710037 0.326515 -0.136081
C47   C     C_R   0.685518 0.641367 0.261445 -0.164254
C48   C     C_R   0.648258 0.609370 0.185673 -0.127772
C49   C     C_R   0.565533 0.646234 0.174932 -0.117521
C50   C     C_R   0.522171 0.717336 0.239389 -0.154012
H22   H     H_    0.669637 0.734007 0.384958 0.143177
H23   H     H_    0.749321 0.612715 0.269895 0.130571
H24   H     H_    0.683041 0.555563 0.135456 0.113667
H25   H     H_    0.536270 0.620964 0.116359 0.129846
H26   H     H_    0.460491 0.747747 0.229786 0.127298
Br1   Br    Br    0.625720 0.195809 0.629019 -0.492372
Br2   Br    Br    0.200698 0.149650 0.631319 -0.513598
C51   C     C_R   0.550508 0.340368 0.348308 0.082995
C52   C     C_R   0.614143 0.359741 0.269595 -0.183954
C53   C     C_R   0.696879 0.310319 0.227546 -0.111666
C54   C     C_R   0.714119 0.238034 0.262550 -0.107388
C55   C     C_R   0.647528 0.214427 0.339106 -0.133190
C56   C     C_R   0.566504 0.265627 0.382317 -0.126751
H27   H     H_    0.596792 0.410263 0.239819 0.143824
H28   H     H_    0.745410 0.325979 0.167106 0.145364
H29   H     H_    0.776909 0.198269 0.229647 0.127239
H30   H     H_    0.656900 0.154329 0.363811 0.137911
H31   H     H_    0.514537 0.245485 0.441124 0.137787
Br3   Br    Br    0.304010 0.681738 0.619998 -0.506065

loop_
_geom_bond_atom_site_label_1
_geom_bond_atom_site_label_2
_ccdc_geom_bond_type
C8    H20   S    
C53   C54   A    
C41   C42   A    
C55   C56   A    
C18   C26   A    
C8    C43   S    
C2    H19   S    
C24   Br1   S    
C48   C49   A    
C3    H18   S    
C47   H23   S    
C6    H2    S    
Cu1   O7    S    
C28   C29   A    
C3    C7    A    
C34   O8    A    
C5    C6    A    
C47   C48   A    
C39   H8    S    
C42   H21   S    
C11   C25   A    
C49   H25   S    
C13   C23   S    
C39   N1    A    
Cu2   N2    S    
C17   C19   A    
C51   C56   A    
C38   H12   S    
C45   C50   A    
C28   N2    A    
C2    C44   A    
C8    C9    D    
C21   C45   S    
C31   C33   A    
C48   H24   S    
C50   H26   S    
C12   O3    A    
C21   C22   A    
Cu1   O3    S    
C13   C25   A    
C12   O4    A    
Cu2   O6    S    
C52   H27   S    
C22   H7    S    
C44   H17   S    
C11   C20   A    
C9    H16   S    
C27   H11   S    
C27   C39   A    
C51   C52   A    
C55   H30   S    
C16   C17   A    
C27   C35   A    
Cu1   Cu2   S    
C37   Br3   S    
C13   C24   A    
Cu1   O5    S    
C35   C36   A    
C12   C40   S    
C43   C44   A    
C29   C30   A    
C36   H10   S    
C31   C32   A    
C29   H14   S    
C30   C31   A    
Cu1   N1    S    
C17   C18   A    
C41   H1    S    
C5    H15   S    
C10   C34   S    
C1    O2    A    
C32   C37   A    
C14   C26   A    
C1    O1    A    
Cu2   O2    S    
C32   N2    A    
C40   C41   A    
C38   N1    A    
C4    H9    S    
C1    C26   S    
C42   C43   A    
C23   O5    A    
C4    C10   A    
C3    C4    A    
C28   H13   S    
C7    C9    S    
C36   C37   A    
Cu1   O1    S    
C18   C22   A    
C16   H6    S    
C23   O6    A    
C30   C51   S    
Cu2   O8    S    
C6    C7    A    
C33   C38   A    
C19   C20   A    
C19   C24   A    
C5    C10   A    
C11   H4    S    
C15   Br2   S    
C45   C46   A    
C46   H22   S    
C54   H29   S    
C52   C53   A    
C33   C35   A    
C54   C55   A    
C25   H3    S    
C46   C47   A    
C2    C40   A    
C20   C21   A    
C14   H5    S    
C49   C50   A    
C14   C15   A    
C56   H31   S    
C53   H28   S    
Cu2   O4    S    
C15   C16   A    
C34   O7    A    
