data_mof_unit_8888.cif
_audit_creation_date              2012-12-10T18:21:15-0500
_audit_creation_method            fapswitch 2.2
_symmetry_space_group_name_H-M    P1
_symmetry_Int_Tables_number       1
_space_group_crystal_system       triclinic
_cell_length_a                    9.430861
_cell_length_b                    10.623277
_cell_length_c                    17.330299
_cell_angle_alpha                 89.545472
_cell_angle_beta                  86.316615
_cell_angle_gamma                 89.715188
_cell_volume                      1732.60612388

loop_
_atom_site_label
_atom_site_type_symbol
_atom_type_description
_atom_site_fract_x
_atom_site_fract_y
_atom_site_fract_z
_atom_type_partial_charge
C1    C     C_R   0.499648 0.740314 0.500705 0.881375
C2    C     C_R   0.500355 0.259687 0.499284 0.881565
C3    C     C_3   0.364832 0.959195 0.499275 -0.221290
C4    C     C_3   0.635185 0.040807 0.500698 -0.221430
C5    C     C_3   0.442929 0.040559 0.436211 0.064058
C6    C     C_3   0.557094 0.959445 0.563762 0.064118
C7    C     C_3   0.500748 0.123072 0.498818 0.002116
C8    C     C_3   0.499269 0.876929 0.501157 0.002148
C9    C     C_3   0.423478 0.043317 0.562705 -0.216926
C10   C     C_3   0.576542 0.956683 0.437270 -0.217238
C11   C     C_3   0.955627 0.403787 0.465269 0.645532
C12   C     C_3   0.044373 0.596211 0.534732 0.645557
C13   C     C_3   0.047306 0.400131 0.534992 -0.194252
C14   C     C_3   0.952694 0.599867 0.465008 -0.194070
C15   C     C_3   0.058870 0.501900 0.429567 -0.179500
C16   C     C_3   0.941127 0.498097 0.570433 -0.179686
C17   C     C_R   0.481834 0.501555 0.649326 0.879971
C18   C     C_R   0.518165 0.498453 0.350672 0.879891
C19   C     C_R   0.474547 0.508324 0.733321 -0.170728
C20   C     C_R   0.525463 0.491665 0.266679 -0.170557
C21   C     C_R   0.545664 0.415755 0.775766 0.007669
C22   C     C_R   0.454174 0.584101 0.224216 0.007654
C23   C     C_R   0.556676 0.432509 0.854523 -0.308961
C24   C     C_R   0.443272 0.567309 0.145452 -0.309006
C25   C     C_R   0.496280 0.537482 0.892358 0.035414
C26   C     C_R   0.503977 0.462457 0.107628 0.035413
C27   C     C_R   0.428025 0.631226 0.850495 0.530301
C28   C     C_R   0.572452 0.368864 0.149501 0.530305
C29   C     C_R   0.411019 0.614704 0.770894 -0.147412
C30   C     C_R   0.589297 0.385410 0.229114 -0.147455
C31   C     C_2   0.504734 0.550086 0.976262 -0.151343
C32   C     C_2   0.495591 0.449820 0.023726 -0.151183
Cu1   Cu    Cu3+1 0.356850 0.500010 0.499980 1.021346
Cu2   Cu    Cu3+1 0.643150 0.499990 0.500020 1.021303
H1    H     H_    0.112547 0.502796 0.370665 0.156789
H2    H     H_    0.887446 0.497187 0.629334 0.156722
H3    H     H_    0.484762 0.356123 0.000443 0.169923
H4    H     H_    0.515549 0.643773 0.999565 0.170049
H5    H     H_    0.385877 0.636773 0.113386 0.158844
H6    H     H_    0.613940 0.362930 0.886568 0.158753
H7    H     H_    0.254157 0.924308 0.498343 0.176326
H8    H     H_    0.745859 0.075696 0.501627 0.176269
H9    H     H_    0.361426 0.080860 0.614155 0.170637
H10   H     H_    0.638589 0.919132 0.385821 0.170424
H11   H     H_    0.092052 0.316624 0.563910 0.142974
H12   H     H_    0.907951 0.683386 0.436099 0.142949
N1    N     N_3   0.141720 0.500030 0.499940 -0.201352
N2    N     N_3   0.858280 0.499970 0.500060 -0.201340
O1    O     O_R   0.379130 0.683150 0.499960 -0.545243
O2    O     O_R   0.620870 0.316850 0.500040 -0.545293
O3    O     O_R   0.620910 0.683140 0.500000 -0.579810
O4    O     O_R   0.379090 0.316860 0.500000 -0.579752
O5    O     O_R   0.365090 0.500030 0.613580 -0.591259
O6    O     O_R   0.634910 0.499970 0.386420 -0.591254
O7    O     O_R   0.606870 0.500020 0.613610 -0.551079
O8    O     O_R   0.393130 0.499980 0.386390 -0.551017
C33   C     C_2   0.608013 0.298309 0.741368 0.340671
H13   H     H_    0.684365 0.244378 0.772512 0.066706
O9    O     O_2   0.571604 0.257436 0.680117 -0.590632
C34   C     C_2   0.391561 0.701450 0.258599 0.340624
H14   H     H_    0.315048 0.755198 0.227462 0.066822
O10   O     O_2   0.427935 0.742455 0.319824 -0.590568
O11   O     O_3   0.897742 0.300321 0.427857 -0.582086
C35   C     C_3   0.008214 0.220657 0.399070 -0.300866
H15   H     H_    0.071423 0.183391 0.446310 0.156848
H16   H     H_    0.078074 0.269472 0.354315 0.206021
H17   H     H_    0.960514 0.138848 0.371140 0.200704
O12   O     O_3   0.102251 0.699704 0.572123 -0.582195
C36   C     C_3   0.991746 0.779177 0.601096 -0.301175
H18   H     H_    0.922302 0.730261 0.645997 0.205764
H19   H     H_    0.928101 0.816275 0.553990 0.157218
H20   H     H_    0.039444 0.861112 0.628906 0.200626
C37   C     C_2   0.669217 0.289996 0.273053 0.453582
H21   H     H_    0.649689 0.279219 0.335018 0.103428
O13   O     O_2   0.759647 0.222870 0.240617 -0.506587
C38   C     C_2   0.331246 0.710248 0.726965 0.453449
H22   H     H_    0.350310 0.720669 0.664954 0.103594
O14   O     O_2   0.241418 0.777925 0.759462 -0.506680
O15   O     O_3   0.373466 0.736711 0.888539 -0.547783
C39   C     C_3   0.475119 0.833856 0.880211 -0.272956
H23   H     H_    0.577583 0.805694 0.903967 0.135687
H24   H     H_    0.433898 0.916765 0.913234 0.188393
H25   H     H_    0.493815 0.863691 0.818744 0.184603
O16   O     O_3   0.627402 0.263525 0.111454 -0.547765
C40   C     C_3   0.526101 0.166092 0.119756 -0.273196
H26   H     H_    0.567604 0.083325 0.086693 0.188456
H27   H     H_    0.423525 0.193985 0.096030 0.135754
H28   H     H_    0.507549 0.136154 0.181213 0.184345
C41   C     C_2   0.377981 0.081767 0.363466 0.271455
H29   H     H_    0.341942 0.011575 0.324174 0.112319
O17   O     O_2   0.365047 0.193223 0.347936 -0.603164
C42   C     C_2   0.622124 0.918253 0.636485 0.271720
H30   H     H_    0.658363 0.988447 0.675715 0.112132
O18   O     O_2   0.634953 0.806800 0.652055 -0.603227

loop_
_geom_bond_atom_site_label_1
_geom_bond_atom_site_label_2
_ccdc_geom_bond_type
C25   C31   S    
C26   C32   S    
C27   C29   A    
C1    C8    S    
C37   H21   S    
C2    C7    S    
C15   N1    S    
C16   N2    S    
C6    C9    S    
C14   H12   S    
C29   C38   S    
C20   C30   A    
C40   H26   S    
Cu1   O4    S    
C12   O12   S    
Cu2   O3    S    
C19   C21   A    
C24   C26   A    
C27   O15   S    
C12   N1    S    
C22   C34   S    
C33   O9    D    
C28   O16   S    
Cu1   O1    S    
C23   H6    S    
C24   H5    S    
C34   O10   D    
C36   H19   S    
C2    O2    A    
C11   C15   S    
C12   C16   S    
O12   C36   S    
C41   O17   D    
C17   O7    A    
C18   O8    A    
Cu1   O8    S    
Cu2   O7    S    
C37   O13   D    
C11   N2    S    
C39   H25   S    
C15   H1    S    
C40   H27   S    
Cu1   O5    S    
Cu2   O2    S    
C9    H9    S    
C10   H10   S    
C35   H17   S    
O16   C40   S    
C39   H24   S    
C3    C8    S    
C5    C7    S    
C30   C37   S    
C14   N2    S    
C4    C7    S    
O15   C39   S    
C34   H14   S    
C35   H16   S    
C36   H20   S    
C21   C33   S    
C3    C9    S    
C31   C32   D    
C42   O18   D    
Cu1   Cu2   S    
C32   H3    S    
C38   H22   S    
C1    O3    A    
C2    O4    A    
C4    C6    S    
C12   C14   S    
Cu2   O6    S    
C21   C23   A    
Cu1   N1    S    
C22   C24   A    
Cu2   N2    S    
C20   C22   A    
C4    C10   S    
C19   C29   A    
C17   O5    A    
C13   N1    S    
C40   H28   S    
C7    C9    S    
C3    H7    S    
C38   O14   D    
C39   H23   S    
C3    C5    S    
C6    C8    S    
C25   C27   A    
C26   C28   A    
C31   H4    S    
C35   H15   S    
C28   C30   A    
C5    C10   S    
C16   H2    S    
C13   H11   S    
C11   C13   S    
C33   H13   S    
C4    H8    S    
C6    C42   S    
C42   H30   S    
C17   C19   S    
C18   C20   S    
C23   C25   A    
C36   H18   S    
C18   O6    A    
O11   C35   S    
C8    C10   S    
C13   C16   S    
C14   C15   S    
C41   H29   S    
C11   O11   S    
C1    O1    A    
C5    C41   S    
