data_mof_unit_61178.cif
_audit_creation_date              2012-12-10T19:31:50-0500
_audit_creation_method            fapswitch 2.2
_symmetry_space_group_name_H-M    P1
_symmetry_Int_Tables_number       1
_space_group_crystal_system       triclinic
_cell_length_a                    18.532223
_cell_length_b                    18.669614
_cell_length_c                    18.840222
_cell_angle_alpha                 109.618733
_cell_angle_beta                  109.4875
_cell_angle_gamma                 108.950108
_cell_volume                      5039.81983713

loop_
_atom_site_label
_atom_site_type_symbol
_atom_type_description
_atom_site_fract_x
_atom_site_fract_y
_atom_site_fract_z
_atom_type_partial_charge
C1    C     C_R   0.378082 0.379890 0.498431 0.889845
C2    C     C_R   0.258021 0.177553 0.497804 0.101647
C3    C     C_3   0.254847 0.101958 0.431594 -0.157064
C4    C     C_R   0.623473 0.502431 0.620386 0.838919
C5    C     C_3   0.312583 0.169118 0.416120 -0.169346
C6    C     C_R   0.240764 0.426015 0.245845 0.118773
C7    C     C_R   0.315032 0.502549 0.314853 -0.071601
C8    C     C_R   0.324932 0.582226 0.319352 -0.205839
C9    C     C_R   0.260352 0.582038 0.253668 -0.203352
C10   C     C_R   0.184959 0.502354 0.185264 -0.095491
C11   C     C_R   0.177616 0.426002 0.184676 0.125151
C12   C     C_3   0.808985 0.500522 0.809157 0.136299
C13   C     C_3   0.121700 0.329162 0.135843 -0.468379
C14   C     C_3   0.193963 0.329360 0.206691 -0.455708
C15   C     C_R   0.661282 0.715226 0.442707 -0.003422
C16   C     C_R   0.619741 0.619901 0.499862 0.858069
C17   C     C_R   0.685440 0.686408 0.501235 -0.035552
C18   C     C_R   0.771812 0.732108 0.569908 -0.184949
C19   C     C_R   0.836060 0.797815 0.571214 -0.175704
C20   C     C_R   0.812915 0.818334 0.504489 -0.081758
C21   C     C_R   0.724358 0.780838 0.444553 0.129670
C22   C     C_3   0.678057 0.740325 0.347872 -0.454631
C23   C     C_3   0.814337 0.464271 0.725298 -0.451726
C24   C     C_3   0.607517 0.667445 0.345557 -0.285767
C25   C     C_R   0.997670 0.379674 0.877332 0.881107
C26   C     C_R   0.876342 0.500657 0.877390 0.841688
C27   C     C_R   0.997187 0.620244 0.117612 0.871950
C28   C     C_R   0.379661 0.500562 0.379749 0.867668
C29   C     C_R   0.118243 0.500354 0.118102 0.880173
C30   C     C_R   0.999445 0.120445 0.618882 0.891289
C31   C     C_R   0.120543 0.119238 0.499757 0.866357
C32   C     C_R   0.001053 0.880235 0.381039 0.852531
C33   C     C_R   0.879488 0.880110 0.500285 0.901740
C34   C     C_3   0.826318 0.595376 0.837588 -0.366553
C35   C     C_R   0.954713 0.226882 0.789580 0.118901
C36   C     C_R   0.993035 0.313040 0.807098 -0.103761
C37   C     C_R   0.022439 0.332760 0.752789 -0.201315
C38   C     C_R   0.023406 0.268445 0.689248 -0.205987
C39   C     C_R   0.996727 0.185802 0.681916 -0.092134
C40   C     C_3   0.646238 0.444447 0.718998 -0.425068
C41   C     C_R   0.956428 0.163772 0.727405 0.108524
C42   C     C_3   0.972771 0.120243 0.780028 -0.243519
C43   C     C_3   0.970991 0.190393 0.849195 -0.521853
C44   C     C_R   0.933869 0.664598 0.208043 0.143255
C45   C     C_R   0.315447 0.238025 0.489199 0.022954
C46   C     C_R   0.001921 0.685358 0.189086 -0.083026
C47   C     C_R   0.076508 0.768837 0.242873 -0.189107
C48   C     C_R   0.076932 0.833100 0.307697 -0.199216
C49   C     C_R   0.002284 0.814113 0.317110 -0.038401
C50   C     C_R   0.933162 0.728748 0.270143 0.021177
C51   C     C_3   0.835446 0.690192 0.217837 -0.262090
C52   C     C_3   0.715331 0.443000 0.790534 -0.383040
C53   C     C_3   0.836595 0.618523 0.149513 -0.515262
C54   C     C_3   0.744121 0.463861 0.652204 -0.147557
C55   C     C_3   0.755482 0.596284 0.767129 -0.361031
C56   C     C_R   0.312915 0.314594 0.500101 -0.095589
C57   C     C_3   0.691837 0.502416 0.687759 0.061975
C58   C     C_2   0.784663 0.509617 0.611159 0.900415
C59   C     C_3   0.281179 0.039756 0.529610 -0.708021
C60   C     C_2   0.402210 0.177346 0.435973 1.010955
C61   C     C_2   0.263427 0.161792 0.328916 0.888660
C62   C     C_2   0.599123 0.578822 0.301179 1.001240
C63   C     C_2   0.897839 0.029770 0.739748 0.955109
C64   C     C_2   0.806999 0.746202 0.186678 0.998229
C65   C     C_R   0.252277 0.331116 0.521644 -0.183047
C66   C     C_R   0.188391 0.266321 0.521585 -0.189532
C67   C     C_R   0.188637 0.187459 0.504652 -0.069120
H1    H     H_    0.598939 0.376722 0.664167 0.211929
H2    H     H_    0.058558 0.307889 0.136357 0.219482
H3    H     H_    0.116148 0.299158 0.071047 0.199042
H4    H     H_    0.172832 0.308851 0.248617 0.218362
H5    H     H_    0.229701 0.299042 0.182654 0.219751
H6    H     H_    0.789881 0.714577 0.619917 0.158468
H7    H     H_    0.903600 0.829991 0.622254 0.182936
H8    H     H_    0.654142 0.780899 0.326545 0.215629
H9    H     H_    0.716798 0.720323 0.319514 0.230713
H10   H     H_    0.543441 0.666602 0.323102 0.159341
H11   H     H_    0.710697 0.467653 0.850580 0.180814
H12   H     H_    0.891945 0.637431 0.848689 0.215081
H13   H     H_    0.047216 0.397917 0.761305 0.170594
H14   H     H_    0.048782 0.284142 0.649131 0.144001
H15   H     H_    0.038120 0.123861 0.800356 0.152375
H16   H     H_    0.914320 0.166042 0.859694 0.218475
H17   H     H_    0.035800 0.235420 0.909686 0.189380
H18   H     H_    0.132684 0.785199 0.232963 0.169664
H19   H     H_    0.132943 0.898215 0.346652 0.138821
H20   H     H_    0.800760 0.665792 0.249831 0.165947
H21   H     H_    0.701253 0.374365 0.769484 0.191568
H22   H     H_    0.803603 0.553617 0.143501 0.210524
H23   H     H_    0.881648 0.503944 0.738167 0.205745
H24   H     H_    0.818526 0.617414 0.086421 0.205904
H25   H     H_    0.696930 0.394180 0.600867 0.147804
H26   H     H_    0.803063 0.396482 0.704866 0.153008
H27   H     H_    0.786140 0.642622 0.747850 0.204606
H28   H     H_    0.718748 0.621289 0.795109 0.192340
H29   H     H_    0.826171 0.623707 0.899799 0.161334
H30   H     H_    0.875121 0.618288 0.626865 0.346701
H31   H     H_    0.302308 0.014140 0.424507 0.252159
H32   H     H_    0.319464 0.008790 0.551060 0.225674
H33   H     H_    0.210440 0.992872 0.497696 0.252218
H34   H     H_    0.251425 0.391742 0.533806 0.160614
H35   H     H_    0.300341 0.099010 0.588193 0.260765
H36   H     H_    0.533839 0.249574 0.513307 0.332534
H37   H     H_    0.264367 0.162529 0.222338 0.342861
H38   H     H_    0.517590 0.450338 0.215284 0.344336
H39   H     H_    0.780406 0.930180 0.637595 0.344483
H40   H     H_    0.728804 0.800508 0.176643 0.341961
H41   H     H_    0.138111 0.276803 0.532878 0.144119
H42   H     H_    0.187416 0.052712 0.375865 0.159669
H43   H     H_    0.382490 0.643602 0.372235 0.156533
H44   H     H_    0.608158 0.469695 0.744466 0.190566
H45   H     H_    0.268581 0.643413 0.256880 0.162686
N1    N     N_2   0.300985 0.062878 0.469800 -0.293827
O1    O     O_R   0.408690 0.356690 0.448570 -0.591891
O2    O     O_R   0.947510 0.091650 0.539220 -0.607947
O3    O     O_R   0.143610 0.091630 0.552030 -0.634536
O4    O     O_R   0.408080 0.460090 0.551420 -0.628758
O5    O     O_R   0.039620 0.091690 0.448080 -0.607686
O6    O     O_R   0.052490 0.908450 0.460880 -0.637245
O7    O     O_R   0.948500 0.908500 0.356930 -0.594675
O8    O     O_R   0.960380 0.908410 0.552020 -0.629118
O9    O     O_R   0.856390 0.908470 0.448070 -0.604313
O10   O     O_R   0.592400 0.448300 0.540680 -0.588519
O11   O     O_R   0.591790 0.551700 0.643540 -0.630555
O12   O     O_R   0.049530 0.460080 0.906210 -0.622676
O13   O     O_R   0.591920 0.539910 0.448580 -0.583678
O14   O     O_R   0.591310 0.643310 0.551430 -0.627625
O15   O     O_R   0.408210 0.448300 0.356460 -0.602319
O16   O     O_R   0.407600 0.551700 0.459320 -0.631524
O17   O     O_R   0.946090 0.356720 0.906270 -0.616147
O18   O     O_2   0.757160 0.470303 0.533041 -0.593566
O19   O     O_R   0.854184 0.595599 0.662191 -0.831638
O20   O     O_2   0.407532 0.118361 0.388223 -0.607768
O21   O     O_R   0.478510 0.252014 0.507939 -0.818151
O22   O     O_2   0.189202 0.152352 0.303339 -0.627533
O23   O     O_R   0.853510 0.448360 0.905260 -0.630338
O24   O     O_R   0.303340 0.167178 0.278213 -0.767185
O25   O     O_2   0.664387 0.570024 0.318369 -0.613070
O26   O     O_R   0.515610 0.506485 0.240458 -0.797144
O27   O     O_2   0.899788 0.990834 0.780535 -0.615911
O28   O     O_R   0.826729 0.990345 0.656398 -0.811010
O29   O     O_2   0.840214 0.777973 0.150777 -0.610784
O30   O     O_R   0.742330 0.761734 0.199510 -0.821137
O31   O     O_R   0.956950 0.551730 0.905200 -0.624076
O32   O     O_R   0.945130 0.540000 0.088470 -0.618635
O33   O     O_R   0.048570 0.643360 0.088400 -0.621996
O34   O     O_R   0.037700 0.448350 0.089480 -0.619739
O35   O     O_R   0.141150 0.551720 0.089410 -0.619812
O36   O     O_R   0.051500 0.091600 0.643170 -0.630044
Zn1   Zn    Zn3+2 0.500410 0.430960 0.431320 1.077588
Zn2   Zn    Zn3+2 0.499590 0.569040 0.568680 0.971021
Zn3   Zn    Zn3+2 0.928260 0.431020 0.997380 0.963474
Zn4   Zn    Zn3+2 0.066400 0.569060 0.997290 0.974539
Zn5   Zn    Zn3+2 0.069430 0.000010 0.569450 0.954893
Zn6   Zn    Zn3+2 0.930570 0.000090 0.430650 1.019792

loop_
_geom_bond_atom_site_label_1
_geom_bond_atom_site_label_2
_ccdc_geom_bond_type
C41   C42   S    
C42   C43   S    
C59   H33   S    
C43   H16   S    
C14   H4    S    
C35   C36   A    
C42   H15   S    
C22   H9    S    
C29   O35   A    
C7    C8    A    
C39   C41   A    
C31   C67   S    
C12   C23   S    
C13   H2    S    
C23   C54   S    
C47   H18   S    
C36   C37   A    
H36   O21   S    
C34   H29   S    
O16   Zn2   S    
C55   H27   S    
C38   C39   A    
C26   O31   A    
H38   O26   S    
C13   H3    S    
C56   C65   A    
C59   H32   S    
H37   O24   S    
C4    O11   A    
C28   O16   A    
C63   O27   D    
O31   Zn4   S    
C25   O12   A    
O23   Zn3   S    
C44   C53   S    
C19   C20   A    
C45   C56   A    
O12   Zn4   S    
C16   C17   S    
C4    C57   S    
C53   H24   S    
C65   H34   S    
C62   O26   S    
C35   C43   S    
C9    C10   A    
O3    Zn5   S    
O13   Zn1   S    
C59   N1    S    
O14   Zn2   S    
C9    H45   S    
C66   C67   A    
O10   Zn1   S    
C34   C55   S    
C13   C14   S    
C33   O8    A    
C43   H17   S    
C22   H8    S    
C32   O7    A    
O9    Zn6   S    
C52   H11   S    
C25   O17   A    
C12   C52   S    
C44   C46   A    
C50   C51   S    
C40   H44   S    
C30   O2    A    
C2    C45   A    
C37   H13   S    
O8    Zn5   S    
C52   H21   S    
C55   H28   S    
C2    C67   A    
C3    N1    S    
C51   H20   S    
C6    C11   A    
C8    C9    A    
H31   N1    S    
C3    C5    S    
C40   C52   S    
C5    C45   S    
O7    Zn6   S    
C7    C28   S    
C23   H26   S    
C4    O10   A    
C12   C26   S    
C51   C53   S    
O36   Zn5   S    
C31   O5    A    
C54   H25   S    
C37   C38   A    
C8    H43   S    
C34   H12   S    
C6    C14   S    
C47   C48   A    
C58   O18   D    
C27   O32   A    
C17   C18   A    
C63   O28   S    
C23   H23   S    
C5    C61   S    
O5    Zn6   S    
O4    Zn2   S    
C1    O4    A    
C62   O25   D    
C12   C34   S    
C20   C33   S    
C27   C46   S    
O15   Zn1   S    
C48   C49   A    
O11   Zn2   S    
C65   C66   A    
C18   H6    S    
C55   C57   S    
C38   H14   S    
C53   H22   S    
C33   O9    A    
C48   H19   S    
C1    O1    A    
O1    Zn1   S    
C32   O6    A    
H40   O30   S    
C60   O21   S    
C31   O3    A    
C61   O22   D    
H39   O28   S    
C54   C58   S    
C44   C50   A    
C15   C17   A    
C46   C47   A    
C15   C24   S    
C24   C62   S    
C40   C57   S    
C5    C60   S    
O2    Zn6   S    
C59   H35   S    
C14   H5    S    
C1    C56   S    
C19   H7    S    
C51   C64   S    
H30   O19   S    
C66   H41   S    
C30   O36   A    
C29   O34   A    
C6    C7    A    
C64   O30   S    
O6    Zn5   S    
C2    C3    S    
O17   Zn3   S    
C11   C13   S    
C10   C29   S    
C61   O24   S    
O33   Zn4   S    
C64   O29   D    
C3    H42   S    
C27   O33   A    
C60   O20   D    
C30   C39   S    
O34   Zn3   S    
C22   C24   S    
C35   C41   A    
C16   O14   A    
C32   C49   S    
O32   Zn3   S    
C26   O23   A    
C10   C11   A    
C25   C36   S    
C58   O19   S    
C24   H10   S    
C15   C21   A    
C20   C21   A    
C49   C50   A    
C40   H1    S    
C18   C19   A    
O35   Zn4   S    
C21   C22   S    
C16   O13   A    
C42   C63   S    
C28   O15   A    
C54   C57   S    
