data_mof_unit_13014.cif
_audit_creation_date              2013-03-05T16:03:41-0500
_audit_creation_method            fapswitch 2.2
_symmetry_space_group_name_H-M    P1
_symmetry_Int_Tables_number       1
_space_group_crystal_system       triclinic
_cell_length_a                    8.722904
_cell_length_b                    10.85677
_cell_length_c                    9.60845
_cell_angle_alpha                 89.91687
_cell_angle_beta                  97.009728
_cell_angle_gamma                 92.102042
_cell_volume                      902.531468868

loop_
_atom_site_label
_atom_site_type_symbol
_atom_site_description
_atom_site_fract_x
_atom_site_fract_y
_atom_site_fract_z
_atom_type_partial_charge
O1    O     O_R   0.499990 0.319660 0.618740 -0.512090
O2    O     O_R   0.500010 0.680340 0.381260 -0.512097
O3    O     O_R   0.499990 0.319630 0.381170 -0.572428
O4    O     O_R   0.500010 0.680370 0.618830 -0.572415
C1    C     C_R   0.502214 0.262422 0.500456 0.901618
C2    C     C_R   0.497784 0.737578 0.499544 0.901609
O5    O     O_R   0.274840 0.500010 0.591370 -0.558312
O6    O     O_R   0.725160 0.499990 0.408630 -0.558382
O7    O     O_R   0.274830 0.499980 0.353800 -0.535145
O8    O     O_R   0.725170 0.500020 0.646200 -0.535122
C3    C     C_R   0.204644 0.496643 0.465976 0.827485
C4    C     C_R   0.795354 0.503381 0.534026 0.827598
Cu1   Cu    Cu3+1 0.500000 0.500020 0.640660 1.144114
Cu2   Cu    Cu3+1 0.500000 0.499980 0.359340 1.144075
N1    N     N_R   0.500040 0.500030 0.852080 -0.312276
N2    N     N_R   0.499960 0.499970 0.147920 -0.312278
C5    C     C_2   0.041609 0.469526 0.456866 0.098563
C6    C     C_2   0.958384 0.530531 0.543146 0.098607
C7    C     C_R   0.476707 0.064094 0.373836 -0.221015
C8    C     C_R   0.523285 0.935906 0.626163 -0.220967
H1    H     H_    0.459331 0.111892 0.274895 0.256606
H2    H     H_    0.540658 0.888108 0.725104 0.256609
C9    C     C_R   0.470487 0.936642 0.372202 0.700912
C10   C     C_R   0.529505 0.063357 0.627798 0.700936
C11   C     C_R   0.496126 0.871543 0.498846 -0.266581
C12   C     C_R   0.503868 0.128457 0.501154 -0.266574
C13   C     C_R   0.388378 0.434916 0.061332 0.291043
C14   C     C_R   0.611622 0.565085 0.938667 0.291036
C15   C     C_R   0.389443 0.433801 0.913325 0.339403
C16   C     C_R   0.610557 0.566199 0.086675 0.339411
N3    N     N_R   0.984795 0.355522 0.389328 0.121929
O9    O     O_R   0.890193 0.356139 0.273740 -0.231612
O10   O     O_R   0.051874 0.253716 0.427681 -0.289775
N4    N     N_R   0.015168 0.644536 0.610711 0.121994
O11   O     O_R   0.109994 0.643917 0.726156 -0.231758
O12   O     O_R   0.947743 0.746261 0.572695 -0.289735
F1    F     F_    0.435880 0.878177 0.246918 -0.562750
F2    F     F_    0.564107 0.121823 0.753082 -0.562746
N5    N     N_R   0.265261 0.369942 0.118184 0.181562
O13   O     O_R   0.128900 0.416356 0.102410 -0.201419
O14   O     O_R   0.276386 0.252972 0.144135 -0.281919
N6    N     N_R   0.734727 0.630076 0.881812 0.181582
O15   O     O_R   0.871091 0.583668 0.897555 -0.201416
O16   O     O_R   0.723592 0.747051 0.855899 -0.281844
N7    N     N_R   0.275919 0.358745 0.829143 0.174514
O17   O     O_R   0.133467 0.392618 0.810237 -0.258509
O18   O     O_R   0.303352 0.243621 0.809552 -0.233975
N8    N     N_R   0.724075 0.641263 0.170855 0.174489
O19   O     O_R   0.866533 0.607407 0.189746 -0.258563
O20   O     O_R   0.696625 0.756383 0.190451 -0.233993

loop_
_geom_bond_atom_site_label_1
_geom_bond_atom_site_label_2
_geom_bond_distance
_ccdc_geom_bond_type
C10   F2    1.357420 S    
O7    Cu2   1.958354 S    
N3    O10   1.301324 A    
C13   C15   1.423352 A    
C6    N4    1.441403 S    
C7    C9    1.382824 A    
N3    O9    1.300454 A    
O6    C4    1.283110 A    
N2    C13   1.375498 A    
N8    O20   1.299423 A    
C5    C6    1.355254 D    
N5    O14   1.298646 A    
C9    F1    1.357418 S    
Cu1   Cu2   2.703050 S    
O5    C3    1.283095 A    
O7    C3    1.302761 A    
N1    C14   1.375500 A    
O2    C2    1.298675 A    
O3    Cu2   1.968917 S    
N6    O16   1.298646 A    
O1    C1    1.298673 A    
O8    C4    1.302735 A    
C14   C16   1.423356 A    
N8    O19   1.300190 A    
C7    H1    1.079448 S    
C5    N3    1.441356 S    
C10   C12   1.404618 A    
N1    C15   1.371297 A    
N4    O12   1.301185 A    
Cu1   N1    2.031377 S    
O2    Cu2   1.969722 S    
Cu2   N2    2.031375 S    
C2    C11   1.455025 S    
O1    Cu1   1.969721 S    
N6    O15   1.300562 A    
N2    C16   1.371303 A    
C1    C12   1.455023 S    
C8    C10   1.382823 A    
O5    Cu1   1.963349 S    
C9    C11   1.404618 A    
C13   N5    1.426833 S    
O4    C2    1.301224 A    
N4    O11   1.300425 A    
C8    C11   1.400190 A    
N7    O18   1.299424 A    
C16   N8    1.430418 S    
N5    O13   1.300558 A    
C7    C12   1.400191 A    
C3    C5    1.433801 S    
O6    Cu2   1.963348 S    
C14   N6    1.426843 S    
N7    O17   1.300192 A    
C15   N7    1.430416 S    
O4    Cu1   1.968918 S    
C8    H2    1.079445 S    
O3    C1    1.301223 A    
O8    Cu1   1.958352 S    
C4    C6    1.433813 S    
