data_mof_unit_58228.cif
_audit_creation_date              2012-10-26T20:18:32-0400
_audit_creation_method            fapswitch 2.2
_symmetry_space_group_name_H-M    P1
_symmetry_Int_Tables_number       1
_space_group_crystal_system       triclinic
_cell_length_a                    10.746174
_cell_length_b                    11.016717
_cell_length_c                    9.821196
_cell_angle_alpha                 111.142592
_cell_angle_beta                  98.349432
_cell_angle_gamma                 90.587827
_cell_volume                      1070.47201713

loop_
_atom_site_label
_atom_site_type_symbol
_atom_type_description
_atom_site_fract_x
_atom_site_fract_y
_atom_site_fract_z
_atom_type_partial_charge
Br1   Br    Br    0.146500 0.616579 0.830064 -0.618580
C1    C     C_R   0.491415 0.254063 0.440611 0.554507
C2    C     C_2   0.488919 0.490324 0.918715 0.002724
C3    C     C_R   0.260087 0.505212 0.502470 0.560119
C4    C     C_R   0.512629 0.745779 0.559112 0.559807
C5    C     C_R   0.739920 0.500605 0.498978 0.540032
C6    C     C_3   0.087573 0.633192 0.635923 0.130321
C7    C     C_3   0.940669 0.630718 0.623197 -0.181818
C8    C     C_3   0.051705 0.505028 0.352510 -0.255381
C9    C     C_3   0.074002 0.382038 0.521714 -0.230324
C10   C     C_3   0.122099 0.509081 0.505250 0.057834
C11   C     C_R   0.142009 0.764643 0.635888 0.050485
C12   C     C_3   0.877503 0.503918 0.499190 0.014084
C13   C     C_R   0.084945 0.821500 0.535850 -0.113069
C14   C     C_R   0.127664 0.944411 0.543521 -0.103687
C15   C     C_R   0.227387 0.014677 0.651750 -0.097800
C16   C     C_R   0.286536 0.960752 0.750307 -0.122660
C17   C     C_R   0.246969 0.836129 0.740353 -0.045610
C18   C     C_3   0.908619 0.501772 0.349251 -0.252091
C19   C     C_3   0.931559 0.384098 0.528674 -0.231635
C20   C     C_2   0.487492 0.114621 0.406912 -0.135033
C21   C     C_2   0.513103 0.069277 0.515667 -0.169731
C22   C     C_2   0.526407 0.884776 0.591701 -0.124633
C23   C     C_2   0.505190 0.930062 0.482483 -0.153956
C24   C     C_2   0.510640 0.510109 0.081377 -0.013375
Cu1   Cu    Cu3+1 0.522160 0.521810 0.644910 0.941008
Cu2   Cu    Cu3+1 0.477840 0.478190 0.355090 0.933486
H1    H     H_    0.882176 0.292366 0.445293 0.109780
H2    H     H_    0.626096 0.620377 0.934246 0.200125
H3    H     H_    0.374896 0.378462 0.065449 0.206925
H4    H     H_    0.911703 0.638345 0.729993 0.177377
H5    H     H_    0.900388 0.716223 0.603128 0.088214
H6    H     H_    0.084743 0.587793 0.325061 0.141994
H7    H     H_    0.869894 0.586239 0.324785 0.118108
H8    H     H_    0.091075 0.295394 0.425532 0.101009
H9    H     H_    0.125971 0.368173 0.620837 0.166040
H10   H     H_    0.915811 0.387647 0.639554 0.158565
H11   H     H_    0.004552 0.773703 0.453182 0.093369
H12   H     H_    0.073041 0.415602 0.262346 0.143073
H13   H     H_    0.081779 0.986132 0.466602 0.109224
H14   H     H_    0.259386 0.110541 0.658667 0.109383
H15   H     H_    0.364811 0.014959 0.833690 0.100213
H16   H     H_    0.299951 0.797864 0.816101 0.179008
H17   H     H_    0.864030 0.411640 0.258203 0.142696
H18   H     H_    0.478725 0.864414 0.368026 0.163302
H19   H     H_    0.537992 0.135056 0.630296 0.153002
H20   H     H_    0.552648 0.950718 0.705936 0.094055
H21   H     H_    0.463310 0.048538 0.292400 0.107043
H22   H     H_    0.414596 0.419551 0.845704 0.159635
H23   H     H_    0.584466 0.581435 0.154520 0.139984
N1    N     N_2   0.444530 0.445420 0.137360 -0.347238
N2    N     N_2   0.555520 0.554510 0.862630 -0.349375
O1    O     O_R   0.511820 0.332340 0.577400 -0.501614
O2    O     O_R   0.474400 0.295500 0.332650 -0.492287
O3    O     O_R   0.336400 0.518400 0.622370 -0.463825
O4    O     O_R   0.298980 0.481560 0.377620 -0.503405
O5    O     O_R   0.525600 0.704500 0.667350 -0.496639
O6    O     O_R   0.488180 0.667660 0.422600 -0.493218
O7    O     O_R   0.701020 0.518440 0.622380 -0.503144
O8    O     O_R   0.663600 0.481600 0.377630 -0.506403

loop_
_geom_bond_atom_site_label_1
_geom_bond_atom_site_label_2
_ccdc_geom_bond_type
C6    C10   S    
H3    N1    S    
C24   N1    D    
C14   H13   S    
C9    H8    S    
Cu1   N2    S    
C13   H11   S    
Cu1   O7    S    
C4    C22   S    
C4    O5    A    
C2    N2    D    
C20   H21   S    
Cu1   O3    S    
Cu2   O4    S    
C1    C20   S    
C16   C17   A    
C2    H22   S    
Cu2   O2    S    
C6    C7    S    
Br1   C6    S    
C17   H16   S    
C3    O4    A    
C5    C12   S    
C8    H6    S    
C19   H10   S    
C8    C10   S    
Cu1   Cu2   S    
C7    C12   S    
C9    C19   S    
C4    O6    A    
C23   H18   S    
C15   H14   S    
C21   H19   S    
Cu2   N1    S    
Cu2   O8    S    
C3    O3    A    
C13   C14   A    
H2    N2    S    
Cu1   O5    S    
C21   C23   S    
C6    C11   S    
C22   H20   S    
C9    C10   S    
C12   C18   S    
C22   C23   D    
C14   C15   A    
C7    H5    S    
Cu1   O1    S    
C5    O8    A    
C16   H15   S    
C2    C24   S    
C18   H17   S    
C8    C18   S    
C1    O2    A    
C11   C17   A    
C24   H23   S    
C9    H9    S    
C19   H1    S    
C12   C19   S    
C20   C21   D    
C7    H4    S    
C5    O7    A    
C18   H7    S    
C8    H12   S    
C1    O1    A    
C11   C13   A    
C15   C16   A    
C3    C10   S    
Cu2   O6    S    
