data_mof_unit_49322.cif
_audit_creation_date              2012-12-10T17:55:53-0500
_audit_creation_method            fapswitch 2.2
_symmetry_space_group_name_H-M    P1
_symmetry_Int_Tables_number       1
_space_group_crystal_system       triclinic
_cell_length_a                    11.074762
_cell_length_b                    10.810561
_cell_length_c                    9.614783
_cell_angle_alpha                 90.211491
_cell_angle_beta                  102.558929
_cell_angle_gamma                 92.084891
_cell_volume                      1122.75773756

loop_
_atom_site_label
_atom_site_type_symbol
_atom_type_description
_atom_site_fract_x
_atom_site_fract_y
_atom_site_fract_z
_atom_type_partial_charge
C1    C     C_R   0.500359 0.262415 0.499975 0.786739
C2    C     C_R   0.499641 0.737585 0.500025 0.786745
C3    C     C_R   0.263043 0.499466 0.441551 0.809322
C4    C     C_R   0.736957 0.500533 0.558449 0.809324
C5    C     C_R   0.418383 0.424489 0.054955 0.505383
C6    C     C_R   0.581615 0.575513 0.945044 0.505388
C7    C     C_R   0.417328 0.425642 0.905968 0.188429
C8    C     C_R   0.582672 0.574358 0.094031 0.188428
C9    C     C_2   0.127982 0.496335 0.406497 0.102556
C10   C     C_2   0.872017 0.503664 0.593503 0.102558
C11   C     C_2   0.067372 0.503616 0.512461 -0.157563
C12   C     C_2   0.932627 0.496368 0.487540 -0.157563
C13   C     C_R   0.543012 0.065214 0.393977 -0.208850
C14   C     C_R   0.456987 0.934786 0.606023 -0.208854
C15   C     C_R   0.541469 0.937150 0.393094 -0.136978
C16   C     C_R   0.458531 0.062850 0.606906 -0.136979
C17   C     C_R   0.499218 0.871554 0.499681 -0.022957
C18   C     C_R   0.500782 0.128446 0.500319 -0.022956
Cu1   Cu    Cu3+1 0.500000 0.500020 0.640660 1.045191
Cu2   Cu    Cu3+1 0.500000 0.499980 0.359340 1.045189
H1    H     H_    0.880485 0.484646 0.378802 0.225645
H2    H     H_    0.119514 0.515325 0.621200 0.225655
H3    H     H_    0.578474 0.114612 0.312691 0.150118
H4    H     H_    0.421524 0.885387 0.687310 0.150121
H5    H     H_    0.574625 0.889844 0.310179 0.184409
H6    H     H_    0.425375 0.110155 0.689822 0.184411
N1    N     N_R   0.500030 0.500030 0.852080 -0.263301
N2    N     N_R   0.499970 0.499970 0.147920 -0.263303
O1    O     O_R   0.499990 0.319660 0.618740 -0.553278
O2    O     O_R   0.500010 0.680340 0.381260 -0.553279
O3    O     O_R   0.499990 0.319630 0.381170 -0.581912
O4    O     O_R   0.500010 0.680370 0.618830 -0.581906
O5    O     O_R   0.320690 0.500020 0.575130 -0.568314
O6    O     O_R   0.679310 0.499980 0.424870 -0.568314
O7    O     O_R   0.320680 0.499990 0.337560 -0.498882
O8    O     O_R   0.679320 0.500010 0.662440 -0.498884
O9    O     O_3   0.330205 0.354849 0.106020 -0.498149
C19   C     C_3   0.356523 0.227632 0.107704 -0.152624
H7    H     H_    0.454430 0.208713 0.105421 0.100773
H8    H     H_    0.293438 0.178000 0.018026 0.195481
H9    H     H_    0.336017 0.186638 0.205912 0.178582
O10   O     O_3   0.669789 0.645158 0.893977 -0.498143
C20   C     C_3   0.643467 0.772376 0.892301 -0.152627
H10   H     H_    0.706566 0.822010 0.981971 0.195486
H11   H     H_    0.545563 0.791293 0.894611 0.100765
H12   H     H_    0.663951 0.813371 0.794083 0.178580
Br1   Br    Br    0.955071 0.520491 0.791551 -0.345522
Br2   Br    Br    0.044928 0.479534 0.208447 -0.345519
Br3   Br    Br    0.294542 0.321743 0.782601 -0.484319
Br4   Br    Br    0.705460 0.678255 0.217398 -0.484299

loop_
_geom_bond_atom_site_label_1
_geom_bond_atom_site_label_2
_ccdc_geom_bond_type
C20   H10   S    
C4    O8    A    
O9    C19   S    
C3    C9    S    
C5    O9    S    
C5    N2    A    
Cu1   N1    S    
C11   H2    S    
C6    N1    A    
C3    O7    A    
C11   C12   S    
Cu2   O6    S    
C1    O1    A    
C7    Br3   S    
C5    C7    A    
Cu2   O2    S    
C2    C17   S    
C19   H8    S    
C20   H11   S    
C14   C17   A    
C9    C11   D    
C1    C18   S    
C10   C12   D    
C13   C18   A    
C19   H9    S    
Cu1   O4    S    
C16   C18   A    
C14   C16   A    
Cu1   O8    S    
C13   C15   A    
C16   H6    S    
C19   H7    S    
C8    N2    A    
C20   H12   S    
C4    O6    A    
C15   H5    S    
O10   C20   S    
C3    O5    A    
C4    C10   S    
Cu1   O1    S    
C8    Br4   S    
C1    O3    A    
C7    N1    A    
C13   H3    S    
C9    Br2   S    
C2    O4    A    
C6    O10   S    
C14   H4    S    
C10   Br1   S    
C15   C17   A    
C2    O2    A    
C6    C8    A    
Cu2   N2    S    
Cu2   O7    S    
C12   H1    S    
Cu1   Cu2   S    
Cu1   O5    S    
Cu2   O3    S    
