data_mof_unit_57204.cif
_audit_creation_date              2012-12-10T18:50:01-0500
_audit_creation_method            fapswitch 2.2
_symmetry_space_group_name_H-M    P1
_symmetry_Int_Tables_number       1
_space_group_crystal_system       triclinic
_cell_length_a                    10.702322
_cell_length_b                    9.835469
_cell_length_c                    10.628445
_cell_angle_alpha                 89.979548
_cell_angle_beta                  90.029671
_cell_angle_gamma                 89.974893
_cell_volume                      1118.77483528

loop_
_atom_site_label
_atom_site_type_symbol
_atom_type_description
_atom_site_fract_x
_atom_site_fract_y
_atom_site_fract_z
_atom_type_partial_charge
C1    C     C_R   0.259876 0.500039 0.499526 0.846185
C2    C     C_R   0.575465 0.927962 0.580295 -0.079425
C3    C     C_R   0.424447 0.928076 0.419650 -0.080330
C4    C     C_R   0.424400 0.072018 0.419713 -0.080133
C5    C     C_R   0.491401 0.499779 0.258151 0.847852
C6    C     C_R   0.740084 0.499989 0.499741 0.869292
C7    C     C_R   0.495635 0.499763 0.742318 0.856774
C8    C     C_3   0.397707 0.614989 0.069586 0.055850
C9    C     C_3   0.444789 0.354605 0.070581 0.057281
C10   C     C_3   0.389283 0.600890 0.925424 -0.405600
C11   C     C_3   0.455465 0.354207 0.926726 -0.390996
C12   C     C_3   0.619846 0.538644 0.930463 -0.437767
C13   C     C_3   0.619098 0.527890 0.074240 -0.531072
C14   C     C_3   0.484164 0.498720 0.121774 0.156200
C15   C     C_3   0.490054 0.498719 0.878645 0.106519
C16   C     C_3   0.267269 0.629618 0.130091 -0.950793
C17   C     C_3   0.315355 0.302578 0.113663 -0.927819
C18   C     C_R   0.064085 0.382088 0.463425 -0.198777
C19   C     C_R   0.063982 0.618570 0.532899 -0.201203
C20   C     C_R   0.936029 0.381977 0.463763 -0.201617
C21   C     C_R   0.935994 0.618490 0.533157 -0.200264
C22   C     C_R   0.872528 0.500092 0.498924 -0.015514
C23   C     C_R   0.127490 0.500238 0.498481 -0.009213
C24   C     C_R   0.575466 0.071906 0.580292 -0.079804
H1    H     H_    0.445593 0.713397 0.089451 0.163017
H2    H     H_    0.683621 0.445100 0.104324 0.178741
H3    H     H_    0.643096 0.644671 0.902110 0.183053
H4    H     H_    0.693539 0.470677 0.891494 0.171623
H5    H     H_    0.113136 0.290613 0.435233 0.150295
H6    H     H_    0.112885 0.710176 0.560870 0.155046
H7    H     H_    0.887056 0.290397 0.435856 0.154586
H8    H     H_    0.887059 0.710055 0.561281 0.150145
H9    H     H_    0.635789 0.126453 0.644495 0.122705
H10   H     H_    0.635814 0.873308 0.644479 0.119159
H11   H     H_    0.272546 0.629349 0.234196 0.252279
H12   H     H_    0.513970 0.278861 0.106078 0.159388
H13   H     H_    0.225966 0.728478 0.101246 0.236847
H14   H     H_    0.201525 0.549681 0.099714 0.257349
H15   H     H_    0.314048 0.189732 0.109355 0.226415
H16   H     H_    0.293466 0.332964 0.211650 0.253671
H17   H     H_    0.239317 0.338875 0.051320 0.244814
H18   H     H_    0.364096 0.873524 0.355454 0.127478
H19   H     H_    0.363886 0.126612 0.355724 0.126034
H20   H     H_    0.295273 0.564489 0.895723 0.173870
H21   H     H_    0.367251 0.319531 0.881262 0.181464
H22   H     H_    0.402852 0.703117 0.882567 0.166299
H23   H     H_    0.529210 0.280089 0.898737 0.158723
H24   H     H_    0.655972 0.624310 0.114807 0.188685
N1    N     N_R   0.499970 0.857200 0.499970 -0.077183
N2    N     N_R   0.499970 0.142800 0.499970 -0.076976
O1    O     O_R   0.316750 0.614620 0.499990 -0.630692
O2    O     O_R   0.316750 0.385380 0.499990 -0.627620
O3    O     O_R   0.499970 0.614670 0.314790 -0.627825
O4    O     O_R   0.499970 0.385330 0.314790 -0.628401
O5    O     O_R   0.683220 0.614710 0.500010 -0.622203
O6    O     O_R   0.683220 0.385290 0.500010 -0.624433
O7    O     O_R   0.500010 0.614660 0.685200 -0.628102
O8    O     O_R   0.500010 0.385340 0.685200 -0.628307
Zn1   Zn    Zn3+2 0.499980 0.653120 0.500000 0.932263
Zn2   Zn    Zn3+2 0.499980 0.346880 0.500000 0.932168

loop_
_geom_bond_atom_site_label_1
_geom_bond_atom_site_label_2
_ccdc_geom_bond_type
C10   H22   S    
C9    H12   S    
C19   C23   A    
C9    C14   S    
C3    H18   S    
C21   H8    S    
C2    N1    A    
O5    Zn1   S    
C13   H24   S    
C9    C11   S    
C16   H13   S    
C7    O8    A    
C11   H23   S    
C24   H9    S    
N1    Zn1   S    
C12   C15   S    
C6    O5    A    
N2    Zn2   S    
C2    H10   S    
C7    C15   S    
O3    Zn1   S    
C8    C16   S    
C18   H5    S    
O4    Zn2   S    
C21   C22   A    
C24   N2    A    
C8    H1    S    
C1    O1    A    
C5    C14   S    
C11   C15   S    
C12   H4    S    
C9    C17   S    
C19   C21   A    
C4    H19   S    
C20   C22   A    
C1    C23   S    
C18   C20   A    
C10   C15   S    
C6    O6    A    
C16   H11   S    
C2    C24   A    
C1    O2    A    
C17   H17   S    
C13   H2    S    
C11   H21   S    
O7    Zn1   S    
C12   H3    S    
C10   H20   S    
C18   C23   A    
C6    C22   S    
C5    O4    A    
O1    Zn1   S    
C12   C13   S    
C8    C10   S    
C17   H15   S    
C5    O3    A    
C8    C14   S    
O2    Zn2   S    
C16   H14   S    
C13   C14   S    
C19   H6    S    
O8    Zn2   S    
C17   H16   S    
C7    O7    A    
C3    C4    A    
O6    Zn2   S    
C4    N2    A    
C3    N1    A    
C20   H7    S    
