data_mof_unit_47193.cif
_audit_creation_date              2012-12-10T19:05:21-0500
_audit_creation_method            fapswitch 2.2
_symmetry_space_group_name_H-M    P1
_symmetry_Int_Tables_number       1
_space_group_crystal_system       triclinic
_cell_length_a                    9.556957
_cell_length_b                    10.827141
_cell_length_c                    17.256825
_cell_angle_alpha                 90.038797
_cell_angle_beta                  85.332809
_cell_angle_gamma                 90.298155
_cell_volume                      1779.69661414

loop_
_atom_site_label
_atom_site_type_symbol
_atom_type_description
_atom_site_fract_x
_atom_site_fract_y
_atom_site_fract_z
_atom_type_partial_charge
C1    C     C_R   0.500090 0.737604 0.501787 0.859380
C2    C     C_R   0.365885 0.551098 0.777897 -0.227216
C3    C     C_R   0.475999 0.559979 0.139131 -0.230836
C4    C     C_R   0.472083 0.580853 0.219008 -0.013756
C5    C     C_R   0.593717 0.385507 0.232754 -0.203450
C6    C     C_R   0.599631 0.365430 0.152497 0.026707
C7    C     C_R   0.538196 0.453323 0.105569 0.089258
C8    C     C_2   0.431245 0.461960 0.981559 -0.204854
C9    C     C_2   0.543597 0.438715 0.020829 -0.237926
C10   C     C_R   0.530653 0.491417 0.266040 -0.083196
C11   C     C_R   0.373759 0.935522 0.516462 0.106992
C12   C     C_R   0.480948 0.495807 0.649808 0.775465
C13   C     C_R   0.499949 0.870619 0.509995 -0.081873
C14   C     C_R   0.626298 0.936221 0.514826 -0.204734
C15   C     C_R   0.626006 0.064998 0.514530 -0.210513
C16   C     C_R   0.499384 0.129107 0.509279 -0.089958
C17   C     C_R   0.373488 0.062647 0.515884 0.131086
C18   C     C_3   0.250429 0.067278 0.467928 -0.484987
C19   C     C_3   0.249968 0.927166 0.469199 -0.425140
C20   C     C_R   0.936219 0.480577 0.432679 0.268674
C21   C     C_R   0.916599 0.532423 0.564502 -0.103336
C22   C     C_R   0.065100 0.532423 0.564497 -0.083006
C23   C     C_R   0.499694 0.262289 0.501367 0.781518
C24   C     C_R   0.083568 0.480072 0.432886 0.234743
C25   C     C_3   0.098233 0.368648 0.382397 -0.550709
C26   C     C_3   0.938905 0.368527 0.381810 -0.093426
C27   C     C_R   0.518979 0.500048 0.350303 0.891099
C28   C     C_R   0.468024 0.482343 0.734148 -0.062846
C29   C     C_R   0.551891 0.397438 0.771641 0.126548
C30   C     C_R   0.535796 0.387060 0.852231 -0.114711
C31   C     C_R   0.439402 0.461699 0.896217 0.128091
C32   C     C_R   0.351953 0.541052 0.858510 -0.165276
Cu1   Cu    Cu3+1 0.359330 0.500020 0.500000 0.960948
Cu2   Cu    Cu3+1 0.640670 0.499980 0.500000 0.954755
H1    H     H_    0.725830 0.888814 0.514736 0.166041
H2    H     H_    0.725423 0.113532 0.514370 0.162360
H3    H     H_    0.156448 0.107956 0.500355 0.195848
H4    H     H_    0.278007 0.106048 0.408968 0.204080
H5    H     H_    0.156370 0.887207 0.502831 0.191063
H6    H     H_    0.275575 0.885372 0.410994 0.245336
H7    H     H_    0.854572 0.557706 0.617162 0.148161
H8    H     H_    0.112414 0.557413 0.617108 0.143985
H9    H     H_    0.156036 0.389054 0.325258 0.204147
H10   H     H_    0.138175 0.288324 0.413384 0.198294
H11   H     H_    0.885551 0.286727 0.410087 0.179833
H12   H     H_    0.634517 0.316426 0.270275 0.191126
H13   H     H_    0.643221 0.412909 0.990744 0.140486
H14   H     H_    0.275600 0.597890 0.891623 0.133610
H15   H     H_    0.433511 0.629194 0.102303 0.135240
H16   H     H_    0.299029 0.614691 0.749717 0.144253
H17   H     H_    0.333525 0.490924 0.012819 0.153662
H18   H     H_    0.599037 0.320221 0.880051 0.138817
N1    N     N_R   0.852130 0.499070 0.499500 -0.203567
N2    N     N_R   0.148040 0.499110 0.499500 -0.183728
O1    O     O_R   0.381190 0.680360 0.500000 -0.566094
O2    O     O_R   0.618770 0.680320 0.499990 -0.584788
O3    O     O_R   0.367430 0.500040 0.613600 -0.592077
O4    O     O_R   0.605020 0.500000 0.613590 -0.601189
O5    O     O_R   0.381230 0.319680 0.500010 -0.579353
O6    O     O_R   0.618810 0.319640 0.500000 -0.594165
O7    O     O_R   0.394980 0.500000 0.386410 -0.568635
O8    O     O_R   0.632570 0.499960 0.386400 -0.556287
N3    N     N_3   0.650591 0.317888 0.729519 -0.599315
H19   H     H_    0.599604 0.270858 0.686871 0.220229
H20   H     H_    0.731697 0.371677 0.702740 0.236339
C33   C     C_2   0.664686 0.250481 0.119330 0.338390
H21   H     H_    0.659673 0.227701 0.058441 0.070813
O9    O     O_2   0.724654 0.178865 0.159954 -0.546794
C34   C     C_2   0.409644 0.698344 0.249524 0.339330
H22   H     H_    0.347127 0.753708 0.213016 0.070767
O10   O     O_2   0.430408 0.737054 0.314027 -0.567087
N4    N     N_3   0.891445 0.395452 0.305129 -0.553972
H23   H     H_    0.918101 0.320370 0.268849 0.253252
H24   H     H_    0.944104 0.473013 0.280816 0.228077

loop_
_geom_bond_atom_site_label_1
_geom_bond_atom_site_label_2
_ccdc_geom_bond_type
C10   C27   S    
Cu1   O1    S    
C33   O9    D    
C29   N3    S    
Cu2   O2    S    
C26   N4    S    
C25   H9    S    
N3    H20   S    
C3    H15   S    
C22   N2    A    
C23   O5    A    
C11   C19   S    
C12   C28   S    
C5    C6    A    
C28   C29   A    
C18   H3    S    
C3    C7    A    
C30   C31   A    
C16   C17   A    
C24   N2    A    
C15   C16   A    
Cu2   O8    S    
C2    C32   A    
C18   C19   S    
C34   O10   D    
C2    H16   S    
C26   H11   S    
C20   C24   A    
C8    C9    D    
C27   O7    A    
C12   O4    A    
C33   H21   S    
Cu1   O5    S    
C21   C22   A    
Cu2   O6    S    
C32   H14   S    
C25   H10   S    
C4    C34   S    
Cu1   Cu2   S    
C23   O6    A    
C24   C25   S    
N4    H24   S    
C14   H1    S    
C20   N1    A    
C25   C26   S    
C29   C30   A    
C27   O8    A    
C31   C32   A    
C17   C18   S    
C8    H17   S    
C19   H5    S    
C21   H7    S    
C12   O3    A    
C9    H13   S    
C16   C23   S    
C1    C13   S    
C4    C10   A    
C3    C4    A    
C15   H2    S    
Cu1   N2    S    
C7    C9    S    
C30   H18   S    
C11   C17   A    
Cu1   O3    S    
C8    C31   S    
C1    O2    A    
N4    H23   S    
C6    C7    A    
C5    H12   S    
C1    O1    A    
C5    C10   A    
C21   N1    A    
C11   C13   A    
C22   H8    S    
C20   C26   S    
C18   H4    S    
C34   H22   S    
C19   H6    S    
N3    H19   S    
C6    C33   S    
Cu2   N1    S    
Cu1   O7    S    
Cu2   O4    S    
C14   C15   A    
C2    C28   A    
C13   C14   A    
