data_mof_unit_49226.cif
_audit_creation_date              2013-03-05T15:43:32-0500
_audit_creation_method            fapswitch 2.2
_symmetry_space_group_name_H-M    P1
_symmetry_Int_Tables_number       1
_space_group_crystal_system       triclinic
_cell_length_a                    10.074313
_cell_length_b                    10.655244
_cell_length_c                    13.26494
_cell_angle_alpha                 89.454385
_cell_angle_beta                  69.519474
_cell_angle_gamma                 87.309859
_cell_volume                      1332.40495753

loop_
_atom_site_label
_atom_site_type_symbol
_atom_site_description
_atom_site_fract_x
_atom_site_fract_y
_atom_site_fract_z
_atom_type_partial_charge
O1    O     O_R   0.386950 0.680940 0.500020 -0.574970
O2    O     O_R   0.613110 0.680900 0.499980 -0.575977
C1    C     C_R   0.491497 0.737330 0.511590 0.877300
O3    O     O_R   0.330780 0.500000 0.653640 -0.618759
O4    O     O_R   0.556930 0.499960 0.653610 -0.604808
C2    C     C_R   0.421021 0.496329 0.704010 0.842830
Zn1   Zn    Zn3+2 0.349000 0.500030 0.500020 1.054251
Zn2   Zn    Zn3+2 0.651000 0.499970 0.499980 1.090075
O5    O     O_R   0.386890 0.319100 0.500020 -0.550984
O6    O     O_R   0.613050 0.319060 0.499980 -0.542239
O7    O     O_R   0.443070 0.500040 0.346390 -0.589746
O8    O     O_R   0.669220 0.500000 0.346360 -0.539453
C3    C     C_R   0.503322 0.261944 0.500833 0.974976
C4    C     C_R   0.579358 0.503889 0.295717 0.919836
C5    C     C_R   0.783747 0.412631 0.008563 -0.241223
H1    H     H_    0.785678 0.312214 0.826425 0.189309
H2    H     H_    0.886126 0.372108 0.958462 0.191892
C6    C     C_R   0.628443 0.501820 0.177657 -0.171120
C7    C     C_R   0.239540 0.561284 0.877270 -0.166593
C8    C     C_R   0.204832 0.593890 0.984686 -0.023693
C9    C     C_R   0.300832 0.568028 0.037213 -0.122107
C10   C     C_R   0.433431 0.503993 0.983377 0.094046
C11   C     C_R   0.461727 0.460467 0.877281 0.071162
C12   C     C_R   0.541316 0.484875 0.029026 0.098471
C13   C     C_R   0.671800 0.421263 0.969230 0.080483
C14   C     C_R   0.689523 0.366739 0.870624 -0.150390
C15   C     C_R   0.583893 0.382616 0.827256 -0.102709
C16   C     C_R   0.523754 0.526186 0.132412 -0.236062
C17   C     C_R   0.765161 0.456892 0.111585 0.343272
C18   C     C_R   0.369856 0.498921 0.821848 -0.089356
H3    H     H_    0.425652 0.571854 0.182402 0.175265
H4    H     H_    0.167787 0.591079 0.836067 0.171785
H5    H     H_    0.267789 0.600694 0.119207 0.148310
H6    H     H_    0.105579 0.645173 0.026037 0.194536
H7    H     H_    0.600891 0.335579 0.752297 0.216896
C19   C     C_2   0.561184 0.065196 0.572855 0.298221
C20   C     C_2   0.514355 0.127937 0.502056 -0.374752
H8    H     H_    0.479871 0.079823 0.444473 0.179953
C21   C     C_2   0.562781 0.928081 0.574658 0.167709
C22   C     C_2   0.464519 0.867139 0.548153 -0.072459
C23   C     C_2   0.098861 0.411702 0.456604 0.230851
N1    N     N_2   0.148270 0.498670 0.498870 -0.229670
H9    H     H_    0.089171 0.582134 0.518160 0.168930
C24   C     C_2   0.959077 0.426905 0.438957 -0.131869
N2    N     N_2   0.852610 0.498640 0.498840 -0.176636
H10   H     H_    0.865438 0.541177 0.563942 0.189235
N3    N     N_R   0.885743 0.458729 0.145264 0.198367
O9    O     O_R   0.905156 0.557659 0.194279 -0.428022
O10   O     O_R   0.991502 0.377443 0.104979 -0.407293
N4    N     N_R   0.673429 0.862185 0.602252 0.244069
O11   O     O_R   0.803297 0.897867 0.562448 -0.282079
O12   O     O_R   0.640809 0.779660 0.679079 -0.356984
N5    N     N_R   0.326664 0.926249 0.562795 0.209713
O13   O     O_R   0.263910 0.906842 0.494015 -0.294612
O14   O     O_R   0.260691 0.994797 0.647915 -0.323296
N6    N     N_R   0.183277 0.298447 0.417981 0.225530
O15   O     O_R   0.134183 0.191340 0.458568 -0.286794
O16   O     O_R   0.290003 0.299342 0.327621 -0.381368
C25   C     C_2   0.951717 0.352732 0.347344 0.685829
H11   H     H_    0.048603 0.331120 0.280014 0.100355
O17   O     O_2   0.842989 0.308795 0.346772 -0.505598
N7    N     N_R   0.613696 0.127566 0.645669 0.201219
O18   O     O_R   0.738444 0.174531 0.608316 -0.325351
O19   O     O_R   0.561238 0.100842 0.747518 -0.357702

loop_
_geom_bond_atom_site_label_1
_geom_bond_atom_site_label_2
_geom_bond_distance
_ccdc_geom_bond_type
O4    Zn2   1.923449 S    
N4    O12   1.302111 A    
C23   N6    1.432660 S    
C5    H2    1.084386 S    
C20   H8    1.084806 S    
C11   C15   1.409359 A    
C12   C16   1.392921 A    
C23   N1    1.292011 D    
C4    C6    1.468083 S    
C3    C20   1.427367 S    
N3    O9    1.301369 A    
Zn2   O8    1.981012 S    
C8    H6    1.081610 S    
C8    C9    1.392720 A    
N4    O11   1.301741 A    
C25   H11   1.084523 S    
N3    O10   1.301794 A    
C6    C17   1.412708 A    
O1    Zn1   1.982711 S    
N5    O13   1.301676 A    
C12   C13   1.418997 A    
Zn1   O7    1.923449 S    
C14   C15   1.378997 A    
N7    O18   1.301499 A    
C17   N3    1.434513 S    
O3    Zn1   1.981012 S    
C19   N7    1.434303 S    
C7    H4    1.083355 S    
O3    C2    1.302186 A    
C19   C20   1.349068 D    
C2    C18   1.464736 S    
O8    C4    1.301573 A    
C1    C22   1.451708 S    
C5    C17   1.396405 A    
O2    C1    1.298791 A    
N5    O14   1.301966 A    
H1    C14   1.084374 S    
O4    C2    1.298870 A    
C23   C24   1.507541 S    
C10   C12   1.423674 A    
C25   O17   1.213695 D    
C24   N2    1.305394 D    
C9    H5    1.076058 S    
N1    H9    1.029022 S    
C24   C25   1.481149 S    
C11   C18   1.414252 A    
N2    H10   1.029046 S    
C21   C22   1.354041 D    
C21   N4    1.441077 S    
C6    C16   1.397934 A    
N6    O15   1.300723 A    
C5    C13   1.397743 A    
Zn2   O6    1.982711 S    
C22   N5    1.447280 S    
Zn1   N1    2.028335 S    
O7    C4    1.302915 A    
Zn1   O5    1.947627 S    
O5    C3    1.299439 A    
Zn2   N2    2.025224 S    
N7    O19   1.301083 A    
C15   H7    1.073074 S    
C13   C14   1.386215 A    
C9    C10   1.419921 A    
C7    C18   1.399141 A    
C19   C21   1.460386 S    
C16   H3    1.075015 S    
O2    Zn2   1.947625 S    
C10   C11   1.412893 A    
C7    C8    1.386569 A    
N6    O16   1.300661 A    
O1    C1    1.291576 A    
O6    C3    1.283258 A    
