data_mof_unit_39166.cif
_audit_creation_date              2012-12-10T17:31:08-0500
_audit_creation_method            fapswitch 2.2
_symmetry_space_group_name_H-M    P1
_symmetry_Int_Tables_number       1
_space_group_crystal_system       triclinic
_cell_length_a                    11.988471
_cell_length_b                    12.861917
_cell_length_c                    15.450799
_cell_angle_alpha                 86.893851
_cell_angle_beta                  115.559528
_cell_angle_gamma                 94.186611
_cell_volume                      2142.86409469

loop_
_atom_site_label
_atom_site_type_symbol
_atom_type_description
_atom_site_fract_x
_atom_site_fract_y
_atom_site_fract_z
_atom_type_partial_charge
C1    C     C_R   0.476140 0.299359 0.498075 0.905391
C2    C     C_R   0.523902 0.700624 0.502023 0.904760
C3    C     C_R   0.654302 0.590826 0.108226 -0.274463
C4    C     C_R   0.360677 0.583373 0.886030 -0.261782
C5    C     C_R   0.742960 0.586938 0.072504 0.071411
C6    C     C_R   0.271263 0.585521 0.921348 0.075641
C7    C     C_R   0.540878 0.812238 0.505681 -0.059647
C8    C     C_R   0.459249 0.187704 0.494662 -0.061299
C9    C     C_R   0.333850 0.029329 0.436103 -0.262571
C10   C     C_R   0.666299 0.970530 0.564566 -0.262644
C11   C     C_R   0.341806 0.136856 0.445411 0.091091
C12   C     C_R   0.658294 0.862985 0.555273 0.092782
C13   C     C_R   0.566119 0.131765 0.536093 -0.312817
C14   C     C_R   0.434052 0.868202 0.464232 -0.312739
C15   C     C_R   0.558512 0.025660 0.525616 0.167081
C16   C     C_R   0.441664 0.974260 0.474880 0.166863
C17   C     C_R   0.002128 0.595633 0.406910 -0.349196
C18   C     C_R   0.998167 0.404973 0.593601 -0.337394
C19   C     C_R   0.123194 0.586811 0.416471 0.021854
C20   C     C_R   0.876930 0.413470 0.583750 0.025443
C21   C     C_R   0.161708 0.459645 0.541478 -0.046841
C22   C     C_R   0.838404 0.540606 0.458717 -0.045518
C23   C     C_R   0.576523 0.496678 0.680594 0.870524
C24   C     C_R   0.424104 0.507391 0.319483 0.873215
C25   C     C_R   0.040525 0.465782 0.534373 0.085503
C26   C     C_R   0.959691 0.534668 0.465992 0.094853
C27   C     C_R   0.625058 0.511446 0.783790 -0.060862
C28   C     C_R   0.380079 0.527199 0.216334 -0.061813
C29   C     C_R   0.791626 0.551485 0.938811 -0.183225
C30   C     C_R   0.218667 0.560238 0.057860 -0.187321
C31   C     C_R   0.751824 0.526476 0.842844 -0.218875
C32   C     C_R   0.254990 0.538920 0.155441 -0.213315
C33   C     C_R   0.539495 0.522040 0.820884 -0.246028
C34   C     C_R   0.468258 0.540597 0.179965 -0.249849
C35   C     C_R   0.576253 0.555079 0.914023 0.062126
C36   C     C_R   0.435123 0.565990 0.083506 0.066344
C37   C     C_R   0.704701 0.565058 0.975616 0.169142
C38   C     C_R   0.307462 0.571596 0.020429 0.153075
C39   C     C_R   0.487184 0.571892 0.948244 0.038985
C40   C     C_R   0.526020 0.576951 0.047753 0.045503
H1    H     H_    0.844977 0.366678 0.629803 0.124918
H2    H     H_    0.155099 0.633602 0.370384 0.123859
H3    H     H_    0.942239 0.649489 0.353670 0.136720
H4    H     H_    0.058180 0.351412 0.647126 0.147241
H5    H     H_    0.563150 0.526496 0.227507 0.160539
H6    H     H_    0.443149 0.502295 0.776134 0.157737
H7    H     H_    0.185417 0.530326 0.182847 0.162170
H8    H     H_    0.819679 0.519584 0.814923 0.165742
H9    H     H_    0.890191 0.560550 0.983670 0.157806
H10   H     H_    0.120890 0.565740 0.011884 0.152163
H11   H     H_    0.688210 0.607786 0.183338 0.140579
H12   H     H_    0.329984 0.593979 0.809513 0.147943
H13   H     H_    0.344027 0.828692 0.425029 0.159272
H14   H     H_    0.656152 0.171320 0.575155 0.159203
H15   H     H_    0.244054 0.989445 0.397467 0.137022
H16   H     H_    0.756082 0.010367 0.603348 0.137203
H17   H     H_    0.775406 0.593567 0.406694 0.120251
H18   H     H_    0.224689 0.406668 0.593474 0.124628
N1    N     N_R   0.799120 0.480200 0.517090 -0.094656
N2    N     N_R   0.200880 0.519800 0.482910 -0.093368
O1    O     O_R   0.580150 0.341050 0.504560 -0.627265
O2    O     O_R   0.419850 0.658950 0.495440 -0.628713
O3    O     O_R   0.388090 0.353760 0.493600 -0.592703
O4    O     O_R   0.611910 0.646240 0.506400 -0.594393
O5    O     O_R   0.650890 0.490020 0.640860 -0.618999
O6    O     O_R   0.349110 0.509980 0.359140 -0.618946
O7    O     O_R   0.458830 0.502730 0.629890 -0.624011
O8    O     O_R   0.541170 0.497270 0.370110 -0.623092
Zn1   Zn    Zn3+2 0.628240 0.491510 0.507320 0.946927
Zn2   Zn    Zn3+2 0.371760 0.508490 0.492680 0.946020
N3    N     N_3   0.871955 0.601213 0.135919 -0.488464
H19   H     H_    0.886806 0.674437 0.166500 0.180582
H20   H     H_    0.893133 0.544712 0.191139 0.193557
N4    N     N_3   0.143133 0.596321 0.856440 -0.474450
H21   H     H_    0.130340 0.595849 0.785086 0.191373
H22   H     H_    0.119255 0.669610 0.866957 0.177907
N5    N     N_3   0.768069 0.805608 0.599245 -0.435357
H23   H     H_    0.809408 0.819929 0.672763 0.178754
H24   H     H_    0.829536 0.834469 0.570913 0.181509
N6    N     N_3   0.231900 0.194096 0.401843 -0.433834
H25   H     H_    0.170927 0.165218 0.430637 0.183036
H26   H     H_    0.190021 0.179627 0.328352 0.180200

loop_
_geom_bond_atom_site_label_1
_geom_bond_atom_site_label_2
_ccdc_geom_bond_type
C8    C13   A    
C5    C37   A    
C1    C8    S    
C2    C7    S    
C22   H17   S    
C20   H1    S    
C29   H9    S    
N5    H23   S    
C27   C33   A    
O2    Zn2   S    
N4    H22   S    
C4    H12   S    
C17   C26   A    
C35   C37   A    
C9    C16   A    
C10   C15   A    
C15   C16   A    
C30   C38   A    
C23   O7    A    
C36   C40   A    
C33   C35   A    
C7    C14   A    
O8    Zn1   S    
C6    C38   A    
C9    H15   S    
C23   C27   S    
C10   H16   S    
C34   C36   A    
C19   H2    S    
C24   O6    A    
C30   H10   S    
C28   C34   A    
C33   H6    S    
C18   C25   A    
C1    O3    A    
C2    O4    A    
C6    N4    S    
N5    H24   S    
C7    C12   A    
N4    H21   S    
O3    Zn2   S    
C27   C31   A    
C28   C32   A    
C21   N2    A    
C4    C6    A    
C22   N1    A    
N3    H20   S    
C3    H11   S    
C25   C26   A    
C35   C39   A    
C17   H3    S    
C18   H4    S    
C4    C39   A    
N2    Zn2   S    
C12   N5    S    
C34   H5    S    
O4    Zn1   S    
C20   N1    A    
C9    C11   A    
C10   C12   A    
N1    Zn1   S    
N6    H26   S    
C3    C40   A    
C31   H8    S    
C13   C15   A    
C32   H7    S    
C14   C16   A    
C39   C40   A    
C13   H14   S    
O1    Zn1   S    
C21   C25   A    
C24   C28   S    
N6    H25   S    
C3    C5    A    
C1    O1    A    
C19   N2    A    
O7    Zn2   S    
C23   O5    A    
C36   C38   A    
C21   H18   S    
C5    N3    S    
C30   C32   A    
O6    Zn2   S    
C8    C11   A    
O5    Zn1   S    
C17   C19   A    
C18   C20   A    
C11   N6    S    
C24   O8    A    
N3    H19   S    
C14   H13   S    
C29   C31   A    
C22   C26   A    
C29   C37   A    
C2    O2    A    
