data_mof_unit_26841.cif
_audit_creation_date              2012-10-26T19:05:07-0400
_audit_creation_method            fapswitch 2.2
_symmetry_space_group_name_H-M    P1
_symmetry_Int_Tables_number       1
_space_group_crystal_system       triclinic
_cell_length_a                    15.883804
_cell_length_b                    10.850009
_cell_length_c                    9.597774
_cell_angle_alpha                 90.799046
_cell_angle_beta                  89.037442
_cell_angle_gamma                 92.601835
_cell_volume                      1651.99253379

loop_
_atom_site_label
_atom_site_type_symbol
_atom_type_description
_atom_site_fract_x
_atom_site_fract_y
_atom_site_fract_z
_atom_type_partial_charge
C1    C     C_R   0.507419 0.263463 0.499454 0.561371
C2    C     C_R   0.565938 0.072636 0.873171 -0.094533
C3    C     C_R   0.525230 0.957604 0.887994 -0.115588
C4    C     C_R   0.340390 0.499526 0.501225 0.574204
C5    C     C_R   0.496032 0.892724 0.770611 -0.096273
C6    C     C_R   0.507755 0.942146 0.634994 0.028473
C7    C     C_R   0.532303 0.068175 0.625722 0.034670
C8    C     C_R   0.517110 0.130168 0.500231 0.011990
C9    C     C_R   0.499479 0.062391 0.378455 -0.120038
C10   C     C_R   0.492673 0.935139 0.381537 -0.140684
C11   C     C_R   0.495789 0.873080 0.508355 -0.007033
C12   C     C_3   0.942364 0.365241 0.563055 0.066272
C13   C     C_R   0.613609 0.661633 0.143461 -0.092713
C14   C     C_R   0.669808 0.740723 0.071497 0.189263
C15   C     C_R   0.669412 0.740623 0.927580 -0.127624
C16   C     C_R   0.496814 0.737915 0.502174 0.528424
C17   C     C_R   0.613262 0.662466 0.855727 -0.135607
C18   C     C_R   0.555739 0.579729 0.924988 0.133189
C19   C     C_R   0.555835 0.579513 0.074427 0.114144
C20   C     C_R   0.447148 0.423887 0.074154 0.028907
C21   C     C_R   0.447181 0.423900 0.926254 0.021840
C22   C     C_R   0.659558 0.500854 0.498771 0.547505
C23   C     C_3   0.916251 0.490291 0.498715 -0.063969
C24   C     C_3   0.041983 0.366364 0.582517 0.326909
C25   C     C_3   0.053084 0.510812 0.343681 0.358569
C26   C     C_3   0.953883 0.493212 0.345093 0.105132
C27   C     C_1   0.748872 0.499161 0.495695 0.095834
C28   C     C_3   0.082840 0.488451 0.502224 -0.098625
C29   C     C_3   0.953383 0.599235 0.590739 0.091370
C30   C     C_3   0.051189 0.600489 0.589417 -0.250728
C31   C     C_1   0.824144 0.495760 0.494976 0.112369
C32   C     C_1   0.175212 0.493350 0.505240 0.101950
C33   C     C_1   0.250820 0.496936 0.504246 0.111963
C34   C     C_R   0.569364 0.128194 0.743238 -0.062253
Cu1   Cu    Cu3+1 0.499990 0.499990 0.640660 0.958144
Cu2   Cu    Cu3+1 0.500010 0.500010 0.359340 0.985615
H1    H     H_    0.926853 0.294057 0.482348 0.160443
H2    H     H_    0.712034 0.802887 0.870222 0.183859
H3    H     H_    0.616928 0.672826 0.746039 0.196161
H4    H     H_    0.403901 0.361470 0.871232 0.153826
H5    H     H_    0.936999 0.401861 0.298634 0.203546
H6    H     H_    0.073889 0.602291 0.697241 0.152336
H7    H     H_    0.080281 0.689460 0.556023 0.185260
H8    H     H_    0.930753 0.584753 0.699637 0.224535
H9    H     H_    0.040548 0.521848 0.909322 0.392955
H10   H     H_    0.795640 0.382904 0.868492 0.377030
H11   H     H_    0.938972 0.774143 0.623243 0.362822
H12   H     H_    0.490117 0.107667 0.280365 0.146152
H13   H     H_    0.063091 0.026794 0.581275 0.378767
H14   H     H_    0.689531 0.850242 0.372538 0.338185
H15   H     H_    0.196234 0.741976 0.381516 0.331504
H16   H     H_    0.061117 0.240007 0.102262 0.420782
H17   H     H_    0.901033 0.650702 0.310135 0.432109
H18   H     H_    0.601986 0.217580 0.735778 0.170656
H19   H     H_    0.592288 0.120698 0.963116 0.154263
H20   H     H_    0.517626 0.917345 0.990309 0.126499
H21   H     H_    0.461360 0.807022 0.790478 0.165156
H22   H     H_    0.482761 0.885447 0.284052 0.147602
H23   H     H_    0.403829 0.361453 0.129534 0.150325
H24   H     H_    0.617557 0.668466 0.253055 0.197978
N1    N     N_R   0.500800 0.501210 0.147910 -0.244889
N2    N     N_R   0.500820 0.501290 0.852040 -0.248299
O1    O     O_R   0.499990 0.319640 0.618810 -0.514074
O2    O     O_2   0.160573 0.428855 0.783176 -0.298420
O3    O     O_3   0.006479 0.452797 0.867595 -0.433460
O4    O     O_2   0.794342 0.249831 0.636564 -0.310841
O5    O     O_2   0.911410 0.208251 0.785058 -0.105418
O6    O     O_3   0.842482 0.420221 0.811563 -0.488630
O7    O     O_3   0.924680 0.713131 0.548247 -0.634508
O8    O     O_2   0.046547 0.187068 0.374559 -0.238699
O9    O     O_2   0.172220 0.215944 0.519986 -0.232765
O10   O     O_3   0.038494 0.102634 0.619688 -0.416584
O11   O     O_2   0.827463 0.830887 0.102570 -0.147763
O12   O     O_R   0.500000 0.319660 0.381240 -0.502192
O13   O     O_2   0.714189 0.972864 0.141790 -0.277589
O14   O     O_3   0.740065 0.811443 0.332956 -0.490114
O15   O     O_2   0.062506 0.676125 0.127604 -0.141946
O16   O     O_2   0.039245 0.770256 0.351530 -0.237740
O17   O     O_3   0.188607 0.694608 0.293329 -0.491125
O18   O     O_2   0.145216 0.478008 0.097007 -0.167229
O19   O     O_2   0.169072 0.332737 0.274934 -0.243025
O20   O     O_3   0.029345 0.310341 0.138613 -0.437237
O21   O     O_3   0.914569 0.575417 0.256774 -0.582761
O22   O     O_R   0.379430 0.499990 0.618840 -0.483586
O23   O     O_R   0.379440 0.500020 0.381260 -0.467553
O24   O     O_R   0.500000 0.680340 0.618760 -0.540715
O25   O     O_R   0.500010 0.680360 0.381190 -0.528355
O26   O     O_R   0.620560 0.499980 0.618740 -0.517172
O27   O     O_R   0.620570 0.500010 0.381160 -0.512293
O28   O     O_2   0.074971 0.244915 0.829614 -0.121278
S1    S     S_3+6 0.073167 0.371375 0.768543 0.128105
S2    S     S_3+6 0.872247 0.306685 0.702840 0.086187
S3    S     S_3+6 0.077643 0.217380 0.518108 0.111236
S4    S     S_3+6 0.739951 0.842737 0.161667 0.057547
S5    S     S_3+6 0.083871 0.667698 0.279107 0.116174
S6    S     S_3+6 0.101978 0.406915 0.213000 0.121822

loop_
_geom_bond_atom_site_label_1
_geom_bond_atom_site_label_2
_ccdc_geom_bond_type
Cu2   O27   S    
C26   O21   S    
C1    C8    S    
Cu1   Cu2   S    
C7    C8    A    
C13   H24   S    
C25   C28   S    
O17   S5    S    
C12   C23   S    
C1    O12   A    
C23   C29   S    
C10   H22   S    
C2    H19   S    
C17   H3    S    
C5    C6    A    
Cu1   O24   S    
C20   N1    A    
C15   C17   A    
C18   C19   A    
C3    H20   S    
C23   C26   S    
C12   H1    S    
H11   O7    S    
O14   S4    S    
C8    C9    A    
H13   O10   S    
C16   O25   A    
C22   O26   A    
O18   S6    D    
C9    C10   A    
C2    C34   A    
C13   C14   A    
C16   O24   A    
O11   S4    D    
C1    O1    A    
C29   O7    S    
Cu2   O25   S    
O20   S6    S    
C13   C19   A    
C27   C31   T    
C28   C32   S    
O8    S3    D    
C6    C11   A    
O19   S6    D    
C18   N2    A    
O4    S2    D    
C4    O23   A    
C25   C26   S    
O15   S5    D    
C23   C31   S    
C15   H2    S    
H10   O6    S    
C29   C30   S    
H14   O14   S    
Cu1   O26   S    
C4    O22   A    
O16   S5    D    
C17   C18   A    
C20   H23   S    
H16   O20   S    
C21   N2    A    
Cu2   O12   S    
C9    H12   S    
O10   S3    S    
C25   S5    S    
C22   C27   S    
C29   H8    S    
H9    O3    S    
C7    C34   A    
C30   H7    S    
Cu2   N1    S    
C24   S1    S    
O3    S1    S    
C4    C33   S    
C12   S2    S    
C24   C28   S    
C3    C5    A    
Cu1   O22   S    
C34   H18   S    
C6    C7    A    
O9    S3    D    
Cu2   O23   S    
C12   C24   S    
C5    H21   S    
H17   O21   S    
C32   C33   T    
C28   C30   S    
C2    C3    A    
C24   S3    S    
O28   S1    D    
C21   H4    S    
C19   N1    A    
O5    S2    D    
O6    S2    S    
C22   O27   A    
Cu1   N2    S    
H15   O17   S    
C11   C16   S    
C10   C11   A    
C20   C21   A    
O13   S4    D    
C25   S6    S    
C14   C15   A    
C30   H6    S    
Cu1   O1    S    
O2    S1    D    
C14   S4    S    
C26   H5    S    
