data_mof_unit_20841.cif
_audit_creation_date              2012-12-10T17:50:37-0500
_audit_creation_method            fapswitch 2.2
_symmetry_space_group_name_H-M    P1
_symmetry_Int_Tables_number       1
_space_group_crystal_system       triclinic
_cell_length_a                    15.701932
_cell_length_b                    10.622629
_cell_length_c                    9.967546
_cell_angle_alpha                 89.355689
_cell_angle_beta                  90.959055
_cell_angle_gamma                 93.698402
_cell_volume                      1658.763893

loop_
_atom_site_label
_atom_site_type_symbol
_atom_type_description
_atom_site_fract_x
_atom_site_fract_y
_atom_site_fract_z
_atom_type_partial_charge
C1    C     C_R   0.503296 0.259219 0.501416 0.893757
C2    C     C_3   0.083643 0.504626 0.492643 -0.090101
C3    C     C_3   0.982199 0.607300 0.574648 0.355986
C4    C     C_3   0.917366 0.516048 0.500024 -0.077341
C5    C     C_3   0.034373 0.618753 0.444727 0.364552
C6    C     C_3   0.969216 0.528211 0.368285 -0.487222
C7    C     C_1   0.174208 0.500707 0.493063 0.129250
C8    C     C_1   0.826487 0.514524 0.503197 0.098614
C9    C     C_R   0.525956 0.101457 0.752000 -0.244652
C10   C     C_R   0.505844 0.036633 0.872248 0.396288
C11   C     C_R   0.454274 0.924996 0.867097 -0.131685
C12   C     C_R   0.338178 0.499005 0.498834 0.870063
C13   C     C_R   0.429341 0.871870 0.744182 0.429405
C14   C     C_R   0.460192 0.929732 0.623100 -0.116398
C15   C     C_R   0.495418 0.053654 0.626819 0.019897
C16   C     C_R   0.498384 0.123145 0.504253 -0.123950
C17   C     C_R   0.479340 0.063024 0.382009 -0.325245
C18   C     C_R   0.463428 0.933792 0.378066 0.479253
C19   C     C_R   0.463176 0.866309 0.499535 -0.194202
C20   C     C_R   0.392793 0.328359 0.147067 -0.081732
C21   C     C_R   0.341784 0.235115 0.086476 -0.239405
C22   C     C_R   0.339201 0.228177 0.949693 -0.239819
C23   C     C_R   0.486456 0.736611 0.499303 0.903387
C24   C     C_R   0.386827 0.316143 0.869660 0.547075
C25   C     C_R   0.445526 0.411413 0.929557 -0.006922
C26   C     C_R   0.447233 0.413199 0.074121 -0.013616
C27   C     C_R   0.547433 0.587621 0.073042 0.405067
C28   C     C_R   0.552435 0.581820 0.929510 0.381456
C29   C     C_R   0.661891 0.502196 0.501013 0.883823
C30   C     C_3   0.966401 0.402620 0.546072 0.332248
C31   C     C_3   0.019062 0.414476 0.418135 0.424909
C32   C     C_1   0.249393 0.499271 0.495705 -0.147468
C33   C     C_1   0.751018 0.509166 0.503142 -0.197793
C34   C     C_3   0.030056 0.492268 0.620338 0.221469
H1    H     H_    0.433583 0.878267 0.958952 0.177395
H2    H     H_    0.386305 0.331861 0.252337 0.210359
H3    H     H_    0.302161 0.169569 0.146221 0.168119
H4    H     H_    0.296769 0.155208 0.904964 0.142071
H5    H     H_    0.938816 0.544370 0.268969 0.170458
H6    H     H_    0.478289 0.115741 0.288419 0.197718
H7    H     H_    0.567563 0.186274 0.757963 0.161970
N1    N     N_R   0.499210 0.498800 0.142780 -0.136934
N2    N     N_R   0.499180 0.498720 0.857170 -0.144010
O1    O     O_R   0.500000 0.316780 0.614690 -0.575631
O2    O     O_R   0.499990 0.316750 0.385360 -0.656942
O3    O     O_R   0.376780 0.500000 0.614650 -0.521291
O4    O     O_R   0.376770 0.499980 0.385310 -0.645328
O5    O     O_R   0.500010 0.683250 0.614640 -0.563402
O6    O     O_R   0.500000 0.683220 0.385310 -0.497070
O7    O     O_R   0.623230 0.500020 0.614690 -0.634374
O8    O     O_R   0.623220 0.500000 0.385350 -0.576034
Zn1   Zn    Zn3+2 0.500010 0.500020 0.653130 1.030006
Zn2   Zn    Zn3+2 0.499990 0.499980 0.346870 1.017471
O9    O     O_3   0.045374 0.308488 0.348737 -0.636598
C35   C     C_3   0.999635 0.290618 0.226417 0.112026
H8    H     H_    0.034783 0.224827 0.165349 0.161372
H9    H     H_    0.998546 0.379155 0.165893 0.139954
C36   C     C_3   0.909390 0.230323 0.249120 -0.358727
H10   H     H_    0.913937 0.137176 0.299770 0.234289
H11   H     H_    0.873083 0.290813 0.314519 0.248846
C37   C     C_3   0.860127 0.212519 0.116707 -0.944145
H12   H     H_    0.851683 0.305447 0.067884 0.265427
H13   H     H_    0.796126 0.165811 0.136014 0.279344
H14   H     H_    0.894529 0.152814 0.047779 0.270334
O10   O     O_3   0.372009 0.767724 0.746151 -0.741111
H15   H     H_    0.345235 0.758103 0.655781 0.323436
O11   O     O_3   0.448526 0.872105 0.257744 -0.724670
H16   H     H_    0.448955 0.935000 0.183642 0.352462
O12   O     O_3   0.590130 0.682733 0.145145 -0.711918
H17   H     H_    0.606388 0.753570 0.083357 0.354395
O13   O     O_3   0.371982 0.308622 0.734865 -0.721737
H18   H     H_    0.331120 0.236734 0.711347 0.305262
O14   O     O_3   0.610993 0.661939 0.863142 -0.628756
C38   C     C_3   0.690600 0.605750 0.857954 0.129125
H19   H     H_    0.723249 0.643216 0.766447 0.200955
H20   H     H_    0.683683 0.500920 0.848228 0.129290
C39   C     C_3   0.748787 0.639815 0.979166 -0.421115
H21   H     H_    0.750261 0.742980 0.997271 0.248989
H22   H     H_    0.724477 0.588332 0.069602 0.245907
C40   C     C_3   0.839648 0.602544 0.956744 -0.940612
H23   H     H_    0.839743 0.502080 0.927130 0.264290
H24   H     H_    0.877694 0.615707 0.050795 0.259947
H25   H     H_    0.869982 0.663009 0.877354 0.314181
O15   O     O_3   0.927893 0.290850 0.598738 -0.758191
H26   H     H_    0.975291 0.235417 0.616681 0.351532
O16   O     O_3   0.078168 0.727610 0.390589 -0.639661
C41   C     C_3   0.020558 0.805894 0.324897 0.097042
H27   H     H_    0.037807 0.904794 0.354994 0.155569
H28   H     H_    0.952524 0.785696 0.353538 0.144017
C42   C     C_3   0.029791 0.797626 0.172708 -0.326093
H29   H     H_    0.096172 0.828749 0.144886 0.240103
H30   H     H_    0.017370 0.698572 0.140013 0.217208
C43   C     C_3   0.967848 0.880677 0.099577 -0.984371
H31   H     H_    0.901099 0.854018 0.128875 0.278952
H32   H     H_    0.972724 0.868784 0.989682 0.274476
H33   H     H_    0.983637 0.981234 0.124019 0.267297
O17   O     O_3   0.953429 0.699719 0.661226 -0.659806
C44   C     C_3   0.016191 0.799071 0.684814 0.062896
H34   H     H_    0.983775 0.875069 0.735179 0.167850
H35   H     H_    0.041265 0.842024 0.590831 0.167432
C45   C     C_3   0.089483 0.759753 0.776897 -0.320866
H36   H     H_    0.062983 0.710464 0.867403 0.242368
H37   H     H_    0.129411 0.695228 0.722648 0.263105
C46   C     C_3   0.147148 0.873817 0.820285 -0.947848
H38   H     H_    0.175854 0.922631 0.731141 0.269474
H39   H     H_    0.199426 0.842184 0.886396 0.289679
H40   H     H_    0.110407 0.941131 0.876643 0.261039
O18   O     O_3   0.063173 0.468786 0.748626 -0.759684
H41   H     H_    0.013662 0.468038 0.809111 0.350587
O19   O     O_3   0.532855 0.082360 0.995846 -0.785615
H42   H     H_    0.566486 0.163711 0.982792 0.327569

loop_
_geom_bond_atom_site_label_1
_geom_bond_atom_site_label_2
_ccdc_geom_bond_type
C35   H8    S    
C43   H31   S    
O3    Zn1   S    
O14   C38   S    
C2    C7    S    
C4    C8    S    
C1    O2    A    
C25   N2    A    
C46   H39   S    
O17   C44   S    
C13   O10   S    
C39   H21   S    
C45   H36   S    
C38   H20   S    
C12   O4    A    
N1    Zn2   S    
C5    C6    S    
N2    Zn1   S    
C23   O6    A    
C36   H11   S    
C15   C16   A    
C22   H4    S    
C29   C33   S    
O18   H41   S    
C18   C19   A    
C37   H13   S    
O19   H42   S    
C16   C17   A    
C38   C39   S    
O7    Zn1   S    
C23   O5    A    
C9    C10   A    
C27   O12   S    
O4    Zn2   S    
O1    Zn1   S    
C36   C37   S    
C6    C31   S    
O2    Zn2   S    
C45   H37   S    
C21   C22   A    
C12   C32   S    
C30   O15   S    
C37   H12   S    
C40   H25   S    
C28   O14   S    
C46   H38   S    
C25   C26   A    
C29   O7    A    
C39   H22   S    
C38   H19   S    
C30   C34   S    
O11   H16   S    
C24   C25   A    
C12   O3    A    
O16   C41   S    
C3    C34   S    
C18   O11   S    
C2    C31   S    
O8    Zn2   S    
C17   H6    S    
C37   H14   S    
C19   C23   S    
C3    O17   S    
C1    O1    A    
C42   H30   S    
C17   C18   A    
C1    C16   S    
O15   H26   S    
C5    O16   S    
C4    C6    S    
C44   H34   S    
C45   C46   S    
C44   H35   S    
C35   H9    S    
C22   C24   A    
C41   C42   S    
C2    C5    S    
C3    C4    S    
C26   N1    A    
C42   C43   S    
C29   O8    A    
C39   C40   S    
O9    C35   S    
C7    C32   T    
C14   C15   A    
C14   C19   A    
C40   H23   S    
C3    C5    S    
C43   H33   S    
C44   C45   S    
C28   N2    A    
C9    H7    S    
C34   O18   S    
C41   H28   S    
C36   H10   S    
O13   H18   S    
C11   C13   A    
C27   N1    A    
C2    C34   S    
C42   H29   S    
C30   C31   S    
C20   C26   A    
O6    Zn2   S    
C11   H1    S    
C40   H24   S    
C10   O19   S    
C8    C33   T    
C31   O9    S    
C9    C15   A    
O12   H17   S    
C10   C11   A    
C20   H2    S    
O5    Zn1   S    
C21   H3    S    
C20   C21   A    
C41   H27   S    
C43   H32   S    
O10   H15   S    
C35   C36   S    
C27   C28   A    
C6    H5    S    
C13   C14   A    
C46   H40   S    
C4    C30   S    
C24   O13   S    
