data_mof_unit_21193.cif
_audit_creation_date              2012-12-10T16:50:57-0500
_audit_creation_method            fapswitch 2.2
_symmetry_space_group_name_H-M    P1
_symmetry_Int_Tables_number       1
_space_group_crystal_system       triclinic
_cell_length_a                    7.889603
_cell_length_b                    8.572383
_cell_length_c                    10.373142
_cell_angle_alpha                 90.826314
_cell_angle_beta                  87.296679
_cell_angle_gamma                 93.031211
_cell_volume                      699.752335402

loop_
_atom_site_label
_atom_site_type_symbol
_atom_type_description
_atom_site_fract_x
_atom_site_fract_y
_atom_site_fract_z
_atom_type_partial_charge
C1    C     C_R   0.544860 0.793965 0.496746 0.993611
C2    C     C_R   0.896960 0.245285 0.065117 -0.106789
C3    C     C_R   0.009873 0.378220 0.069198 -0.107868
C4    C     C_R   0.903236 0.245670 0.927655 -0.115707
C5    C     C_R   0.159880 0.372960 0.135826 -0.221287
C6    C     C_R   0.756400 0.275449 0.862662 -0.218837
C7    C     C_R   0.318684 0.393904 0.070185 0.091664
C8    C     C_R   0.621877 0.345247 0.929729 0.082126
C9    C     C_R   0.325606 0.390269 0.934886 0.094161
C10   C     C_R   0.613601 0.340565 0.065478 0.094208
C11   C     C_R   0.472670 0.399963 0.133176 -0.247454
C12   C     C_R   0.455126 0.205977 0.503096 0.904104
C13   C     C_R   0.484368 0.401770 0.867584 -0.244934
C14   C     C_2   0.568354 0.957501 0.494796 -0.400381
C15   C     C_2   0.431659 0.042535 0.504982 -0.368631
C16   C     C_R   0.497209 0.468421 0.737208 0.885177
C17   C     C_R   0.490822 0.467166 0.263264 0.884863
C18   C     C_R   0.175157 0.360405 0.870615 -0.202746
C19   C     C_R   0.739112 0.264887 0.128571 -0.204733
C20   C     C_R   0.018821 0.374645 0.934659 -0.101690
H1    H     H_    0.957619 0.142294 0.883602 0.144655
H2    H     H_    0.751985 0.248040 0.760508 0.168455
H3    H     H_    0.007505 0.368534 0.417492 0.173882
H4    H     H_    0.990361 0.626035 0.588573 0.192866
H5    H     H_    0.950798 0.481710 0.109286 0.176900
H6    H     H_    0.175989 0.316986 0.771915 0.177642
H7    H     H_    0.720140 0.229508 0.228335 0.162183
H8    H     H_    0.973215 0.481374 0.895102 0.167332
H9    H     H_    0.950918 0.143233 0.105461 0.146998
H10   H     H_    0.697923 0.007415 0.484929 0.175762
H11   H     H_    0.302081 0.992681 0.514837 0.179861
H12   H     H_    0.150532 0.343935 0.236360 0.157605
N1    N     N_2   0.950330 0.457950 0.466250 -0.185007
N2    N     N_2   0.049670 0.542050 0.533750 -0.183090
O1    O     O_R   0.389250 0.738570 0.508280 -0.600232
O2    O     O_R   0.610750 0.261430 0.491720 -0.635647
O3    O     O_R   0.678390 0.711630 0.486650 -0.619115
O4    O     O_R   0.321610 0.288370 0.513350 -0.654816
O5    O     O_R   0.355430 0.513480 0.694040 -0.616727
O6    O     O_R   0.644570 0.486520 0.305960 -0.612956
O7    O     O_R   0.644570 0.486540 0.672410 -0.621988
O8    O     O_R   0.355430 0.513460 0.327590 -0.614592
Zn1   Zn    Zn3+2 0.306940 0.517990 0.514440 0.918052
Zn2   Zn    Zn3+2 0.693060 0.482010 0.485560 0.913122

loop_
_geom_bond_atom_site_label_1
_geom_bond_atom_site_label_2
_ccdc_geom_bond_type
C2    C4    A    
C5    C7    A    
C15   H11   S    
C8    C13   A    
C12   O2    A    
O1    Zn1   S    
C18   H6    S    
C12   C15   S    
C1    O3    A    
C10   C19   A    
C5    H12   S    
O3    Zn2   S    
C2    C3    A    
C3    C20   A    
C7    C11   A    
C4    H1    S    
C14   H10   S    
C2    H9    S    
C6    C8    A    
C8    C10   A    
N1    N2    D    
C18   C20   A    
C12   O4    A    
O7    Zn2   S    
O4    Zn1   S    
O2    Zn2   S    
C10   C11   A    
C16   O5    A    
C4    C20   A    
C9    C18   A    
O6    Zn2   S    
C3    H5    S    
C19   H7    S    
C1    O1    A    
C4    C6    A    
O8    Zn1   S    
C13   C16   S    
C7    C9    A    
C9    C13   A    
C17   O8    A    
C11   C17   S    
O5    Zn1   S    
C1    C14   S    
C20   H8    S    
H3    N1    S    
C2    C19   A    
C14   C15   D    
N1    Zn2   S    
C16   O7    A    
H4    N2    S    
N2    Zn1   S    
C3    C5    A    
C17   O6    A    
C6    H2    S    
