data_mof_unit_49042.cif
_audit_creation_date              2012-12-10T16:58:31-0500
_audit_creation_method            fapswitch 2.2
_symmetry_space_group_name_H-M    P1
_symmetry_Int_Tables_number       1
_space_group_crystal_system       triclinic
_cell_length_a                    7.825473
_cell_length_b                    8.573361
_cell_length_c                    23.299965
_cell_angle_alpha                 91.674951
_cell_angle_beta                  86.169759
_cell_angle_gamma                 93.00132
_cell_volume                      1557.05819667

loop_
_atom_site_label
_atom_site_type_symbol
_atom_type_description
_atom_site_fract_x
_atom_site_fract_y
_atom_site_fract_z
_atom_type_partial_charge
Br1   Br    Br    0.309727 0.199634 0.662366 -0.329882
Br2   Br    Br    0.699604 0.806816 0.345631 -0.343931
Br3   Br    Br    0.686837 0.809322 0.796117 -0.332319
Br4   Br    Br    0.309822 0.234808 0.195886 -0.369343
C1    C     C_R   0.544311 0.793945 0.499524 0.894175
C2    C     C_R   0.415215 0.397987 0.297063 -0.232816
C3    C     C_R   0.581133 0.629749 0.759181 0.372459
C4    C     C_R   0.417981 0.404340 0.237763 0.352767
C5    C     C_R   0.502821 0.506006 0.790885 0.103663
C6    C     C_R   0.499969 0.532902 0.209686 0.101480
C7    C     C_2   0.562222 0.956081 0.508807 -0.261352
C8    C     C_2   0.437592 0.043916 0.491278 -0.263755
C9    C     C_R   0.501890 0.498261 0.610131 0.937976
C10   C     C_R   0.498259 0.502707 0.389865 0.936494
C11   C     C_R   0.638235 0.472327 0.117316 0.617224
C12   C     C_R   0.455664 0.206056 0.500537 0.895975
C13   C     C_R   0.372735 0.581624 0.883069 0.636381
C14   C     C_R   0.371037 0.597651 0.123314 0.574239
C15   C     C_R   0.639448 0.455522 0.877195 0.563914
C16   C     C_R   0.369188 0.596260 0.063449 -0.028880
C17   C     C_R   0.644084 0.461735 0.936970 -0.026760
C18   C     C_R   0.506808 0.531689 0.030330 -0.010892
C19   C     C_R   0.507147 0.527497 0.970054 -0.013061
C20   C     C_R   0.643456 0.470174 0.057353 -0.027814
C21   C     C_R   0.370071 0.588241 0.943017 -0.035373
C22   C     C_R   0.233205 0.656328 0.036113 -0.130552
C23   C     C_R   0.427177 0.373482 0.763122 -0.100055
C24   C     C_R   0.781006 0.403234 0.964269 -0.135544
C25   C     C_R   0.233710 0.652456 0.976346 -0.158957
C26   C     C_R   0.780684 0.407419 0.024018 -0.155405
C27   C     C_2   0.352212 0.239805 0.797198 1.029939
C28   C     C_2   0.654566 0.798036 0.211236 1.030065
C29   C     C_2   0.689736 0.011077 0.550468 1.007363
C30   C     C_2   0.310384 0.989105 0.449467 1.011000
C31   C     C_2   0.018674 0.411831 0.429526 1.134438
C32   C     C_2   0.981611 0.588404 0.570474 1.134411
C33   C     C_R   0.577698 0.657754 0.241051 -0.092555
C34   C     C_R   0.426021 0.369964 0.702767 0.227093
C35   C     C_R   0.578749 0.647893 0.301098 0.234516
C36   C     C_R   0.505582 0.495266 0.671810 -0.131844
C37   C     C_R   0.496361 0.517538 0.328449 -0.135023
C38   C     C_R   0.582931 0.623360 0.699800 -0.240472
H1    H     H_    0.125853 0.705775 0.060754 0.215142
H2    H     H_    0.071274 0.901461 0.436934 0.383414
H3    H     H_    0.103990 0.235898 0.377984 0.343097
H4    H     H_    0.901881 0.765814 0.622341 0.342770
H5    H     H_    0.888178 0.353453 0.939631 0.210775
H6    H     H_    0.126703 0.698975 0.956417 0.201591
H7    H     H_    0.887645 0.360796 0.043944 0.203490
H8    H     H_    0.640163 0.720601 0.675478 0.194027
H9    H     H_    0.354458 0.297365 0.318566 0.194705
H10   H     H_    0.203744 0.166103 0.866280 0.358881
H11   H     H_    0.676376 0.033404 0.208665 0.377145
H12   H     H_    0.930110 0.095711 0.562749 0.382272
N1    N     N_R   0.503773 0.535708 0.148602 -0.344773
N2    N     N_R   0.504731 0.514043 0.851901 -0.344918
N3    N     N_2   0.950330 0.457950 0.484560 -0.194712
N4    N     N_2   0.049670 0.542050 0.515440 -0.194102
O1    O     O_R   0.389250 0.738570 0.503790 -0.612757
O2    O     O_2   0.244174 0.640370 0.855923 -0.483033
O3    O     O_2   0.241345 0.659093 0.156172 -0.478173
O4    O     O_2   0.767819 0.391694 0.844418 -0.484313
O5    O     O_2   0.384951 0.106148 0.782283 -0.516330
O6    O     O_R   0.245598 0.266354 0.846688 -0.785036
O7    O     O_2   0.748820 0.783618 0.167609 -0.594031
O8    O     O_R   0.617206 0.947258 0.232738 -0.708577
O9    O     O_2   0.648782 0.013104 0.602022 -0.593250
O10   O     O_R   0.855581 0.059730 0.530443 -0.685953
O11   O     O_2   0.350403 0.991158 0.397870 -0.589430
O12   O     O_R   0.610750 0.261430 0.496210 -0.612742
O13   O     O_R   0.145700 0.936596 0.469366 -0.687033
O14   O     O_2   0.021485 0.502080 0.389759 -0.591692
O15   O     O_R   0.068400 0.258880 0.419838 -0.772298
O16   O     O_2   0.977172 0.497684 0.610139 -0.591159
O17   O     O_R   0.935165 0.742248 0.580361 -0.773148
O18   O     O_R   0.678390 0.711620 0.493890 -0.589932
O19   O     O_R   0.321610 0.288380 0.506110 -0.591526
O20   O     O_R   0.355400 0.513520 0.588790 -0.593818
O21   O     O_R   0.644600 0.486480 0.411210 -0.591697
O22   O     O_R   0.644550 0.486570 0.578900 -0.627253
O23   O     O_R   0.355450 0.513430 0.421100 -0.627304
O24   O     O_2   0.765915 0.411891 0.144408 -0.500234
Zn1   Zn    Zn3+2 0.306930 0.518000 0.506610 1.056055
Zn2   Zn    Zn3+2 0.693070 0.482000 0.493390 1.056874

loop_
_geom_bond_atom_site_label_1
_geom_bond_atom_site_label_2
_ccdc_geom_bond_type
C15   N2    A    
C24   H5    S    
O22   Zn2   S    
O18   Zn2   S    
C35   C37   A    
C29   O9    D    
C6    C33   A    
C15   C17   A    
O1    Zn1   S    
C1    C7    S    
C32   N4    S    
O21   Zn2   S    
H12   O10   S    
O19   Zn1   S    
C23   C34   A    
H2    O13   S    
H3    O15   S    
C12   O19   A    
C3    C38   A    
C9    C36   S    
O20   Zn1   S    
C8    C12   S    
C2    C37   A    
C2    H9    S    
O12   Zn2   S    
Br4   C4    S    
C36   C38   A    
C9    O22   A    
Br2   C35   S    
H4    O17   S    
O23   Zn1   S    
C22   H1    S    
C11   O24   S    
C21   C25   A    
C1    O1    A    
C25   H6    S    
C23   C27   S    
C27   O5    D    
C7    C29   S    
C12   O12   A    
H10   O6    S    
C2    C4    A    
C10   O21   A    
C11   N1    A    
C6    N1    S    
C32   O17   S    
C13   N2    A    
N3    Zn2   S    
C5    N2    S    
C28   C33   S    
H11   O8    S    
C30   O11   D    
C32   O16   D    
Br1   C34   S    
C38   H8    S    
C10   C37   S    
C14   N1    A    
C11   C20   A    
C17   C24   A    
C16   C18   A    
C31   O14   D    
C17   C19   A    
C18   C20   A    
C8    C30   S    
C5    C23   A    
C28   O8    S    
C3    C5    A    
C9    O20   A    
C31   O15   S    
C27   O6    S    
C26   H7    S    
C7    C8    D    
C14   O3    S    
Br3   C3    S    
C31   N3    S    
C13   C21   A    
C1    O18   A    
C24   C26   A    
C33   C35   A    
N4    Zn1   S    
C34   C36   A    
N3    N4    D    
C16   C22   A    
C14   C16   A    
C19   C21   A    
C20   C26   A    
C13   O2    S    
C22   C25   A    
C4    C6    A    
C18   C19   A    
C15   O4    S    
C10   O23   A    
C30   O13   S    
C29   O10   S    
C28   O7    D    
