data_mof_unit_34018.cif
_audit_creation_date              2013-03-05T15:56:43-0500
_audit_creation_method            fapswitch 2.2
_symmetry_space_group_name_H-M    P1
_symmetry_Int_Tables_number       1
_space_group_crystal_system       triclinic
_cell_length_a                    8.416518
_cell_length_b                    16.656556
_cell_length_c                    18.828591
_cell_angle_alpha                 100.115301
_cell_angle_beta                  91.125729
_cell_angle_gamma                 94.5628
_cell_volume                      2588.79922433

loop_
_atom_site_label
_atom_site_type_symbol
_atom_site_description
_atom_site_fract_x
_atom_site_fract_y
_atom_site_fract_z
_atom_type_partial_charge
P1    P     P_3+3 0.056550 0.421630 0.336220 0.455702
O1    O     O_2   0.884010 0.444810 0.325060 -0.299273
O2    O     O_3   0.132090 0.451130 0.414310 -0.430394
O3    O     O_3   0.640770 0.594650 0.368950 -0.371237
O4    O     O_2   0.776725 0.536474 0.247946 -0.378492
O5    O     O_3   0.015649 0.315117 0.328587 -0.581676
O6    O     O_3   0.683300 0.678883 0.252092 -0.551204
C1    C     C_3   0.553499 0.778600 0.198105 -1.144437
H1    H     H_    0.671984 0.812274 0.195761 0.257223
P2    P     P_3+3 0.635450 0.689180 0.556380 0.497978
P3    P     P_3+3 0.082001 0.745490 0.412016 0.505118
O7    O     O_2   0.808690 0.699720 0.534830 -0.348130
O8    O     O_3   0.053760 0.638480 0.405010 -0.331436
O9    O     O_2   0.944203 0.781255 0.455928 -0.397750
O10   O     O_3   0.666304 0.707518 0.650475 -0.607465
O11   O     O_3   0.037344 0.766999 0.326720 -0.513460
C2    C     C_3   0.151341 0.735635 0.278959 0.404734
H2    H     H_    0.258904 0.779307 0.287414 0.082393
C3    C     C_3   0.088226 0.729189 0.201744 -0.946107
C4    C     C_3   0.043097 0.723826 0.701455 0.318074
H3    H     H_    0.950851 0.717965 0.658219 0.162610
C5    C     C_3   0.092626 0.814442 0.725728 -0.996232
H4    H     H_    0.183596 0.823035 0.770545 0.256200
H5    H     H_    0.143345 0.840943 0.680018 0.254751
H6    H     H_    0.987161 0.847070 0.744862 0.240896
Ba1   Ba    Ba6+2 0.845660 0.536000 0.465120 1.592362
C6    C     C_3   0.996648 0.294002 0.397511 0.299560
H7    H     H_    0.106685 0.313119 0.431232 0.114513
C7    C     C_3   0.962749 0.200801 0.394402 0.017318
H8    H     H_    0.032477 0.183575 0.439353 0.089871
C8    C     C_3   0.533057 0.738010 0.686370 0.443270
H9    H     H_    0.466580 0.687221 0.706510 0.127314
H10   H     H_    0.451280 0.766298 0.652937 0.103854
C9    C     C_3   0.590521 0.801936 0.751622 -1.027096
H11   H     H_    0.668068 0.774618 0.787754 0.245197
H12   H     H_    0.486779 0.824774 0.782095 0.233417
H13   H     H_    0.659412 0.854192 0.734023 0.295869
P4    P     P_3+3 0.133150 0.578440 0.663790 0.514347
O12   O     O_2   0.305690 0.555220 0.674980 -0.360330
O13   O     O_3   0.057610 0.548940 0.585700 -0.318353
O14   O     O_3   0.548930 0.405410 0.631060 -0.335828
O15   O     O_3   0.174898 0.684397 0.673291 -0.560374
P5    P     P_3+3 0.104128 0.258032 0.600086 0.473486
O16   O     O_3   0.631040 0.400420 0.463490 -0.388247
O17   O     O_3   0.135930 0.361590 0.595000 -0.369503
O18   O     O_2   0.228811 0.213039 0.552294 -0.383865
O19   O     O_3   0.155039 0.248019 0.688457 -0.471154
Ba2   Ba    Ba6+2 0.344160 0.464070 0.534880 1.594207
P6    P     P_3+3 0.631163 0.582379 0.274589 0.466452
C10   C     C_3   0.551741 0.726398 0.258005 1.199866
H14   H     H_    0.438677 0.687199 0.247729 -0.151201
H15   H     H_    0.461326 0.823082 0.207296 0.245526
O20   O     O_3   0.558660 0.599640 0.536520 -0.421826
C11   C     C_3   0.573345 0.243873 0.297104 1.520996
C12   C     C_3   0.699768 0.193993 0.255592 -0.926459
H16   H     H_    0.709710 0.135681 0.275578 0.244792
H17   H     H_    0.666350 0.176441 0.197181 0.209949
H18   H     H_    0.816410 0.229268 0.259102 0.278151
P7    P     P_3+3 0.562310 0.295276 0.449133 0.433483
O21   O     O_2   0.381010 0.300300 0.465220 -0.394303
O22   O     O_3   0.573307 0.223586 0.367369 -0.696182
H19   H     H_    0.180767 0.707062 0.163556 0.221639
C13   C     C_3   0.087947 0.310547 0.735747 0.517913
H20   H     H_    0.961305 0.315604 0.720461 -0.001261
C14   C     C_3   0.093319 0.292208 0.812071 -1.017375
H21   H     H_    0.029344 0.337610 0.848516 0.229309
H22   H     H_    0.218529 0.295610 0.832283 0.286237
P8    P     P_3+3 0.567103 0.413379 0.726128 0.471443
C15   C     C_3   0.592445 0.271931 0.770167 1.298796
H23   H     H_    0.715447 0.302697 0.776469 -0.189998
O23   O     O_2   0.446312 0.475152 0.755295 -0.409281
O24   O     O_3   0.479555 0.321976 0.748519 -0.535757
C16   C     C_3   0.542893 0.251936 0.843821 -1.112575
H24   H     H_    0.447753 0.200684 0.836347 0.278483
H25   H     H_    0.495661 0.305087 0.878191 0.228679
C17   C     C_R   0.998415 0.469239 0.050992 0.044092
C18   C     C_R   0.912673 0.425776 0.098107 -0.197447
C19   C     C_R   0.773656 0.451342 0.960089 -0.199178
C20   C     C_R   0.934684 0.476067 0.981573 0.043589
C21   C     C_R   0.717344 0.450697 0.889916 -0.145553
C22   C     C_R   0.819018 0.472974 0.837679 -0.067858
C23   C     C_R   0.974855 0.509073 0.859920 0.019981
C24   C     C_R   0.033024 0.510578 0.932248 0.051833
C25   C     C_R   0.770143 0.460426 0.763924 -0.009531
C26   C     C_R   0.875518 0.488450 0.715003 0.242702
C27   C     C_R   0.020101 0.534350 0.736441 0.018357
C28   C     C_R   0.071837 0.544048 0.810122 -0.105720
C29   C     C_R   0.156019 0.502684 0.072742 0.029296
C30   C     C_R   0.218606 0.497378 0.143122 0.032819
C31   C     C_R   0.123248 0.458954 0.191496 0.002711
C32   C     C_R   0.974942 0.419993 0.165947 -0.092962
H26   H     H_    0.592819 0.432669 0.876887 0.151806
C33   C     C_R   0.217250 0.586873 0.835780 -0.040409
C34   C     C_R   0.275600 0.586978 0.905651 -0.194466
C35   C     C_R   0.189149 0.545887 0.954353 0.033804
C36   C     C_R   0.252094 0.540609 0.024473 0.053571
C37   C     C_R   0.410931 0.569054 0.047116 -0.199397
C38   C     C_R   0.376607 0.530189 0.164814 -0.001790
C39   C     C_R   0.471138 0.563867 0.115360 -0.218161
C40   C     C_R   0.437338 0.526245 0.234651 0.100437
C41   C     C_R   0.342780 0.484446 0.279493 -0.511525
C42   C     C_R   0.182281 0.457039 0.262554 0.169406
H27   H     H_    0.289493 0.620047 0.801967 0.144713
H28   H     H_    0.395396 0.473314 0.329122 0.167689
H29   H     H_    0.686954 0.433208 0.996904 0.133488
H30   H     H_    0.798240 0.392708 0.082981 0.115901
H31   H     H_    0.389280 0.620976 0.920047 0.118422
H32   H     H_    0.494450 0.594164 0.012561 0.135039
C43   C     C_R   0.372379 0.737055 0.485243 0.253702
C44   C     C_R   0.519950 0.765781 0.520213 0.024757
C45   C     C_R   0.563093 0.851782 0.536215 0.374653
C46   C     C_R   0.469009 0.905851 0.505027 0.073213
C47   C     C_R   0.327504 0.873049 0.465213 -0.425736
C48   C     C_R   0.276687 0.789608 0.457023 0.122969
C49   C     C_R   0.591680 0.157814 0.513916 -0.170710
C50   C     C_R   0.645326 0.240628 0.516443 0.341671
C51   C     C_R   0.690810 0.103809 0.539870 0.153726
N1    N     N_2   0.507123 0.993055 0.513480 -0.052907
N2    N     N_2   0.647824 0.017642 0.533807 -0.062135
C52   C     C_R   0.793553 0.270777 0.549135 -0.459284
H33   H     H_    0.479722 0.134290 0.485731 0.152288
H34   H     H_    0.253812 0.913382 0.442630 0.177419
C53   C     C_R   0.896737 0.217770 0.571772 0.184423
C54   C     C_R   0.845278 0.134614 0.567045 -0.324603
H35   H     H_    0.836528 0.333595 0.548770 0.185436
O25   O     O_3   0.547550 0.772991 0.328734 -0.688666
C55   C     C_3   0.668952 0.837986 0.342342 -0.164166
H36   H     H_    0.624849 0.893803 0.326856 0.123703
H37   H     H_    0.780383 0.823808 0.314153 0.204748
H38   H     H_    0.699145 0.851652 0.400863 0.159333
H39   H     H_    0.898355 0.326200 0.424693 0.059628
H40   H     H_    0.835152 0.186763 0.403674 0.108525
O26   O     O_3   0.002076 0.154828 0.327727 -0.582578
C56   C     C_3   0.991625 0.070878 0.332197 -0.189090
H41   H     H_    0.011864 0.035312 0.278047 0.168763
H42   H     H_    0.871396 0.049555 0.348660 0.119478
H43   H     H_    0.085432 0.057790 0.370018 0.136919
O27   O     O_3   0.428114 0.212583 0.259569 -0.717120
C57   C     C_3   0.298495 0.243744 0.296421 -0.075742
H44   H     H_    0.316200 0.310972 0.315227 0.119375
H45   H     H_    0.194862 0.230568 0.257811 0.213401
H46   H     H_    0.276091 0.212299 0.342843 0.197760
O28   O     O_3   0.607246 0.328873 0.297334 -0.641949
C58   C     C_3   0.584963 0.346095 0.226684 -0.277300
H47   H     H_    0.456871 0.341232 0.210032 0.154131
H48   H     H_    0.650945 0.307723 0.185099 0.116622
H49   H     H_    0.632367 0.408701 0.226097 0.213245
H50   H     H_    0.527150 0.738647 0.144834 0.244667
H51   H     H_    0.157174 0.370208 0.735676 0.136934
H52   H     H_    0.035636 0.230157 0.813066 0.253827
O29   O     O_3   0.585432 0.199030 0.717931 -0.591766
C59   C     C_3   0.711364 0.150858 0.729070 -0.291092
H53   H     H_    0.711053 0.133469 0.783308 0.146744
H54   H     H_    0.828177 0.182197 0.719833 0.144510
H55   H     H_    0.695075 0.092703 0.689775 0.208167
H56   H     H_    0.646674 0.234918 0.873556 0.223144
H57   H     H_    0.179780 0.673270 0.286082 0.068742
O30   O     O_3   0.835194 0.470923 0.643437 -0.654662
C60   C     C_3   0.744566 0.532967 0.627994 0.158267
H58   H     H_    0.818030 0.589125 0.624108 0.100363
H59   H     H_    0.650182 0.550404 0.667014 0.088946
H60   H     H_    0.687428 0.506401 0.575822 0.226216
H61   H     H_    0.906850 0.382637 0.197645 0.153106
H62   H     H_    0.594669 0.585357 0.128276 0.170702
O31   O     O_3   0.660671 0.883344 0.596533 -0.628268
C61   C     C_3   0.821771 0.893817 0.578365 -0.084977
H63   H     H_    0.878421 0.948798 0.614621 0.118804
H64   H     H_    0.838662 0.904139 0.522112 0.121068
H65   H     H_    0.886044 0.841724 0.589359 0.185491
H66   H     H_    0.926233 0.093541 0.583720 0.145452
O32   O     O_3   0.312537 0.657566 0.484892 -0.598660
C62   C     C_3   0.354398 0.609294 0.420127 0.222902
H67   H     H_    0.430756 0.562547 0.431075 0.156140
H68   H     H_    0.391092 0.643896 0.376718 -0.011121
H69   H     H_    0.255580 0.568825 0.396030 0.119633
H70   H     H_    0.980641 0.685122 0.191682 0.293587
H71   H     H_    0.057006 0.790000 0.192068 0.249756
H72   H     H_    0.994919 0.699112 0.748642 0.046107

loop_
_geom_bond_atom_site_label_1
_geom_bond_atom_site_label_2
_geom_bond_distance
_ccdc_geom_bond_type
C1    H1    1.110156 S    
C7    O26   1.410988 S    
O32   C62   1.405424 S    
C29   C36   1.424137 A    
O25   C55   1.413496 S    
C49   H33   1.082427 S    
P5    C53   1.852659 S    
C6    C7    1.546529 S    
C9    H13   1.110038 S    
C6    H39   1.106700 S    
C16   H24   1.111026 S    
C45   C46   1.436628 A    
C17   C20   1.429488 A    
C12   H16   1.109990 S    
O4    P6    1.541328 D    
C33   H27   1.079659 S    
C56   H43   1.112575 S    
C13   C14   1.521308 S    
C22   C23   1.421862 A    
Ba1   O16   2.772759 S    
C53   C54   1.404889 A    
C11   O27   1.414395 S    
C26   C27   1.397329 A    
O31   C61   1.409776 S    
P4    C27   1.899642 S    
C19   H29   1.078226 S    
C18   H30   1.077890 S    
C51   C54   1.410960 A    
P4    O15   1.748778 S    
P2    O10   1.754655 S    
C51   N2    1.435983 S    
C60   H58   1.093819 S    
O19   C13   1.408542 S    
P4    O12   1.552027 D    
C9    H11   1.111031 S    
P3    O9    1.535634 D    
C19   C21   1.392861 A    
C7    H40   1.104633 S    
C3    H19   1.110899 S    
C49   C50   1.409206 A    
O2    Ba2   2.827303 S    
P3    O8    1.760584 S    
P1    O1    1.551704 D    
C14   H52   1.109774 S    
P3    C48   1.864994 S    
P2    O20   1.556643 S    
N1    N2    1.251602 D    
C13   H51   1.111485 S    
C2    C3    1.520897 S    
C3    H70   1.110512 S    
C37   H32   1.076640 S    
C31   C42   1.424538 A    
C47   H34   1.083100 S    
C8    H9    1.103735 S    
P7    C50   1.842430 S    
C49   C51   1.414878 A    
C5    H6    1.110684 S    
O29   C59   1.413128 S    
C60   H59   1.113482 S    
C15   C16   1.539783 S    
C45   O31   1.387675 S    
C2    H57   1.114266 S    
C1    H15   1.110134 S    
P4    Ba2   3.428980 S    
C52   C53   1.398232 A    
Ba1   Ba2   4.679750 S    
P2    Ba1   3.448236 S    
C11   O28   1.421073 S    
P7    O21   1.567402 D    
C61   H64   1.112468 S    
C16   H25   1.107003 S    
C32   H61   1.076539 S    
C61   H63   1.109124 S    
C1    H50   1.109687 S    
C58   H49   1.088466 S    
C46   C47   1.412952 A    
C37   C39   1.391285 A    
C62   H68   1.114738 S    
Ba2   O21   2.855077 S    
O14   P8    1.774156 S    
Ba2   O20   2.772013 S    
C34   H31   1.076709 S    
P7    O22   1.783810 S    
O3    Ba1   2.823757 S    
P1    O5    1.760132 S    
C15   O29   1.418483 S    
C41   C42   1.403106 A    
C25   C26   1.403630 A    
O6    P6    1.757841 S    
C58   H48   1.108032 S    
C44   C45   1.426871 A    
C52   H35   1.080785 S    
O11   C2    1.396699 S    
C4    H72   1.113250 S    
C14   H22   1.107150 S    
C13   H20   1.112115 S    
C23   C24   1.433447 A    
C17   C29   1.420749 A    
C50   C52   1.396081 A    
O7    Ba1   2.854814 S    
P1    O2    1.570765 S    
P8    C25   1.893181 S    
O30   C60   1.398788 S    
C21   H26   1.078309 S    
C15   O24   1.412056 S    
C55   H37   1.108074 S    
C7    H8    1.111598 S    
C46   N1    1.442474 S    
P3    O11   1.746053 S    
C4    O15   1.399921 S    
O5    C6    1.411716 S    
C59   H55   1.107988 S    
P8    O24   1.760042 S    
C24   C35   1.419641 A    
C36   C37   1.413970 A    
C4    H3    1.100102 S    
C8    H10   1.109394 S    
C2    H2    1.105877 S    
C60   H60   1.089466 S    
C10   H14   1.104007 S    
C33   C34   1.394844 A    
C17   C18   1.414020 A    
P5    O17   1.744055 S    
P2    O7    1.526104 D    
C43   C48   1.398549 A    
C10   O25   1.421332 S    
C59   H54   1.107373 S    
C14   H21   1.108927 S    
C41   H28   1.077654 S    
C38   C40   1.415595 A    
C12   H17   1.111728 S    
P1    Ba1   3.428281 S    
C5    H5    1.111630 S    
O8    Ba1   2.746484 S    
C26   O30   1.358009 S    
C43   O32   1.377469 S    
C55   H36   1.110420 S    
Ba1   O20   2.966515 S    
C1    C10   1.539910 S    
C6    H7    1.105076 S    
C22   C25   1.415393 A    
C8    C9    1.520650 S    
C62   H67   1.092050 S    
C47   C48   1.402109 A    
O17   Ba2   2.747236 S    
O13   Ba2   2.981362 S    
C3    H71   1.110627 S    
C11   C12   1.542277 S    
C18   C32   1.393004 A    
C27   C28   1.423622 A    
O2    Ba1   2.980452 S    
O6    C10   1.406471 S    
C4    C5    1.520164 S    
C21   C22   1.395743 A    
O1    Ba1   2.840811 S    
C56   H42   1.113561 S    
C57   H44   1.110691 S    
C62   H69   1.067946 S    
O10   C8    1.404365 S    
C56   H41   1.109140 S    
C11   O22   1.421809 S    
O3    P6    1.751879 S    
C19   C20   1.414629 A    
C30   C38   1.420747 A    
C58   H47   1.109519 S    
C55   H38   1.105524 S    
C43   C44   1.402777 A    
P6    C40   1.887612 S    
P4    O13   1.570765 S    
C57   H45   1.107262 S    
Ba1   O13   2.826833 S    
C31   C32   1.395877 A    
O26   C56   1.411437 S    
P8    O23   1.543932 D    
C28   C33   1.398886 A    
C16   H56   1.110273 S    
C40   C41   1.405601 A    
C57   H46   1.107001 S    
O14   Ba2   2.823340 S    
P2    C44   1.874350 S    
C9    H12   1.110033 S    
C34   C35   1.416396 A    
P5    O18   1.548539 D    
C15   H23   1.112583 S    
O27   C57   1.390805 S    
C39   H62   1.080978 S    
C20   C24   1.421282 A    
O16   Ba2   2.965636 S    
C23   C28   1.425159 A    
C54   H66   1.082629 S    
C29   C30   1.436116 A    
C61   H65   1.105314 S    
C38   C39   1.398682 A    
C12   H18   1.097907 S    
C35   C36   1.432550 A    
C5    H4    1.110639 S    
C59   H53   1.109368 S    
O16   P7    1.772354 S    
C30   C31   1.426565 A    
P5    O19   1.749531 S    
P1    C42   1.907162 S    
O28   C58   1.421196 S    
O12   Ba2   2.841362 S    
