data_mof_unit_7914.cif
_audit_creation_date              2013-03-05T15:41:25-0500
_audit_creation_method            fapswitch 2.2
_symmetry_space_group_name_H-M    P1
_symmetry_Int_Tables_number       1
_space_group_crystal_system       triclinic
_cell_length_a                    11.760527
_cell_length_b                    18.313479
_cell_length_c                    10.182916
_cell_angle_alpha                 90.000561
_cell_angle_beta                  111.960827
_cell_angle_gamma                 89.999506
_cell_volume                      2034.02135253

loop_
_atom_site_label
_atom_site_type_symbol
_atom_site_description
_atom_site_fract_x
_atom_site_fract_y
_atom_site_fract_z
_atom_type_partial_charge
O1    O     O_R   0.267710 0.668200 0.902110 -0.468294
O2    O     O_R   0.732290 0.331800 0.097890 -0.446567
O3    O     O_R   0.732290 0.168200 0.097890 -0.468291
O4    O     O_R   0.267710 0.831800 0.902110 -0.446589
O5    O     O_R   0.099480 0.674460 0.038850 -0.501907
O6    O     O_R   0.900520 0.325540 0.961150 -0.509713
O7    O     O_R   0.900520 0.174460 0.961150 -0.501991
O8    O     O_R   0.099480 0.825540 0.038850 -0.509671
C1    C     C_R   0.081445 0.642984 0.141930 0.544066
C2    C     C_R   0.875088 0.362685 0.843718 0.544409
C3    C     C_R   0.918574 0.142990 0.858078 0.544016
C4    C     C_R   0.124953 0.862681 0.156299 0.544454
O9    O     O_R   0.116720 0.669210 0.267660 -0.435064
O10   O     O_R   0.883280 0.330790 0.732340 -0.457777
O11   O     O_R   0.883280 0.169210 0.732340 -0.435038
O12   O     O_R   0.116720 0.830790 0.267660 -0.457863
O13   O     O_R   0.366710 0.675440 0.427590 -0.456917
O14   O     O_R   0.633290 0.324560 0.572410 -0.471506
O15   O     O_R   0.633290 0.175440 0.572410 -0.456913
O16   O     O_R   0.366710 0.824560 0.427590 -0.471591
C5    C     C_R   0.436983 0.637130 0.379590 0.545393
C6    C     C_R   0.521617 0.346801 0.548281 0.595550
C7    C     C_R   0.563013 0.137129 0.620403 0.545412
C8    C     C_R   0.478382 0.846799 0.451722 0.595611
O17   O     O_R   0.534870 0.669390 0.371760 -0.511479
O18   O     O_R   0.465130 0.330610 0.628240 -0.532981
O19   O     O_R   0.465130 0.169390 0.628240 -0.511463
O20   O     O_R   0.534870 0.830610 0.371760 -0.532922
O21   O     O_R   0.453080 0.674480 0.075160 -0.531018
O22   O     O_R   0.546920 0.325520 0.924840 -0.483434
O23   O     O_R   0.546920 0.174480 0.924840 -0.531014
O24   O     O_R   0.453080 0.825520 0.075160 -0.483437
C9    C     C_R   0.375900 0.644080 0.965135 0.600352
C10   C     C_R   0.650486 0.360898 0.984350 0.576260
C11   C     C_R   0.624100 0.144081 0.034863 0.600387
C12   C     C_R   0.349516 0.860900 0.015645 0.576327
Cr1   Cr    Cr6+3 0.187610 0.750000 0.979860 1.096954
Cr2   Cr    Cr6+3 0.812390 0.250000 0.020140 1.096903
Cr3   Cr    Cr6+3 0.245810 0.750000 0.341640 1.116156
Cr4   Cr    Cr6+3 0.754190 0.250000 0.658360 1.116184
Cr5   Cr    Cr6+3 0.485760 0.750000 0.219910 1.025321
Cr6   Cr    Cr6+3 0.514240 0.250000 0.780090 1.025290
O25   O     O_3   0.306390 0.750000 0.180470 -0.352955
O26   O     O_3   0.693610 0.250000 0.819530 -0.352937
C13   C     C_R   0.461056 0.404045 0.441399 0.035437
C14   C     C_R   0.440447 0.555534 0.401811 -0.032763
C15   C     C_R   0.538932 0.904044 0.558603 0.035441
C16   C     C_R   0.559536 0.055534 0.598174 -0.032747
C17   C     C_R   0.262442 0.394747 0.450727 -0.083626
C18   C     C_R   0.604740 0.540344 0.295064 -0.120724
C19   C     C_R   0.737553 0.894740 0.549310 -0.083610
C20   C     C_R   0.395226 0.040352 0.704901 -0.120652
C21   C     C_R   0.182605 0.422435 0.506566 -0.072330
C22   C     C_R   0.700769 0.496983 0.291807 -0.132571
C23   C     C_R   0.817382 0.922419 0.493455 -0.072306
C24   C     C_R   0.299199 0.996992 0.708164 -0.132605
C25   C     C_R   0.190435 0.494690 0.546543 0.072865
C26   C     C_R   0.702125 0.422488 0.316798 0.137204
C27   C     C_R   0.809546 0.994671 0.453457 0.072894
C28   C     C_R   0.297847 0.922496 0.683183 0.137078
C29   C     C_R   0.274394 0.542690 0.519810 0.072444
C30   C     C_R   0.596079 0.391291 0.319482 0.066769
C31   C     C_R   0.725592 0.042678 0.480187 0.072469
C32   C     C_R   0.403893 0.891299 0.680500 0.066705
C33   C     C_R   0.355937 0.515529 0.452897 -0.050455
C34   C     C_R   0.522324 0.435673 0.366490 -0.014282
C35   C     C_R   0.644051 0.015523 0.547105 -0.050479
C36   C     C_R   0.477645 0.935678 0.633487 -0.014328
C37   C     C_R   0.356844 0.438406 0.442210 -0.013216
C38   C     C_R   0.520412 0.512375 0.352211 -0.022065
C39   C     C_R   0.643148 0.938402 0.557809 -0.013196
C40   C     C_R   0.479555 0.012380 0.647757 -0.021969
H1    H     H_    0.123828 0.385221 0.533311 0.177315
H2    H     H_    0.769246 0.520911 0.261158 0.160905
H3    H     H_    0.876153 0.885200 0.466710 0.177319
H4    H     H_    0.230726 0.020923 0.738818 0.160896
H5    H     H_    0.259562 0.336612 0.429204 0.167358
H6    H     H_    0.605273 0.594480 0.256518 0.183210
H7    H     H_    0.740431 0.836605 0.570843 0.167345
H8    H     H_    0.394693 0.094488 0.743451 0.183198
H9    H     H_    0.402001 0.085438 0.996594 0.149776
H10   H     H_    0.543525 0.943628 0.149263 0.170722
H11   H     H_    0.598000 0.585439 0.003390 0.149818
H12   H     H_    0.456482 0.443629 0.850713 0.170725
C41   C     C_2   0.357142 0.940621 0.017333 -0.115857
C42   C     C_2   0.594431 0.073461 0.079412 -0.069399
C43   C     C_2   0.642865 0.440621 0.982643 -0.116103
C44   C     C_2   0.405571 0.573461 0.920578 -0.069408
C45   C     C_2   0.463161 0.974673 0.084697 -0.135843
C46   C     C_2   0.480299 0.050770 0.052228 -0.129896
C47   C     C_2   0.536845 0.474674 0.915277 -0.135968
C48   C     C_2   0.519704 0.550771 0.947754 -0.129847
H13   H     H_    0.670162 0.037283 0.133582 0.116971
H14   H     H_    0.276145 0.971574 0.956505 0.132170
H15   H     H_    0.329839 0.537283 0.866402 0.116958
H16   H     H_    0.723862 0.471573 0.043472 0.132203
H17   H     H_    0.888586 0.053368 0.038584 0.177129
H18   H     H_    0.923649 0.911184 0.960098 0.170642
H19   H     H_    0.111602 0.553323 0.961575 0.176953
H20   H     H_    0.076407 0.411147 0.039963 0.170607
C49   C     C_2   0.086219 0.939102 0.133293 0.062533
C50   C     C_2   0.964519 0.068064 0.882090 0.053814
C51   C     C_2   0.913866 0.439101 0.866756 0.062494
C52   C     C_2   0.035529 0.568053 0.117939 0.054009
C53   C     C_2   0.981819 0.954672 0.022623 -0.109889
C54   C     C_2   0.939918 0.029006 0.980895 -0.138270
C55   C     C_2   0.018266 0.454649 0.977451 -0.109875
C56   C     C_2   0.060213 0.528974 0.019213 -0.138205
I1    I     I_    0.083171 0.520611 0.668135 -0.332240
I2    I     I_    0.869447 0.365258 0.403293 -0.195273
I3    I     I_    0.916786 0.020570 0.331839 -0.332224
I4    I     I_    0.130533 0.865260 0.596708 -0.195362
C57   C     C_2   0.286218 0.613233 0.590661 0.636590
O27   O     O_2   0.387015 0.634678 0.669319 -0.495695
O28   O     O_R   0.181431 0.655977 0.564462 -0.606260
H21   H     H_    0.196503 0.701533 0.623918 0.379091
C58   C     C_2   0.556898 0.315336 0.269628 0.608554
O29   O     O_2   0.628500 0.272437 0.251791 -0.457568
O30   O     O_R   0.435178 0.293788 0.237030 -0.707923
H22   H     H_    0.419453 0.241425 0.202584 0.365834
C59   C     C_2   0.713769 0.113219 0.409331 0.636577
O31   O     O_2   0.612970 0.134667 0.330680 -0.495742
O32   O     O_R   0.818557 0.155958 0.435516 -0.606238
H23   H     H_    0.803480 0.201519 0.376075 0.379087
C60   C     C_2   0.443085 0.815348 0.730372 0.608573
O33   O     O_2   0.371483 0.772444 0.748192 -0.457556
O34   O     O_R   0.564814 0.793807 0.763003 -0.707911
H24   H     H_    0.580544 0.741446 0.797456 0.365844
C61   C     C_2   0.017450 0.037044 0.783658 0.538110
O35   O     O_2   0.037552 0.971731 0.782370 -0.530666
O36   O     O_R   0.038684 0.083737 0.686658 -0.650222
H25   H     H_    0.056587 0.057135 0.610119 0.365032
C62   C     C_2   0.174020 0.995566 0.219776 0.571771
O37   O     O_2   0.145265 0.060016 0.213598 -0.476342
O38   O     O_R   0.292216 0.974508 0.307207 -0.715329
H26   H     H_    0.345670 0.017761 0.354013 0.351719
C63   C     C_2   0.982538 0.537051 0.216330 0.538159
O39   O     O_2   0.962442 0.471739 0.217642 -0.530676
O40   O     O_R   0.961253 0.583761 0.313275 -0.650248
H27   H     H_    0.943358 0.557172 0.389833 0.365009
C64   C     C_2   0.826099 0.495581 0.780269 0.571781
O41   O     O_2   0.854742 0.560066 0.786844 -0.476485
O42   O     O_R   0.708049 0.474495 0.692379 -0.715079
H28   H     H_    0.654579 0.517754 0.645642 0.351698

loop_
_geom_bond_atom_site_label_1
_geom_bond_atom_site_label_2
_geom_bond_distance
_ccdc_geom_bond_type
C26   C30   1.381325 A    
O4    C12   1.309308 A    
C24   H4    1.061122 S    
O23   Cr6   1.951776 S    
C23   C27   1.377362 A    
C58   O29   1.213952 D    
C50   C61   1.477014 S    
C58   O30   1.399893 S    
O1    C9    1.270891 A    
O32   H23   1.006851 S    
C34   C38   1.411503 A    
O7    C3    1.282777 A    
H19   C56   1.083453 S    
C63   O40   1.397765 S    
C18   C22   1.391085 A    
H10   C45   1.088113 S    
Cr6   O26   1.994382 S    
C28   I4    2.109506 S    
C32   C36   1.397363 A    
C2    C51   1.463362 S    
C9    C44   1.455547 S    
C41   C45   1.332040 D    
C5    C14   1.509604 S    
C43   C47   1.332052 D    
C64   O42   1.395798 S    
C11   C42   1.455525 S    
C33   C37   1.416920 A    
O5    Cr1   1.953094 S    
O28   H21   1.006848 S    
O21   C9    1.276103 A    
O20   Cr5   2.058121 S    
C52   C63   1.477026 S    
O13   Cr3   1.929080 S    
C1    O9    1.282445 A    
C30   C58   1.493308 S    
O14   Cr4   1.929078 S    
C22   H2    1.061118 S    
C3    O11   1.282470 A    
C25   I1    2.125538 S    
C4    O12   1.310921 A    
O3    Cr2   2.077555 S    
C27   I3    2.125455 S    
C55   C56   1.456037 S    
O6    Cr2   1.953093 S    
C51   C64   1.493657 S    
H12   C47   1.088112 S    
C7    O19   1.322600 A    
C19   C23   1.364280 A    
O1    Cr1   2.077532 S    
C63   O39   1.220251 D    
C23   H3    1.075766 S    
O2    C10   1.309322 A    
C44   H15   1.081221 S    
C17   C37   1.396921 A    
Cr5   O25   1.994382 S    
C19   C39   1.396910 A    
C16   C40   1.455848 A    
C18   H6    1.067178 S    
C31   C59   1.460744 S    
Cr2   O26   1.997508 S    
C49   C53   1.350518 D    
O40   H27   1.005919 S    
C31   C35   1.456025 A    
C14   C38   1.455845 A    
O22   C10   1.310895 A    
C13   C37   1.380456 A    
C44   C48   1.331577 D    
O38   H26   1.012782 S    
C14   C33   1.477125 A    
C42   C46   1.331565 D    
O17   Cr5   2.058137 S    
C47   C48   1.463544 S    
O16   Cr3   1.929084 S    
C30   C34   1.397371 A    
Cr3   O25   2.018812 S    
O13   C5    1.310060 A    
C24   C28   1.386796 A    
C36   C40   1.411497 A    
Cr1   O25   1.997508 S    
O15   C7    1.310076 A    
O5    C1    1.282793 A    
C20   C40   1.419933 A    
C42   H13   1.081207 S    
C29   C33   1.456046 A    
C41   H14   1.082153 S    
O2    Cr2   2.077531 S    
O3    C11   1.270888 A    
O8    C4    1.309483 A    
C43   H16   1.082153 S    
H18   C53   1.087147 S    
C15   C39   1.380425 A    
C59   O31   1.221016 D    
H9    C46   1.087096 S    
C2    O10   1.310905 A    
C62   O37   1.222905 D    
O23   C11   1.276093 A    
O8    Cr1   1.953072 S    
H17   C54   1.083429 S    
O24   Cr5   1.951774 S    
O36   H25   1.005913 S    
O24   C12   1.310895 A    
C15   C36   1.359280 A    
C52   C56   1.351061 D    
C59   O32   1.398812 S    
O18   Cr6   2.058136 S    
C62   O38   1.395696 S    
C57   O27   1.221014 D    
C22   C26   1.386793 A    
C5    O17   1.322627 A    
H20   C55   1.087148 S    
C21   C25   1.377363 A    
C7    C16   1.509598 S    
O21   Cr5   1.951760 S    
C26   I2    2.109524 S    
C8    C15   1.486941 S    
C21   H1    1.075767 S    
C8    O20   1.263645 A    
O6    C2    1.309447 A    
O30   H22   1.014043 S    
C25   C29   1.422271 A    
O34   H24   1.014042 S    
C49   C62   1.493623 S    
C12   C41   1.462440 S    
C53   C54   1.455999 S    
C27   C31   1.422269 A    
C28   C32   1.381322 A    
O14   C6    1.307575 A    
C61   O35   1.220250 D    
C4    C49   1.463315 S    
C64   O41   1.222995 D    
C29   C57   1.460741 S    
O19   Cr6   2.058123 S    
C60   O33   1.213945 D    
C1    C52   1.461406 S    
C17   C21   1.364297 A    
O7    Cr2   1.953073 S    
C17   H5    1.084962 S    
C50   C54   1.351052 D    
C3    C50   1.461418 S    
C35   C39   1.416913 A    
C10   C43   1.462460 S    
C16   C35   1.477108 A    
C18   C38   1.419926 A    
C19   H7    1.084961 S    
O11   Cr4   2.050847 S    
O9    Cr3   2.050855 S    
O15   Cr4   1.929085 S    
O12   Cr3   2.050846 S    
O10   Cr4   2.050854 S    
C20   C24   1.391081 A    
Cr4   O26   2.018813 S    
C6    C13   1.486960 S    
O4    Cr1   2.077553 S    
H11   C48   1.087095 S    
C32   C60   1.493309 S    
C6    O18   1.263627 A    
C13   C34   1.359290 A    
C60   O34   1.399891 S    
O22   Cr6   1.951759 S    
C51   C55   1.350557 D    
C57   O28   1.398811 S    
C45   C46   1.463528 S    
C20   H8    1.067182 S    
O16   C8    1.307556 A    
O42   H28   1.012775 S    
C61   O36   1.397757 S    
