data_mof_unit_10053.cif
_audit_creation_date              2012-12-11T14:34:15-0500
_audit_creation_method            fapswitch 2.2
_symmetry_space_group_name_H-M    P1
_symmetry_Int_Tables_number       1
_space_group_crystal_system       triclinic
_cell_length_a                    13.941505
_cell_length_b                    13.993266
_cell_length_c                    27.343535
_cell_angle_alpha                 89.966951
_cell_angle_beta                  89.832397
_cell_angle_gamma                 120.133735
_cell_volume                      4613.43209286

loop_
_atom_site_label
_atom_site_type_symbol
_atom_type_description
_atom_site_fract_x
_atom_site_fract_y
_atom_site_fract_z
_atom_type_partial_charge
C1    C     C_R   0.233990 0.787142 0.568802 0.543940
C2    C     C_1   0.705954 0.862209 0.860529 -0.025040
C3    C     C_1   0.116293 0.883209 0.852578 -0.021303
C4    C     C_1   0.154711 0.296171 0.860779 -0.025050
C5    C     C_1   0.626506 0.814468 0.659356 -0.070583
C6    C     C_1   0.179217 0.819221 0.656607 -0.070909
C7    C     C_1   0.186428 0.375161 0.659671 -0.070385
C8    C     C_1   0.599459 0.796188 0.617029 -0.010407
C9    C     C_1   0.200027 0.805863 0.615365 -0.009409
C10   C     C_1   0.195976 0.401322 0.617212 -0.009350
C11   C     C_R   0.107938 0.223998 0.087596 0.566980
C12   C     C_R   0.212785 0.447679 0.569169 0.544302
C13   C     C_R   0.778232 0.884607 0.088627 0.569237
C14   C     C_R   0.116327 0.892244 0.087632 0.580800
C15   C     C_R   0.107594 0.220867 0.950967 0.552747
C16   C     C_R   0.779687 0.886874 0.950843 0.552663
C17   C     C_R   0.091155 0.930168 0.943328 0.553427
C18   C     C_R   0.529661 0.845940 0.349651 -0.126842
C19   C     C_R   0.103676 0.725498 0.361068 -0.127004
C20   C     C_R   0.268329 0.369381 0.361748 -0.137486
C21   C     C_R   0.557037 0.863607 0.300015 0.014679
C22   C     C_R   0.089451 0.733628 0.311018 0.015839
C23   C     C_R   0.552216 0.765281 0.569152 0.552792
C24   C     C_R   0.259572 0.345441 0.311764 0.015950
C25   C     C_R   0.633471 0.907929 0.202388 0.018472
C26   C     C_R   0.068478 0.746318 0.209032 0.018549
C27   C     C_R   0.249444 0.313610 0.209644 0.021157
C28   C     C_R   0.233327 0.787891 0.431442 0.538956
C29   C     C_R   0.211864 0.445429 0.431401 0.540095
C30   C     C_R   0.499011 0.735718 0.425934 0.563046
C31   C     C_R   0.615615 0.983750 0.229143 -0.072105
C32   C     C_R   0.988658 0.654767 0.236042 -0.075210
C33   C     C_R   0.335079 0.314990 0.237461 -0.073572
C34   C     C_3   0.643679 0.728606 0.791202 -0.008115
C35   C     C_R   0.578022 0.961780 0.277356 -0.121539
C36   C     C_R   0.999708 0.648160 0.286374 -0.125796
C37   C     C_R   0.339905 0.330655 0.287919 -0.141378
C38   C     C_R   0.682133 0.933551 0.155210 0.065211
C39   C     C_R   0.056245 0.757415 0.158435 0.066496
C40   C     C_R   0.240573 0.293589 0.158815 0.075950
C41   C     C_R   0.706658 0.857754 0.132096 -0.023457
C42   C     C_R   0.136903 0.854058 0.134222 -0.021840
C43   C     C_R   0.146759 0.282753 0.134074 -0.022955
C44   C     C_R   0.519963 0.668018 0.345422 -0.124757
C45   C     C_3   0.259168 0.928591 0.787613 -0.008798
C46   C     C_R   0.270471 0.906209 0.359466 -0.131001
C47   C     C_R   0.095411 0.371609 0.358580 -0.122805
C48   C     C_R   0.547378 0.684674 0.296003 -0.024797
C49   C     C_R   0.260076 0.913162 0.309447 -0.027218
C50   C     C_R   0.088968 0.354035 0.308637 -0.029312
C51   C     C_R   0.568718 0.783971 0.273271 0.052911
C52   C     C_R   0.169860 0.826295 0.284779 0.054617
C53   C     C_R   0.171803 0.341958 0.284740 0.054993
C54   C     C_R   0.559106 0.605611 0.269800 -0.091661
C55   C     C_R   0.342928 0.002668 0.283569 -0.105479
C56   C     C_3   0.093718 0.373088 0.792638 -0.007578
C57   C     C_R   0.004174 0.355230 0.282125 -0.097185
C58   C     C_R   0.595811 0.625452 0.221567 0.234143
C59   C     C_R   0.338425 0.006321 0.232983 0.226382
C60   C     C_R   0.000689 0.344959 0.231617 0.235277
C61   C     C_R   0.622092 0.726677 0.199054 0.013382
C62   C     C_R   0.246520 0.921786 0.207968 0.015620
C63   C     C_R   0.081566 0.329946 0.207269 0.013527
C64   C     C_3   0.570816 0.863464 0.737695 -0.224576
C65   C     C_3   0.104494 0.723198 0.735972 -0.223124
C66   C     C_3   0.294182 0.419163 0.736703 -0.223202
C67   C     C_3   0.625812 0.717471 0.735012 -0.188550
C68   C     C_R   0.606672 0.805642 0.224585 0.004515
C69   C     C_R   0.161419 0.831466 0.233864 0.004695
C70   C     C_R   0.167574 0.328272 0.233828 0.002226
C71   C     C_R   0.669853 0.753313 0.152837 -0.114524
C72   C     C_R   0.235075 0.928713 0.158069 -0.113153
C73   C     C_R   0.074775 0.310615 0.157411 -0.111685
C74   C     C_R   0.516548 0.750589 0.372975 -0.000086
C75   C     C_R   0.197194 0.809524 0.384787 0.004080
C76   C     C_R   0.188795 0.387578 0.384652 0.004644
C77   C     C_3   0.770116 0.916959 0.722931 -0.219924
C78   C     C_3   0.275164 0.912139 0.732675 -0.189702
C79   C     C_3   0.088900 0.889150 0.712867 -0.217514
C80   C     C_3   0.128929 0.229656 0.723488 -0.220257
C81   C     C_3   0.790083 0.930653 0.778896 -0.212406
C82   C     C_3   0.070080 0.904160 0.767427 -0.216368
C83   C     C_3   0.122100 0.209717 0.779415 -0.214328
C84   C     C_1   0.733795 0.872714 0.902783 0.023670
C85   C     C_1   0.103943 0.902602 0.894276 0.027913
C86   C     C_1   0.138901 0.267492 0.902975 0.021978
C87   C     C_3   0.648305 0.828393 0.712311 0.046954
C88   C     C_3   0.161805 0.835246 0.708172 0.046056
C89   C     C_3   0.101640 0.392280 0.736394 -0.188889
C90   C     C_3   0.177990 0.354076 0.712642 0.047655
C91   C     C_3   0.591836 0.876468 0.793751 -0.237777
C92   C     C_3   0.088110 0.740930 0.790774 -0.230864
C93   C     C_3   0.285735 0.398766 0.792787 -0.235922
C94   C     C_3   0.683377 0.849480 0.807608 0.067564
C95   C     C_3   0.133420 0.865352 0.801048 0.066971
C96   C     C_3   0.163527 0.319284 0.807928 0.067935
Cl1   Cl    Cl    0.614116 0.523450 0.192192 -0.558559
Cl2   Cl    Cl    0.450018 0.119160 0.202984 -0.588779
Cl3   Cl    Cl    0.892401 0.350383 0.200859 -0.566654
Cr1   Cr    Cr6+3 0.164410 0.584450 0.499910 1.019458
Cr2   Cr    Cr6+3 0.415550 0.579960 0.499910 1.019068
Cr3   Cr    Cr6+3 0.420040 0.835590 0.499910 1.022083
Cr4   Cr    Cr6+3 0.155170 0.075460 0.019960 1.092513
Cr5   Cr    Cr6+3 0.924540 0.079710 0.019960 1.094201
Cr6   Cr    Cr6+3 0.920290 0.844830 0.019960 1.101416
H1    H     H_    0.617147 0.962474 0.804806 0.157428
H2    H     H_    0.522910 0.908378 0.370353 0.132335
H3    H     H_    0.046280 0.650825 0.380637 0.125954
H4    H     H_    0.340041 0.380459 0.381921 0.117222
H5    H     H_    0.634093 0.062517 0.214129 0.217658
H6    H     H_    0.916702 0.587488 0.219007 0.212444
H7    H     H_    0.398764 0.303249 0.220949 0.228559
H8    H     H_    0.569092 0.023548 0.297484 0.126240
H9    H     H_    0.937802 0.576045 0.306049 0.125852
H10   H     H_    0.407230 0.332125 0.308262 0.120824
H11   H     H_    0.684936 0.694488 0.133653 0.213977
H12   H     H_    0.998446 0.692172 0.800291 0.174265
H13   H     H_    0.298651 0.998970 0.138124 0.215144
H14   H     H_    0.006900 0.307557 0.136989 0.214551
H15   H     H_    0.543994 0.529986 0.287445 0.138122
H16   H     H_    0.413084 0.068583 0.302594 0.133030
H17   H     H_    0.941643 0.366531 0.300604 0.138080
H18   H     H_    0.585164 0.943030 0.722021 0.139321
H19   H     H_    0.022540 0.666496 0.719197 0.144343
H20   H     H_    0.350895 0.393330 0.720435 0.143326
H21   H     H_    0.505255 0.592137 0.362841 0.127721
H22   H     H_    0.342256 0.972149 0.377657 0.131165
H23   H     H_    0.338349 0.363088 0.803329 0.166293
H24   H     H_    0.032245 0.383486 0.376071 0.135882
H25   H     H_    0.827421 0.892617 0.706024 0.118208
H26   H     H_    0.129677 0.971004 0.694201 0.122674
H27   H     H_    0.044571 0.181337 0.707379 0.121356
H28   H     H_    0.789237 0.997466 0.706521 0.128323
H29   H     H_    0.007477 0.836636 0.694778 0.123723
H30   H     H_    0.181511 0.199549 0.706491 0.127709
H31   H     H_    0.816247 0.017181 0.789284 0.148168
H32   H     H_    0.980097 0.854907 0.775608 0.140897
H33   H     H_    0.174689 0.174052 0.789244 0.147562
H34   H     H_    0.482527 0.800504 0.730808 0.108445
H35   H     H_    0.859410 0.917142 0.788775 0.128799
H36   H     H_    0.096260 0.991683 0.774521 0.126594
H37   H     H_    0.035530 0.148135 0.789987 0.134584
H38   H     H_    0.539172 0.651566 0.727169 0.100993
H39   H     H_    0.329984 0.875853 0.729220 0.099207
H40   H     H_    0.134823 0.481657 0.728800 0.098053
H41   H     H_    0.681419 0.691638 0.717640 0.156628
H42   H     H_    0.317337 0.992989 0.713272 0.158803
H43   H     H_    0.017955 0.346806 0.719543 0.157521
H44   H     H_    0.563057 0.672487 0.809482 0.131407
H45   H     H_    0.155693 0.682855 0.733010 0.110126
H46   H     H_    0.301693 0.894131 0.809768 0.134267
H47   H     H_    0.127776 0.454470 0.811209 0.129615
H48   H     H_    0.330925 0.509147 0.729430 0.108126
H49   H     H_    0.513559 0.820326 0.813628 0.112054
H50   H     H_    0.131778 0.709472 0.814005 0.120131
H51   H     H_    0.318501 0.478899 0.812315 0.111076
I1    I     I_    0.752199 0.668157 0.813564 -0.451174
I2    I     I_    0.343736 0.102196 0.805643 -0.452029
I3    I     I_    0.922222 0.279523 0.815695 -0.427431
I4    I     I_    0.717621 0.084851 0.119567 -0.189909
I5    I     I_    0.918372 0.629809 0.118957 -0.182746
I6    I     I_    0.368519 0.283328 0.119351 -0.167360
O1    O     O_R   0.137150 0.468200 0.553200 -0.504665
O2    O     O_R   0.140110 0.470540 0.446010 -0.521605
O3    O     O_R   0.529460 0.669570 0.446010 -0.510861
O4    O     O_R   0.330430 0.859890 0.446010 -0.532776
O5    O     O_R   0.176710 0.690910 0.450560 -0.504905
O6    O     O_R   0.309090 0.485800 0.450560 -0.521589
O7    O     O_R   0.514200 0.823290 0.450560 -0.500331
O8    O     O_3   0.333333 0.666667 0.499990 -0.293510
O9    O     O_R   0.176750 0.985260 0.074180 -0.500384
O10   O     O_R   0.014740 0.191490 0.074180 -0.499633
O11   O     O_R   0.808510 0.823250 0.074180 -0.504243
O12   O     O_R   0.531800 0.668950 0.553200 -0.500832
O13   O     O_R   0.146100 0.172630 0.068980 -0.470566
O14   O     O_R   0.827370 0.973470 0.068980 -0.466853
O15   O     O_R   0.026530 0.853900 0.068980 -0.463410
O16   O     O_3   0.000000 0.000000 0.020040 -0.269763
O17   O     O_R   0.148270 0.170520 0.969620 -0.515825
O18   O     O_R   0.829480 0.977750 0.969620 -0.497209
O19   O     O_R   0.022250 0.851730 0.969620 -0.480142
O20   O     O_R   0.331050 0.862850 0.553200 -0.505913
O21   O     O_R   0.179100 0.982980 0.967000 -0.481416
O22   O     O_R   0.017020 0.196120 0.967000 -0.487482
O23   O     O_R   0.803880 0.820900 0.967000 -0.495925
O24   O     O_R   0.173970 0.688730 0.549930 -0.496181
O25   O     O_R   0.311270 0.485240 0.549930 -0.497065
O26   O     O_R   0.514760 0.826030 0.549930 -0.491614

loop_
_geom_bond_atom_site_label_1
_geom_bond_atom_site_label_2
_ccdc_geom_bond_type
C25   C31   A    
C89   H43   S    
C55   H16   S    
C26   C32   A    
C80   H27   S    
C32   H6    S    
C55   C59   A    
C81   H35   S    
C18   C21   A    
C65   C92   S    
C2    C84   T    
C91   H1    S    
Cr6   O16   S    
C60   Cl3   S    
C67   H38   S    
C6    C9    T    
C13   C41   S    
C79   C82   S    
Cr5   O14   S    
C23   O12   A    
C1    O24   A    
C27   C33   A    
C13   O11   A    
C25   C68   A    
C46   C49   A    
C44   H21   S    
C80   H30   S    
C47   H24   S    
C60   C63   A    
C17   C85   S    
C32   C36   A    
C29   O6    A    
C54   H15   S    
C56   I3    S    
C15   O17   A    
C16   O23   A    
C80   C83   S    
C23   O26   A    
C30   C74   S    
C26   C39   A    
C4    C86   T    
C16   O18   A    
C16   C84   S    
C8    C23   S    
C6    C88   S    
C20   C76   A    
C65   H19   S    
Cr6   O23   S    
C65   H45   S    
C18   H2    S    
C79   C88   S    
C52   C69   A    
C28   O5    A    
C57   H17   S    
C4    C96   S    
C13   O14   A    
C43   C73   A    
C40   C43   A    
Cr5   O16   S    
C20   C24   A    
C11   C43   S    
C45   C78   S    
C47   C50   A    
C59   Cl2   S    
C64   C87   S    
Cr4   O17   S    
C28   O4    A    
C41   C71   A    
C19   H3    S    
C61   C71   A    
Cr3   O7    S    
C89   H40   S    
C36   H9    S    
C11   O10   A    
Cr3   O4    S    
Cr6   O11   S    
Cr4   O9    S    
C29   O2    A    
Cr2   O12   S    
C58   Cl1   S    
C77   H28   S    
C82   H36   S    
C53   C70   A    
C42   C72   A    
C46   C75   A    
C34   H44   S    
C39   I5    S    
C39   C42   A    
C48   C51   A    
C50   C53   A    
Cr1   O8    S    
Cr3   O20   S    
C46   H22   S    
C2    C94   S    
C19   C22   A    
C1    C9    S    
C91   H49   S    
C66   C90   S    
C29   C76   S    
C14   O9    A    
C57   C60   A    
C77   H25   S    
C63   C73   A    
C24   C53   A    
C49   C55   A    
C12   O25   A    
C92   C95   S    
C33   C37   A    
C20   H4    S    
C62   C69   A    
C45   H46   S    
C48   C54   A    
Cr2   O6    S    
Cr1   O24   S    
C92   H12   S    
C30   O7    A    
C40   I6    S    
C78   H39   S    
C25   C38   A    
C83   H37   S    
C17   O21   A    
C63   C70   A    
C77   C81   S    
C27   C40   A    
C49   C52   A    
C79   H26   S    
C15   O22   A    
C67   H41   S    
Cr4   O13   S    
C24   C37   A    
C62   C72   A    
Cr2   O8    S    
Cr1   O2    S    
C33   H7    S    
C14   C42   S    
Cr2   O3    S    
C27   C70   A    
C10   C12   S    
C78   H42   S    
C38   C41   A    
C15   C86   S    
C21   C35   A    
C56   C89   S    
Cr5   O22   S    
C93   C96   S    
C66   C93   S    
Cr4   O21   S    
C3    C85   T    
C5    C8    T    
C56   H47   S    
C45   C95   S    
C21   C51   A    
C81   H31   S    
C22   C52   A    
C54   C58   A    
C78   C88   S    
C56   C96   S    
C79   H29   S    
C59   C62   A    
C82   C95   S    
C50   C57   A    
C67   C87   S    
C93   H51   S    
C45   I2    S    
C34   C94   S    
C30   O3    A    
Cr6   O15   S    
C44   C74   A    
C34   C67   S    
C47   C76   A    
C66   H48   S    
C1    O20   A    
C37   H10   S    
C82   H32   S    
C64   H18   S    
C22   C36   A    
C11   O13   A    
C66   H20   S    
Cr5   O10   S    
Cr4   O16   S    
C7    C10   T    
C19   C75   A    
Cr3   O8    S    
C93   H23   S    
C38   I4    S    
C12   O1    A    
C81   C94   S    
C7    C90   S    
C61   C68   A    
Cr5   O18   S    
C65   C88   S    
C58   C61   A    
C83   C96   S    
Cr1   O5    S    
C31   H5    S    
C71   H11   S    
C35   H8    S    
Cr1   O1    S    
C31   C35   A    
C51   C68   A    
C80   C90   S    
Cr3   O26   S    
C14   O15   A    
C73   H14   S    
C5    C87   S    
C34   I1    S    
C17   O19   A    
C77   C87   S    
C18   C74   A    
C92   H50   S    
C72   H13   S    
C26   C69   A    
C3    C95   S    
C64   C91   S    
Cr6   O19   S    
C89   C90   S    
Cr2   O25   S    
C28   C75   S    
C83   H33   S    
C44   C48   A    
C91   C94   S    
C64   H34   S    
