data_mof_unit_68309.cif
_audit_creation_date              2012-12-11T17:41:25-0500
_audit_creation_method            fapswitch 2.2
_symmetry_space_group_name_H-M    P1
_symmetry_Int_Tables_number       1
_space_group_crystal_system       triclinic
_cell_length_a                    8.223555
_cell_length_b                    12.677896
_cell_length_c                    14.182014
_cell_angle_alpha                 92.567749
_cell_angle_beta                  90.585176
_cell_angle_gamma                 98.468297
_cell_volume                      1460.7794987

loop_
_atom_site_label
_atom_site_type_symbol
_atom_type_description
_atom_site_fract_x
_atom_site_fract_y
_atom_site_fract_z
_atom_type_partial_charge
Ba1   Ba    Ba6+2 0.855630 0.555280 0.454520 1.625904
Ba2   Ba    Ba6+2 0.334200 0.444810 0.545490 1.630542
C1    C     C_3   0.771808 0.959614 0.153201 -0.372773
C2    C     C_R   0.182313 0.495917 0.195089 0.031110
C3    C     C_R   0.335963 0.548025 0.225349 -0.289868
C4    C     C_3   0.112079 0.787164 0.195001 0.347766
C5    C     C_R   0.447352 0.595615 0.161713 0.043210
C6    C     C_R   0.403725 0.597937 0.066561 -0.143751
C7    C     C_R   0.247891 0.548865 0.033744 -0.006884
C8    C     C_R   0.136804 0.493941 0.097294 -0.029069
C9    C     C_R   0.052596 0.499922 0.901296 -0.025282
C10   C     C_R   0.941558 0.444526 0.964779 -0.001481
C11   C     C_R   0.007612 0.498728 0.803437 0.045120
C12   C     C_3   0.698606 0.861822 0.207128 0.350529
C13   C     C_R   0.854434 0.444881 0.772999 -0.293967
C14   C     C_R   0.741204 0.398467 0.836941 0.011204
C15   C     C_R   0.785294 0.395875 0.932026 -0.144427
C16   C     C_3   0.117987 0.818522 0.092279 -0.395833
C17   C     C_R   0.203905 0.553534 0.937964 -0.035813
C18   C     C_R   0.759726 0.176768 0.540546 -0.271640
C19   C     C_R   0.426609 0.813713 0.464368 -0.286067
C20   C     C_R   0.401862 0.995510 0.432494 -0.099509
C21   C     C_R   0.337030 0.887979 0.427588 0.008331
C22   C     C_R   0.574842 0.846513 0.513781 0.067059
C23   C     C_3   0.475149 0.308003 0.258061 0.308474
C24   C     C_R   0.638992 0.957092 0.523903 -0.053543
C25   C     C_R   0.552123 0.031894 0.480575 -0.060359
C26   C     C_R   0.616304 0.141537 0.488035 0.048092
C27   C     C_R   0.850098 0.104622 0.579423 -0.016622
C28   C     C_3   0.227441 0.763786 0.658260 0.279275
C29   C     C_R   0.788111 0.995541 0.573861 -0.093385
C30   C     C_3   0.238500 0.882997 0.680068 -0.350502
C31   C     C_3   0.975778 0.241460 0.353512 0.291457
C32   C     C_3   0.957516 0.120804 0.339944 -0.381663
C33   C     C_3   0.714876 0.671693 0.737961 0.304760
C34   C     C_3   0.459098 0.285613 0.151828 -0.385300
C35   C     C_3   0.732430 0.694874 0.844144 -0.390688
C36   C     C_3   0.514950 0.863959 0.216805 -0.357108
C37   C     C_3   0.046311 0.195806 0.806768 0.364726
C38   C     C_3   0.060738 0.158825 0.906703 -0.365592
C39   C     C_3   0.541534 0.142013 0.766517 0.346031
C40   C     C_3   0.586648 0.052103 0.824409 -0.413497
C41   C     C_R   0.985425 0.440220 0.060755 -0.037490
H1    H     H_    0.758110 0.866082 0.278266 0.089144
H2    H     H_    0.831437 0.649889 0.710734 0.014435
H3    H     H_    0.613737 0.604342 0.724183 0.066656
H4    H     H_    0.724690 0.033178 0.178780 0.096608
H5    H     H_    0.839207 0.757893 0.860164 0.128136
H6    H     H_    0.751435 0.621980 0.880438 0.067369
H7    H     H_    0.619189 0.722501 0.871687 0.118499
H8    H     H_    0.739277 0.946899 0.076842 0.123858
H9    H     H_    0.355869 0.327006 0.284583 0.010439
H10   H     H_    0.572553 0.377711 0.272022 0.064778
H11   H     H_    0.357741 0.218987 0.135337 0.124588
H12   H     H_    0.317201 0.906132 0.743599 0.116145
H13   H     H_    0.431925 0.357669 0.116707 0.066220
H14   H     H_    0.575820 0.263549 0.123885 0.119195
H15   H     H_    0.907422 0.973602 0.161009 0.139187
H16   H     H_    0.148500 0.751476 0.046269 0.080393
H17   H     H_    0.127354 0.273506 0.801763 0.091360
H18   H     H_    0.916790 0.206772 0.793654 -0.069949
H19   H     H_    0.019910 0.217967 0.957905 0.067021
H20   H     H_    0.982582 0.080432 0.913836 0.107811
H21   H     H_    0.190336 0.150657 0.923441 0.153227
H22   H     H_    0.655085 0.178911 0.731813 -0.053871
H23   H     H_    0.292334 0.928277 0.620194 0.079041
H24   H     H_    0.451081 0.108183 0.710437 0.080159
H25   H     H_    0.682415 0.084570 0.878008 0.111832
H26   H     H_    0.634907 0.991750 0.777541 0.093943
H27   H     H_    0.999974 0.729853 0.205514 0.121314
H28   H     H_    0.477066 0.013317 0.861468 0.128955
H29   H     H_    0.372250 0.547899 0.298920 0.071611
H30   H     H_    0.491854 0.636992 0.018312 0.077283
H31   H     H_    0.696997 0.357189 0.980366 0.071985
H32   H     H_    0.818967 0.444513 0.699287 0.069690
H33   H     H_    0.899675 0.394737 0.106189 0.102235
H34   H     H_    0.113950 0.903633 0.693507 0.140830
H35   H     H_    0.289785 0.599349 0.892900 0.098334
H36   H     H_    0.331164 0.049353 0.399485 0.105933
H37   H     H_    0.859402 0.942598 0.607458 0.102366
H38   H     H_    0.807329 0.261113 0.545966 0.061227
H39   H     H_    0.217266 0.744793 0.208859 -0.031651
H40   H     H_    0.376515 0.729805 0.458342 0.071737
H41   H     H_    0.997550 0.837209 0.068172 0.146979
H42   H     H_    0.212123 0.889497 0.083473 0.118741
H43   H     H_    0.350928 0.744590 0.642026 0.009308
H44   H     H_    0.143225 0.742258 0.596467 0.072718
H45   H     H_    0.861050 0.265512 0.380786 0.002711
H46   H     H_    0.454334 0.845621 0.146676 0.108517
H47   H     H_    0.464678 0.804200 0.267328 0.044031
H48   H     H_    0.489867 0.943153 0.244541 0.096672
H49   H     H_    0.075424 0.265766 0.406282 0.096839
H50   H     H_    0.828294 0.088230 0.321540 0.085810
H51   H     H_    0.989907 0.086116 0.406506 0.113789
H52   H     H_    0.041527 0.097258 0.284626 0.148443
O1    O     O_2   0.887370 0.460630 0.272300 -0.456975
O2    O     O_2   0.189978 0.110437 0.568315 -0.489002
O3    O     O_3   0.094761 0.119119 0.742572 -0.598568
O4    O     O_3   0.129410 0.451380 0.388510 -0.499045
O5    O     O_3   0.575400 0.626570 0.547370 -0.489551
O6    O     O_2   0.344320 0.238700 0.455090 -0.473973
O7    O     O_3   0.516583 0.217339 0.300280 -0.645720
O8    O     O_2   0.404387 0.408744 0.835981 -0.493279
O9    O     O_3   0.469590 0.213450 0.826120 -0.591974
O10   O     O_3   0.670210 0.653170 0.329170 -0.483351
O11   O     O_2   0.768058 0.573417 0.165021 -0.492892
O12   O     O_3   0.680041 0.763737 0.696043 -0.642702
O13   O     O_3   0.011315 0.288456 0.267201 -0.638890
O14   O     O_3   0.730901 0.770550 0.154183 -0.611741
O15   O     O_2   0.845380 0.761330 0.544970 -0.472154
O16   O     O_3   0.088930 0.704860 0.376040 -0.493967
O17   O     O_2   0.995477 0.888617 0.426729 -0.491322
O18   O     O_3   0.114926 0.878583 0.255687 -0.623320
O19   O     O_2   0.302330 0.539400 0.727760 -0.469826
O20   O     O_3   0.060300 0.548700 0.611500 -0.495343
O21   O     O_3   0.519500 0.346920 0.670840 -0.470760
O22   O     O_3   0.170029 0.710689 0.738277 -0.639649
O23   O     O_3   0.614310 0.373510 0.452640 -0.478547
O24   O     O_3   0.100780 0.295230 0.623970 -0.486625
P1    P     P_3+3 0.054400 0.427280 0.286870 0.965696
P2    P     P_3+3 0.668300 0.742890 0.573060 0.970779
P3    P     P_3+3 0.133648 0.842419 0.372944 0.931276
P4    P     P_3+3 0.135310 0.572810 0.713130 0.969376
P5    P     P_3+3 0.057734 0.156107 0.627712 0.940910
P6    P     P_3+3 0.653541 0.649649 0.205011 0.932050
P7    P     P_3+3 0.526731 0.241428 0.422858 0.936311
P8    P     P_3+3 0.533592 0.344264 0.793527 0.958662

loop_
_geom_bond_atom_site_label_1
_geom_bond_atom_site_label_2
_ccdc_geom_bond_type
C12   O14   S    
C13   H32   S    
C4    H39   S    
C9    C11   A    
C39   C40   S    
O13   P1    S    
C32   H50   S    
Ba1   O4    S    
Ba2   O23   S    
C29   H37   S    
C39   H24   S    
O24   P5    S    
O3    P5    S    
C36   H46   S    
C9    C17   A    
C24   C25   A    
C38   H20   S    
C12   H1    S    
C33   C35   S    
C31   H45   S    
C22   C24   A    
C20   H36   S    
O5    P2    S    
C3    H29   S    
O15   P2    D    
C11   P4    S    
C23   O7    S    
C13   C14   A    
C27   P5    S    
C38   H19   S    
Ba1   Ba2   S    
C40   H28   S    
C30   H34   S    
Ba2   O21   S    
C7    C17   A    
O18   P3    S    
C19   H40   S    
C14   C15   A    
O21   P8    S    
C10   C15   A    
C16   H41   S    
C28   H43   S    
O8    P8    D    
C7    C8    A    
C30   H12   S    
O4    P1    S    
Ba2   O5    S    
C24   C29   A    
C18   H38   S    
O16   P3    S    
C40   H25   S    
C31   O13   S    
C37   H18   S    
Ba1   O5    S    
C6    H30   S    
C26   P7    S    
O6    P7    D    
C21   P3    S    
C18   C27   A    
C4    C16   S    
C16   H42   S    
O20   P4    S    
C5    C6    A    
C34   H11   S    
C32   H52   S    
C34   H14   S    
C31   H49   S    
C37   C38   S    
C3    C5    A    
C1    H8    S    
C6    C7    A    
C37   O3    S    
C39   H22   S    
C18   C26   A    
Ba2   O6    S    
Ba2   P4    S    
C36   H48   S    
C40   H26   S    
Ba1   P1    S    
C17   H35   S    
O2    P5    D    
C4    O18   S    
O17   P3    D    
C34   H13   S    
Ba1   O15   S    
C12   C36   S    
C35   H6    S    
Ba2   O20   S    
O11   P6    D    
Ba2   O24   S    
C31   C32   S    
C5    P6    S    
C35   H5    S    
C1    C12   S    
O19   P4    D    
O14   P6    S    
Ba2   O4    S    
C20   C25   A    
C11   C13   A    
C15   H31   S    
O12   P2    S    
C2    C8    A    
C33   H2    S    
C30   H23   S    
C41   H33   S    
C4    H27   S    
C8    C41   A    
O1    P1    D    
C32   H51   S    
C23   H10   S    
C2    C3    A    
O7    P7    S    
C9    C10   A    
C28   O22   S    
C10   C41   A    
O23   P7    S    
C36   H47   S    
C38   H21   S    
C39   O9    S    
O10   P6    S    
C19   C21   A    
O22   P4    S    
C23   H9    S    
C27   C29   A    
Ba1   O16   S    
C28   C30   S    
C35   H7    S    
Ba2   O19   S    
O9    P8    S    
Ba1   O1    S    
C37   H17   S    
C1    H4    S    
C22   P2    S    
Ba1   O23   S    
C14   P8    S    
Ba1   P2    S    
C33   O12   S    
C23   C34   S    
C1    H15   S    
C16   H16   S    
C19   C22   A    
C25   C26   A    
C20   C21   A    
C2    P1    S    
Ba1   O20   S    
C28   H44   S    
C33   H3    S    
Ba1   O10   S    
