data_mof_unit_54519.cif
_audit_creation_date              2012-12-11T15:09:40-0500
_audit_creation_method            fapswitch 2.2
_symmetry_space_group_name_H-M    P1
_symmetry_Int_Tables_number       1
_space_group_crystal_system       triclinic
_cell_length_a                    21.010064
_cell_length_b                    7.126639
_cell_length_c                    14.132356
_cell_angle_alpha                 90.0
_cell_angle_beta                  98.54049
_cell_angle_gamma                 90.000017
_cell_volume                      2092.58921793

loop_
_atom_site_label
_atom_site_type_symbol
_atom_type_description
_atom_site_fract_x
_atom_site_fract_y
_atom_site_fract_z
_atom_type_partial_charge
O1    O     O_R   0.447130 0.507140 0.597350 -0.545830
O2    O     O_R   0.552870 0.007140 0.402650 -0.545830
O3    O     O_R   0.578910 0.181280 0.586990 -0.529103
O4    O     O_R   0.421090 0.681280 0.413010 -0.529103
C1    C     C_R   0.604604 0.344379 0.607174 0.719982
C2    C     C_R   0.395396 0.844379 0.392826 0.719982
O5    O     O_R   0.449230 0.177860 0.608640 -0.538602
O6    O     O_R   0.550770 0.677860 0.391360 -0.538603
O7    O     O_R   0.422260 0.000770 0.424450 -0.542325
O8    O     O_R   0.577740 0.500770 0.575550 -0.542326
C3    C     C_R   0.433555 0.346476 0.634706 0.683620
C4    C     C_R   0.566445 0.846476 0.365294 0.683621
O9    O     O_3   0.491310 0.336980 0.439550 -0.372665
O10   O     O_3   0.508690 0.836980 0.560450 -0.372665
V1    V     V_3+5 0.501610 0.064760 0.511210 1.457962
V2    V     V_3+5 0.498390 0.564760 0.488790 1.457962
C5    C     C_R   0.607293 0.949711 0.120990 -0.066354
C6    C     C_R   0.392707 0.449712 0.879010 -0.066353
H1    H     H_    0.584136 0.010757 0.054719 0.180104
H2    H     H_    0.415864 0.510758 0.945280 0.180104
C7    C     C_R   0.600928 0.859384 0.283526 -0.044680
C8    C     C_R   0.399072 0.359384 0.716473 -0.044680
C9    C     C_R   0.906762 0.812089 0.291410 0.379116
C10   C     C_R   0.093238 0.312089 0.708590 0.379111
C11   C     C_R   0.867305 0.817907 0.364251 0.057339
C12   C     C_R   0.132695 0.317904 0.635749 0.057340
C13   C     C_R   0.805689 0.895946 0.342695 0.081304
C14   C     C_R   0.194311 0.395943 0.657304 0.081305
C15   C     C_R   0.773557 0.884289 0.247598 -0.002020
C16   C     C_R   0.226443 0.384287 0.752401 -0.002020
C17   C     C_R   0.810992 0.889538 0.171369 -0.109007
C18   C     C_R   0.189007 0.389538 0.828631 -0.109006
C19   C     C_R   0.705290 0.876997 0.227837 0.032124
C20   C     C_R   0.294710 0.376996 0.772163 0.032124
C21   C     C_R   0.673585 0.908933 0.134503 -0.051063
C22   C     C_R   0.326415 0.408933 0.865497 -0.051063
C23   C     C_R   0.708514 0.904473 0.057430 0.437072
C24   C     C_R   0.291486 0.404473 0.942570 0.437072
C25   C     C_R   0.776790 0.916732 0.075688 0.000759
C26   C     C_R   0.223210 0.416732 0.924312 0.000758
C27   C     C_R   0.667266 0.829572 0.298618 -0.236332
C28   C     C_R   0.332734 0.329570 0.701382 -0.236332
C29   C     C_R   0.570375 0.924953 0.194371 0.071828
C30   C     C_R   0.429625 0.424954 0.805629 0.071828
C31   C     C_R   0.880085 0.862763 0.195877 -0.215647
C32   C     C_R   0.119914 0.362763 0.804123 -0.215646
H3    H     H_    0.689215 0.777021 0.367737 0.110897
H4    H     H_    0.310785 0.277018 0.632263 0.110897
C33   C     C_1   0.166306 0.856936 0.169117 -0.146392
C34   C     C_1   0.833694 0.356936 0.830883 -0.146392
C35   C     C_1   0.218502 0.854057 0.220662 0.055557
C36   C     C_1   0.781498 0.354057 0.779338 0.055557
C37   C     C_1   0.280245 0.852256 0.280685 0.042858
C38   C     C_1   0.719755 0.352256 0.719315 0.042859
C39   C     C_1   0.332757 0.850457 0.331448 -0.168036
C40   C     C_1   0.667243 0.350457 0.668552 -0.168035
O11   O     O_R   0.922300 0.202240 0.924350 -0.540254
O12   O     O_R   0.077700 0.702240 0.075650 -0.540255
O13   O     O_R   0.050780 0.535130 0.891350 -0.536392
O14   O     O_R   0.949220 0.035130 0.108650 -0.536392
C41   C     C_R   0.075071 0.369512 0.876033 0.835247
C42   C     C_R   0.924929 0.869512 0.123967 0.835248
O15   O     O_R   0.921100 0.531560 0.912990 -0.547539
O16   O     O_R   0.078900 0.031560 0.087010 -0.547538
O17   O     O_R   0.947120 0.708470 0.097370 -0.515490
O18   O     O_R   0.052880 0.208470 0.902630 -0.515490
C43   C     C_R   0.895816 0.363575 0.893541 0.784807
C44   C     C_R   0.104183 0.863575 0.106459 0.784806
O19   O     O_3   0.008710 0.375800 0.060400 -0.380798
O20   O     O_3   0.991290 0.875800 0.939600 -0.380798
V3    V     V_3+5 0.998380 0.648080 0.988790 1.532649
V4    V     V_3+5 0.001620 0.148080 0.011210 1.532649
C45   C     C_3   0.499229 0.970589 0.174635 -0.369635
C46   C     C_3   0.462864 0.832090 0.103724 -0.600941
H5    H     H_    0.480405 0.839411 0.033462 0.224694
H6    H     H_    0.469071 0.686785 0.132086 0.244955
H7    H     H_    0.410762 0.866923 0.092655 0.262785
H8    H     H_    0.476288 0.969385 0.240343 0.178061
H9    H     H_    0.493687 0.114766 0.145226 0.233082
C47   C     C_3   0.500771 0.470591 0.825364 -0.369634
C48   C     C_3   0.537136 0.332092 0.896276 -0.600940
H10   H     H_    0.519595 0.339414 0.966538 0.224694
H11   H     H_    0.530929 0.186787 0.867914 0.244955
H12   H     H_    0.589238 0.366926 0.907344 0.262785
H13   H     H_    0.523711 0.469386 0.759656 0.178061
H14   H     H_    0.506313 0.614768 0.854774 0.233082
S1    S     S_3+6 0.667558 0.854168 0.938942 -0.064191
O21   O     O_2   0.599800 0.788681 0.940026 -0.373771
O22   O     O_2   0.666116 0.026078 0.877052 -0.366450
O23   O     O_3   0.705186 0.679398 0.890023 -0.517594
H15   H     H_    0.683678 0.672832 0.822832 0.358795
S2    S     S_3+6 0.332442 0.354169 0.061058 -0.064191
O24   O     O_2   0.400199 0.288682 0.059974 -0.373772
O25   O     O_2   0.333884 0.526079 0.122948 -0.366450
O26   O     O_3   0.294814 0.179398 0.109976 -0.517594
H16   H     H_    0.316323 0.172829 0.177168 0.358796
S3    S     S_3+6 0.989962 0.747236 0.318931 -0.048003
O27   O     O_2   0.998463 0.553814 0.280401 -0.324632
O28   O     O_2   0.030743 0.881702 0.272170 -0.371301
O29   O     O_3   0.017498 0.746810 0.436507 -0.539912
H17   H     H_    0.041278 0.866120 0.448588 0.345464
S4    S     S_3+6 0.010037 0.247237 0.681068 -0.048002
O30   O     O_2   0.001536 0.053814 0.719598 -0.324632
O31   O     O_2   0.969256 0.381703 0.727831 -0.371299
O32   O     O_3   0.982501 0.246813 0.563493 -0.539909
H18   H     H_    0.958727 0.366132 0.551411 0.345464
C49   C     C_3   0.780590 0.021771 0.416466 -0.345026
C50   C     C_3   0.822855 0.195674 0.437981 -0.725134
H19   H     H_    0.873768 0.157238 0.460565 0.266078
H20   H     H_    0.819855 0.285295 0.373117 0.223140
H21   H     H_    0.805990 0.278188 0.496138 0.213599
H22   H     H_    0.732131 0.078773 0.390451 0.188336
H23   H     H_    0.776897 0.942312 0.482864 0.175711
C51   C     C_3   0.219410 0.521766 0.583533 -0.345023
C52   C     C_3   0.177145 0.695669 0.562017 -0.725140
H24   H     H_    0.126232 0.657232 0.539434 0.266075
H25   H     H_    0.180145 0.785293 0.626880 0.223140
H26   H     H_    0.194009 0.778180 0.503859 0.213600
H27   H     H_    0.267869 0.578769 0.609548 0.188336
H28   H     H_    0.223103 0.442306 0.517136 0.175711
C53   C     C_3   0.881893 0.701913 0.455265 -0.373423
C54   C     C_3   0.910393 0.813373 0.544013 -0.519080
H29   H     H_    0.934706 0.715821 0.599132 0.237844
H30   H     H_    0.945980 0.916983 0.526734 0.285377
H31   H     H_    0.872442 0.888106 0.575737 0.209734
H32   H     H_    0.837026 0.632787 0.470373 0.155027
H33   H     H_    0.914168 0.584138 0.443543 0.226669
C55   C     C_3   0.118107 0.201909 0.544735 -0.373423
C56   C     C_3   0.089608 0.313367 0.455986 -0.519088
H34   H     H_    0.065295 0.215814 0.400868 0.237845
H35   H     H_    0.054021 0.416979 0.473264 0.285374
H36   H     H_    0.127559 0.388097 0.424263 0.209734
H37   H     H_    0.162973 0.132780 0.529629 0.155028
H38   H     H_    0.085831 0.084135 0.556457 0.226670
C57   C     C_3   0.808122 0.002089 0.996427 -0.355278
C58   C     C_3   0.828485 0.856106 0.927692 -0.553435
H39   H     H_    0.826261 0.712052 0.956833 0.218191
H40   H     H_    0.877704 0.883184 0.914271 0.214903
H41   H     H_    0.797606 0.865693 0.857009 0.238934
H42   H     H_    0.775046 0.103806 0.955128 0.216039
H43   H     H_    0.847233 0.095682 0.026782 0.155695
C59   C     C_3   0.191878 0.502089 0.003573 -0.355278
C60   C     C_3   0.171514 0.356107 0.072307 -0.553434
H44   H     H_    0.173739 0.212052 0.043167 0.218191
H45   H     H_    0.122296 0.383184 0.085729 0.214903
H46   H     H_    0.202394 0.365694 0.142991 0.238935
H47   H     H_    0.224954 0.603806 0.044872 0.216039
H48   H     H_    0.152767 0.595682 0.973218 0.155695

loop_
_geom_bond_atom_site_label_1
_geom_bond_atom_site_label_2
_ccdc_geom_bond_type
C29   C45   S    
C60   H46   S    
C24   C26   A    
S1    O21   D    
C9    C31   A    
C33   C44   S    
C26   C59   S    
C13   C15   A    
C49   H22   S    
C1    C40   S    
O26   H16   S    
O1    C3    A    
C2    C39   S    
O2    C4    A    
C55   C56   S    
C48   H12   S    
C2    O7    A    
C51   C52   S    
C57   C58   S    
C25   C57   S    
O5    C3    A    
C46   H6    S    
O16   C44   A    
S2    O24   D    
C21   C23   A    
C10   C12   A    
C53   H33   S    
C6    C30   A    
O12   V3    S    
O14   V4    S    
C60   H44   S    
C24   S2    S    
C31   C42   S    
C50   H19   S    
S4    O32   S    
O14   C42   A    
C45   C46   S    
O19   V3    S    
C49   H23   S    
C47   H14   S    
S3    O28   D    
C7    C29   A    
C41   O18   A    
O18   V4    S    
C15   C19   A    
C17   C25   A    
C33   C35   T    
C46   H7    S    
C20   C28   A    
C34   C36   T    
C49   C50   S    
O20   V3    S    
C34   C43   S    
C6    H2    S    
C51   H27   S    
S1    O23   S    
C56   H36   S    
O5    V1    S    
O6    V2    S    
O11   C43   A    
C58   H41   S    
C48   H11   S    
C36   C38   S    
S3    O27   D    
O15   C43   A    
C37   C39   T    
C27   H3    S    
C57   H42   S    
C38   C40   T    
O13   C41   A    
C46   H5    S    
C16   C20   A    
C32   C41   S    
C59   H48   S    
C30   C47   S    
C58   H40   S    
C58   H39   S    
C28   H4    S    
C52   H25   S    
O17   V3    S    
C45   H8    S    
C4    C7    S    
S2    O26   S    
C48   H10   S    
C35   C37   S    
O4    V2    S    
O19   V4    S    
C5    C29   A    
C47   H13   S    
C55   H38   S    
C13   C49   S    
O6    C4    A    
C52   H26   S    
S2    O25   D    
C45   H9    S    
O1    V2    S    
C12   C55   S    
S4    O31   D    
O2    V1    S    
C53   C54   S    
C14   C51   S    
C7    C27   A    
O12   C44   A    
C9    S3    S    
O15   V3    S    
C18   C26   A    
S1    O22   D    
C57   H43   S    
O4    C2    A    
C54   H30   S    
S3    O29   S    
O3    V1    S    
C56   H34   S    
C60   H45   S    
C8    C30   A    
C42   O17   A    
C59   C60   S    
C18   C32   A    
C59   H47   S    
C23   S1    S    
C47   C48   S    
O3    C1    A    
C11   C13   A    
O32   H18   S    
C3    C8    S    
C12   C14   A    
C50   H21   S    
C19   C27   A    
C54   H31   S    
C22   C24   A    
O7    V1    S    
C10   C32   A    
C1    O8    A    
C15   C17   A    
O8    V2    S    
C55   H37   S    
C16   C18   A    
O23   H15   S    
C8    C28   A    
C11   C53   S    
C14   C16   A    
O29   H17   S    
C19   C21   A    
C20   C22   A    
C50   H20   S    
C10   S4    S    
O16   V4    S    
O11   V4    S    
S4    O30   D    
C5    H1    S    
C53   H32   S    
C9    C11   A    
C23   C25   A    
C17   C31   A    
O9    V2    S    
O10   V1    S    
O20   V4    S    
C5    C21   A    
C54   H29   S    
C6    C22   A    
C51   H28   S    
C52   H24   S    
O13   V3    S    
C56   H35   S    
