data_mof_unit_55118.cif
_audit_creation_date              2012-12-10T16:57:51-0500
_audit_creation_method            fapswitch 2.2
_symmetry_space_group_name_H-M    P1
_symmetry_Int_Tables_number       1
_space_group_crystal_system       triclinic
_cell_length_a                    10.636977
_cell_length_b                    10.942463
_cell_length_c                    9.719843
_cell_angle_alpha                 89.863684
_cell_angle_beta                  89.727443
_cell_angle_gamma                 89.82482
_cell_volume                      1131.3172235

loop_
_atom_site_label
_atom_site_type_symbol
_atom_type_description
_atom_site_fract_x
_atom_site_fract_y
_atom_site_fract_z
_atom_type_partial_charge
C1    C     C_R   0.507939 0.266180 0.499840 0.846555
C2    C     C_3   0.960302 0.511934 0.369279 -0.154694
C3    C     C_3   0.042386 0.404452 0.423221 -0.269605
C4    C     C_3   0.123084 0.497980 0.501439 -0.111379
C5    C     C_2   0.518972 0.934423 0.409942 -0.305210
C6    C     C_2   0.457704 0.862924 0.498773 0.249641
C7    C     C_2   0.486727 0.063857 0.405938 0.395400
C8    C     C_2   0.541329 0.137881 0.497784 0.244566
C9    C     C_2   0.501699 0.402808 0.926277 0.392077
C10   C     C_2   0.538220 0.410306 0.076374 0.414157
C11   C     C_R   0.259593 0.498777 0.500465 0.805166
C12   C     C_R   0.489112 0.733590 0.500159 0.751574
C13   C     C_R   0.740384 0.500327 0.499622 0.852482
C14   C     C_3   0.038437 0.487340 0.628248 0.395632
C15   C     C_3   0.957774 0.395932 0.551567 0.445885
C16   C     C_3   0.876851 0.500868 0.498779 -0.058001
C17   C     C_3   0.957275 0.594458 0.576945 -0.303715
C18   C     C_3   0.043103 0.605282 0.447395 -0.214988
Cu1   Cu    Cu3+1 0.500030 0.500020 0.638630 0.968707
Cu2   Cu    Cu3+1 0.499970 0.499980 0.361370 1.002640
H1    H     H_    0.524447 0.579851 0.891983 0.140254
H2    H     H_    0.439843 0.561524 0.107131 0.132957
H3    H     H_    0.921043 0.671290 0.640287 0.154115
H4    H     H_    0.081481 0.691465 0.404000 0.167917
H5    H     H_    0.925525 0.522969 0.262443 0.172543
H6    H     H_    0.078807 0.326307 0.362060 0.171989
H7    H     H_    0.599816 0.901689 0.351746 0.134045
N1    N     N_2   0.498620 0.498660 0.846910 -0.329422
N2    N     N_2   0.498590 0.498630 0.153040 -0.306374
O1    O     O_R   0.500020 0.321960 0.617040 -0.549853
O2    O     O_R   0.499980 0.321920 0.382900 -0.502371
O3    O     O_R   0.316870 0.499990 0.617050 -0.588082
O4    O     O_R   0.316830 0.499950 0.382910 -0.572540
O5    O     O_R   0.500020 0.678080 0.617100 -0.606792
O6    O     O_R   0.499980 0.678040 0.382960 -0.590942
O7    O     O_R   0.683170 0.500050 0.617090 -0.561223
O8    O     O_R   0.683130 0.500010 0.382950 -0.558194
O9    O     O_3   0.909493 0.287951 0.607540 -0.712692
H8    H     H_    0.983971 0.238219 0.632785 0.323044
O10   O     O_3   0.650729 0.102989 0.565036 -0.611695
C19   C     C_3   0.622645 0.055196 0.696645 0.063971
H9    H     H_    0.623245 0.954023 0.689786 0.131458
H10   H     H_    0.530165 0.086112 0.738456 0.149026
C20   C     C_3   0.725049 0.093155 0.797375 -0.232642
H11   H     H_    0.818793 0.067667 0.755079 0.230840
H12   H     H_    0.722182 0.193939 0.811192 0.260364
C21   C     C_3   0.707321 0.030635 0.936716 -0.966951
H13   H     H_    0.779855 0.063526 0.009468 0.270645
H14   H     H_    0.717295 0.930033 0.925764 0.253973
H15   H     H_    0.612810 0.051680 0.979795 0.267460
O11   O     O_3   0.477123 0.288560 0.873137 -0.605976
C22   C     C_3   0.345678 0.268293 0.873376 0.081525
H16   H     H_    0.322576 0.215523 0.779377 0.160336
H17   H     H_    0.288305 0.353881 0.868309 0.180173
C23   C     C_3   0.307702 0.192526 0.999293 -0.397064
H18   H     H_    0.364117 0.106856 0.001837 0.221698
H19   H     H_    0.327084 0.245223 0.094355 0.263049
C24   C     C_3   0.168280 0.160201 0.996004 -0.885086
H20   H     H_    0.110015 0.244650 0.996275 0.281469
H21   H     H_    0.143863 0.105000 0.088291 0.262514
H22   H     H_    0.146636 0.105940 0.902629 0.250708
O12   O     O_3   0.607872 0.318130 0.136093 -0.669137
H23   H     H_    0.635975 0.261883 0.062490 0.328239
O13   O     O_3   0.078879 0.469456 0.763453 -0.744998
H24   H     H_    0.116310 0.548153 0.791708 0.323081
O14   O     O_3   0.347338 0.905874 0.560187 -0.609949
C25   C     C_3   0.347277 0.891031 0.704874 0.047892
H25   H     H_    0.331276 0.982375 0.751364 0.143340
H26   H     H_    0.437118 0.856398 0.748561 0.133443
C26   C     C_3   0.238476 0.808392 0.748205 -0.314497
H27   H     H_    0.148081 0.850479 0.715700 0.216264
H28   H     H_    0.247938 0.718699 0.696385 0.230228
C27   C     C_3   0.236339 0.788966 0.903793 -0.934969
H29   H     H_    0.323092 0.740795 0.937261 0.250103
H30   H     H_    0.153761 0.732644 0.932945 0.253690
H31   H     H_    0.229293 0.878058 0.957853 0.262051
O15   O     O_3   0.386923 0.104644 0.327270 -0.745433
H32   H     H_    0.357035 0.035266 0.270749 0.335591

loop_
_geom_bond_atom_site_label_1
_geom_bond_atom_site_label_2
_ccdc_geom_bond_type
C23   H18   S    
H2    N2    S    
C2    C18   S    
C1    C8    S    
C27   H30   S    
C19   H9    S    
Cu1   Cu2   S    
C9    O11   S    
C7    C8    D    
C21   H14   S    
O15   H32   S    
C22   H16   S    
C17   H3    S    
C18   H4    S    
Cu1   O7    S    
C6    C12   S    
C5    C6    D    
C24   H21   S    
C15   C16   S    
C1    O2    A    
C27   H29   S    
C5    H7    S    
Cu2   O6    S    
C22   H17   S    
C16   C17   S    
C26   H27   S    
C2    C16   S    
C9    C10   S    
C13   O8    A    
C20   C21   S    
C7    O15   S    
C4    C18   S    
C24   H22   S    
O14   C25   S    
C19   H10   S    
C14   C17   S    
C10   O12   S    
Cu1   O3    S    
C20   H12   S    
C21   H15   S    
Cu2   N2    S    
C12   O6    A    
O11   C22   S    
C11   O4    A    
C13   O7    A    
C5    C7    S    
C24   H20   S    
C25   H25   S    
C25   H26   S    
C15   O9    S    
O12   H23   S    
C21   H13   S    
C14   O13   S    
C26   C27   S    
C17   C18   S    
C4    C11   S    
Cu1   N1    S    
Cu2   O4    S    
O10   C19   S    
H1    N1    S    
C11   O3    A    
C23   H19   S    
C27   H31   S    
C13   C16   S    
C12   O5    A    
C3    C4    S    
C3    C15   S    
C20   H11   S    
C3    H6    S    
Cu1   O5    S    
C22   C23   S    
C25   C26   S    
O13   H24   S    
C2    C3    S    
Cu2   O8    S    
C10   N2    D    
O9    H8    S    
C1    O1    A    
C19   C20   S    
C2    H5    S    
C4    C14   S    
C6    O14   S    
C23   C24   S    
C14   C15   S    
C26   H28   S    
C8    O10   S    
Cu1   O1    S    
C9    N1    D    
Cu2   O2    S    
