data_mof_unit_8807.cif
_audit_creation_date              2012-10-26T19:02:55-0400
_audit_creation_method            fapswitch 2.2
_symmetry_space_group_name_H-M    P1
_symmetry_Int_Tables_number       1
_space_group_crystal_system       triclinic
_cell_length_a                    15.035598
_cell_length_b                    11.026163
_cell_length_c                    9.820544
_cell_angle_alpha                 111.091675
_cell_angle_beta                  97.483853
_cell_angle_gamma                 91.343444
_cell_volume                      1501.7283537

loop_
_atom_site_label
_atom_site_type_symbol
_atom_type_description
_atom_site_fract_x
_atom_site_fract_y
_atom_site_fract_z
_atom_type_partial_charge
C1    C     C_R   0.493954 0.254145 0.440636 0.553294
C2    C     C_2   0.491878 0.489890 0.918950 -0.021361
C3    C     C_R   0.329173 0.495472 0.501154 0.543625
C4    C     C_R   0.670867 0.502872 0.498614 0.540895
C5    C     C_R   0.813600 0.606498 0.467887 -0.018825
C6    C     C_R   0.186887 0.393797 0.535524 -0.016977
C7    C     C_R   0.767112 0.506510 0.495642 0.003817
C8    C     C_R   0.233177 0.492713 0.505633 0.005553
C9    C     C_R   0.812449 0.408363 0.525986 -0.142055
C10   C     C_R   0.187941 0.591330 0.476119 -0.141882
C11   C     C_R   0.904672 0.405023 0.527745 0.009158
C12   C     C_R   0.506891 0.745872 0.559300 0.550582
C13   C     C_R   0.095895 0.595652 0.476237 0.008963
C14   C     C_R   0.953303 0.502573 0.500630 0.047064
C15   C     C_R   0.047267 0.498187 0.503486 0.046702
C16   C     C_R   0.908326 0.604579 0.471442 0.027757
C17   C     C_R   0.092280 0.396435 0.533184 0.027499
C18   C     C_R   0.948685 0.304920 0.556667 -0.137691
C19   C     C_R   0.052093 0.696873 0.449555 -0.137445
C20   C     C_3   0.762942 0.715373 0.439454 -0.246633
C21   C     C_3   0.750426 0.695957 0.275068 -0.295227
C22   C     C_3   0.703618 0.808242 0.247912 -0.460958
C23   C     C_R   0.041051 0.300338 0.559303 -0.138395
C24   C     C_3   0.237192 0.285042 0.565247 -0.259551
C25   C     C_3   0.225161 0.159366 0.427415 -0.302315
C26   C     C_3   0.252904 0.042184 0.466386 -0.457569
C27   C     C_R   0.959826 0.702058 0.448190 -0.138210
C28   C     C_2   0.491186 0.114744 0.407121 -0.136906
C29   C     C_2   0.512575 0.885302 0.592558 -0.138785
C30   C     C_2   0.507116 0.069609 0.516026 -0.176643
C31   C     C_2   0.500961 0.930450 0.483242 -0.177459
C32   C     C_2   0.505162 0.513780 0.081616 -0.026585
Cu1   Cu    Cu3+1 0.515770 0.521810 0.644910 0.924401
Cu2   Cu    Cu3+1 0.484230 0.478190 0.355090 0.925955
H1    H     H_    0.775060 0.333357 0.547501 0.111593
H2    H     H_    0.475316 0.048521 0.292790 0.103790
H3    H     H_    0.440537 0.416074 0.846141 0.138749
H4    H     H_    0.553565 0.591217 0.155111 0.144214
H5    H     H_    0.587589 0.624306 0.934251 0.201204
H6    H     H_    0.414982 0.372003 0.065006 0.201064
H7    H     H_    0.744020 0.902049 0.311041 0.157026
H8    H     H_    0.696208 0.792476 0.128706 0.135868
H9    H     H_    0.635831 0.813984 0.281935 0.153003
H10   H     H_    0.816147 0.689427 0.233989 0.164580
H11   H     H_    0.709804 0.602833 0.210119 0.171275
H12   H     H_    0.225284 0.666046 0.454026 0.111403
H13   H     H_    0.695751 0.721082 0.475474 0.155968
H14   H     H_    0.798769 0.811546 0.508039 0.128296
H15   H     H_    0.322219 0.061151 0.527869 0.170385
H16   H     H_    0.206126 0.021799 0.535595 0.143160
H17   H     H_    0.250555 0.954922 0.363839 0.147434
H18   H     H_    0.154049 0.139505 0.372766 0.167906
H19   H     H_    0.267235 0.171009 0.347172 0.168438
H20   H     H_    0.310224 0.311736 0.600329 0.159666
H21   H     H_    0.214618 0.268453 0.660805 0.132198
H22   H     H_    0.911438 0.229406 0.577169 0.106632
H23   H     H_    0.089432 0.772814 0.429909 0.105757
H24   H     H_    0.070778 0.219788 0.581138 0.114434
H25   H     H_    0.930299 0.783532 0.428296 0.110482
H26   H     H_    0.485903 0.864579 0.368602 0.154477
H27   H     H_    0.523030 0.135523 0.630552 0.157839
H28   H     H_    0.526812 0.951501 0.707088 0.104025
N1    N     N_2   0.460520 0.445420 0.137370 -0.351285
N2    N     N_2   0.539480 0.554580 0.862630 -0.351548
O1    O     O_R   0.508410 0.332340 0.577400 -0.502696
O2    O     O_R   0.491590 0.667660 0.422600 -0.501150
O3    O     O_R   0.481780 0.295500 0.332650 -0.491160
O4    O     O_R   0.518220 0.704500 0.667350 -0.488900
O5    O     O_R   0.383570 0.518390 0.622380 -0.502253
O6    O     O_R   0.616430 0.481610 0.377620 -0.495715
O7    O     O_R   0.356940 0.481550 0.377630 -0.488891
O8    O     O_R   0.643060 0.518450 0.622370 -0.491060

loop_
_geom_bond_atom_site_label_1
_geom_bond_atom_site_label_2
_ccdc_geom_bond_type
C31   H26   S    
Cu2   O3    S    
C1    C28   S    
C1    O1    A    
C24   C25   S    
C5    C7    A    
C11   C18   A    
C10   H12   S    
C32   H4    S    
C12   C29   S    
C23   H24   S    
C21   H10   S    
C9    C11   A    
Cu2   O6    S    
C3    O7    A    
C22   H9    S    
Cu1   O5    S    
C6    C24   S    
C7    C9    A    
Cu2   O2    S    
C16   C27   A    
C4    O6    A    
Cu1   Cu2   S    
C25   H18   S    
Cu1   O1    S    
C29   C31   D    
C5    C20   S    
C27   H25   S    
C21   C22   S    
C19   H23   S    
C24   H21   S    
H5    N2    S    
C12   O4    A    
C2    H3    S    
C17   C23   A    
H6    N1    S    
C12   O2    A    
C4    C7    S    
C28   C30   D    
Cu2   N1    S    
C1    O3    A    
C2    N2    D    
C26   H17   S    
C21   H11   S    
C13   C15   A    
C30   C31   S    
C11   C14   A    
C14   C16   A    
C26   H16   S    
C20   H13   S    
C13   C19   A    
C9    H1    S    
C18   C23   A    
C22   H7    S    
Cu1   N2    S    
C4    O8    A    
C19   C27   A    
C20   C21   S    
C28   H2    S    
C2    C32   S    
C3    C8    S    
C30   H27   S    
C22   H8    S    
C15   C17   A    
C6    C17   A    
C29   H28   S    
C18   H22   S    
C5    C16   A    
C6    C8    A    
C20   H14   S    
Cu1   O8    S    
C3    O5    A    
C25   C26   S    
C14   C15   A    
C24   H20   S    
Cu2   O7    S    
C8    C10   A    
C32   N1    D    
C25   H19   S    
Cu1   O4    S    
C10   C13   A    
C26   H15   S    
