data_mof_unit_52028.cif
_audit_creation_date              2012-10-26T21:21:59-0400
_audit_creation_method            fapswitch 2.2
_symmetry_space_group_name_H-M    P1
_symmetry_Int_Tables_number       1
_space_group_crystal_system       triclinic
_cell_length_a                    17.748443
_cell_length_b                    18.907127
_cell_length_c                    11.841979
_cell_angle_alpha                 90.016495
_cell_angle_beta                  73.521574
_cell_angle_gamma                 90.022456
_cell_volume                      3810.618025

loop_
_atom_site_label
_atom_site_type_symbol
_atom_type_description
_atom_site_fract_x
_atom_site_fract_y
_atom_site_fract_z
_atom_type_partial_charge
C1    C     C_R   0.403751 0.104094 0.521778 0.527236
C2    C     C_R   0.461868 0.996973 0.040766 -0.042113
C3    C     C_R   0.038162 0.497015 0.959220 -0.040566
C4    C     C_R   0.961855 0.497058 0.040773 -0.041654
C5    C     C_R   0.406623 0.002567 0.870436 0.177826
C6    C     C_R   0.593371 0.002758 0.129598 0.179326
C7    C     C_R   0.906625 0.502649 0.870415 0.178100
C8    C     C_R   0.093371 0.502750 0.129599 0.179594
C9    C     C_R   0.395929 0.996317 0.993548 -0.004034
C10   C     C_R   0.604114 0.996664 0.006446 -0.003837
C11   C     C_R   0.895910 0.496521 0.993550 -0.002643
C12   C     C_R   0.598229 0.897084 0.477202 0.626449
C13   C     C_R   0.104108 0.496608 0.006458 -0.001600
C14   C     C_R   0.545431 0.997343 0.833943 0.152204
C15   C     C_R   0.454581 0.997331 0.166034 0.151482
C16   C     C_R   0.045424 0.497195 0.833950 0.146901
C17   C     C_R   0.954577 0.497379 0.166039 0.152153
C18   C     C_R   0.646546 0.168023 0.464701 -0.047026
C19   C     C_R   0.349430 0.834323 0.539173 0.058567
C20   C     C_R   0.353017 0.167624 0.535517 -0.044694
C21   C     C_R   0.650722 0.834447 0.460744 0.058071
C22   C     C_R   0.146489 0.668026 0.464583 -0.048640
C23   C     C_R   0.596124 0.104203 0.478298 0.522250
C24   C     C_R   0.849947 0.333995 0.538937 0.039097
C25   C     C_R   0.853426 0.667966 0.535455 -0.047865
C26   C     C_R   0.150839 0.334603 0.460820 0.005132
C27   C     C_R   0.243717 0.761826 0.661200 0.062779
C28   C     C_R   0.752673 0.239863 0.342508 0.004092
C29   C     C_R   0.756721 0.762277 0.338684 0.062195
C30   C     C_R   0.245672 0.238235 0.657476 0.047973
C31   C     C_R   0.744350 0.261493 0.661120 0.068676
C32   C     C_R   0.252743 0.739783 0.342482 0.005640
C33   C     C_R   0.256526 0.262099 0.338548 0.064764
C34   C     C_R   0.401819 0.897048 0.522770 0.627613
C35   C     C_R   0.747031 0.739571 0.657520 0.005437
C36   C     C_R   0.303164 0.812352 0.652087 0.180310
C37   C     C_R   0.687720 0.194779 0.353160 0.264683
C38   C     C_R   0.697216 0.812706 0.347839 0.179227
C39   C     C_R   0.311008 0.193741 0.647111 0.248783
C40   C     C_R   0.804180 0.311663 0.651850 0.165662
C41   C     C_R   0.187803 0.694692 0.353029 0.264968
C42   C     C_R   0.197345 0.312881 0.347822 0.194393
C43   C     C_R   0.811948 0.694501 0.647025 0.265227
C44   C     C_R   0.345393 0.794485 0.440185 -0.040553
C45   C     C_R   0.903847 0.604173 0.521751 0.526304
C46   C     C_R   0.652828 0.204754 0.564868 -0.014465
C47   C     C_R   0.654627 0.794472 0.559637 -0.040022
C48   C     C_R   0.347069 0.204550 0.435420 -0.020363
C49   C     C_R   0.845599 0.294429 0.439846 -0.037813
C50   C     C_R   0.152569 0.704873 0.564701 -0.013714
C51   C     C_R   0.154165 0.294143 0.559307 -0.039000
C52   C     C_R   0.847517 0.704943 0.435371 -0.014216
C53   C     C_R   0.274816 0.758005 0.445523 -0.102520
C54   C     C_R   0.723171 0.241791 0.558292 0.025287
C55   C     C_R   0.725172 0.757984 0.554393 -0.102478
C56   C     C_R   0.098010 0.396948 0.477306 0.572649
C57   C     C_R   0.276736 0.241406 0.441577 0.013913
C58   C     C_R   0.774965 0.257964 0.445429 -0.099479
C59   C     C_R   0.222848 0.741932 0.558272 0.024122
C60   C     C_R   0.224184 0.256768 0.554124 -0.040571
C61   C     C_R   0.777324 0.742098 0.441692 0.023701
C62   C     C_2   0.663792 0.014637 0.172626 0.383813
C63   C     C_2   0.336124 0.014260 0.827510 0.386355
C64   C     C_2   0.163793 0.514654 0.172628 0.383357
C65   C     C_2   0.836138 0.514243 0.827435 0.385343
C66   C     C_2   0.377107 0.000896 0.253874 0.285031
C67   C     C_R   0.096120 0.604192 0.478269 0.527540
C68   C     C_2   0.622899 0.000506 0.746034 0.284645
C69   C     C_2   0.877110 0.500860 0.253902 0.285524
C70   C     C_2   0.122923 0.499777 0.746014 0.289302
C71   C     C_2   0.579422 0.218624 0.662083 0.290372
C72   C     C_2   0.419074 0.776825 0.345581 0.280855
C73   C     C_2   0.420742 0.218836 0.338923 0.289673
C74   C     C_2   0.580849 0.776674 0.653964 0.281284
C75   C     C_2   0.079057 0.718769 0.661700 0.292981
C76   C     C_2   0.919126 0.276934 0.344816 0.276352
C77   C     C_2   0.921131 0.718885 0.338597 0.291384
C78   C     C_R   0.902073 0.396884 0.522679 0.602303
C79   C     C_2   0.079392 0.278567 0.652780 0.266692
C80   C     C_2   0.708780 0.227111 0.777291 0.369431
C81   C     C_2   0.292296 0.773014 0.226761 0.315637
C82   C     C_2   0.292487 0.228130 0.222095 0.368362
C83   C     C_2   0.707286 0.772579 0.773367 0.315088
C84   C     C_2   0.208226 0.727228 0.777246 0.366628
C85   C     C_2   0.792030 0.273184 0.226786 0.316760
C86   C     C_2   0.792578 0.728119 0.222376 0.367247
C87   C     C_2   0.204649 0.270241 0.773704 0.397003
C88   C     C_2   0.314478 0.984417 0.068273 0.326954
C89   C     C_R   0.538171 0.997064 0.959211 -0.041914
C90   C     C_2   0.685672 0.985404 0.931660 0.327597
C91   C     C_2   0.814399 0.484959 0.068317 0.325749
C92   C     C_2   0.185670 0.485385 0.931675 0.326355
Cl1   Cl    Cl    0.646664 0.186303 0.233665 -0.460864
Cl2   Cl    Cl    0.324051 0.840046 0.783349 -0.502914
Cl3   Cl    Cl    0.351526 0.185578 0.767178 -0.469308
Cl4   Cl    Cl    0.676513 0.840511 0.216522 -0.504252
Cl5   Cl    Cl    0.146893 0.686167 0.233400 -0.460783
Cl6   Cl    Cl    0.826592 0.338169 0.782616 -0.543565
Cl7   Cl    Cl    0.852623 0.685859 0.766873 -0.458656
Cl8   Cl    Cl    0.177067 0.341117 0.216422 -0.502236
Cu1   Cu    Cu3+1 0.507800 0.000000 0.383250 1.047280
Cu2   Cu    Cu3+1 0.492200 0.000000 0.616750 1.046918
Cu3   Cu    Cu3+1 0.007800 0.500000 0.383250 1.048384
Cu4   Cu    Cu3+1 0.992200 0.500000 0.616750 1.005392
H1    H     H_    0.668207 0.993826 0.254487 0.172325
H2    H     H_    0.417682 0.742073 0.273580 0.139846
H3    H     H_    0.471161 0.184291 0.323354 0.177363
H4    H     H_    0.582117 0.741766 0.725796 0.139859
H5    H     H_    0.028511 0.684379 0.676659 0.176624
H6    H     H_    0.917596 0.242177 0.272886 0.146656
H7    H     H_    0.971449 0.684224 0.323147 0.176309
H8    H     H_    0.028391 0.312354 0.666516 0.177415
H9    H     H_    0.698802 0.256916 0.858460 0.217984
H10   H     H_    0.316622 0.825626 0.223647 0.176757
H11   H     H_    0.303246 0.258323 0.141227 0.213680
H12   H     H_    0.331925 0.993880 0.745261 0.173737
H13   H     H_    0.683046 0.825217 0.776727 0.176925
H14   H     H_    0.198170 0.756865 0.858585 0.216593
H15   H     H_    0.816244 0.325834 0.223677 0.177115
H16   H     H_    0.803221 0.758173 0.141381 0.216068
H17   H     H_    0.179640 0.322631 0.777833 0.167244
H18   H     H_    0.282657 0.026485 0.124140 0.169947
H19   H     H_    0.717034 0.027647 0.875729 0.170645
H20   H     H_    0.782828 0.527130 0.124198 0.168506
H21   H     H_    0.217005 0.527651 0.875768 0.168466
H22   H     H_    0.168143 0.493975 0.254606 0.175078
H23   H     H_    0.831751 0.493410 0.745568 0.177824
H24   H     H_    0.351964 0.051603 0.286048 0.161046
H25   H     H_    0.648170 0.051033 0.713065 0.160317
H26   H     H_    0.851945 0.551529 0.286240 0.159460
H27   H     H_    0.148484 0.550090 0.712298 0.162100
H28   H     H_    0.528829 0.184274 0.677152 0.176092
N1    N     N_R   0.519530 0.000000 0.207810 -0.277593
N2    N     N_R   0.480470 0.000000 0.792190 -0.277844
N3    N     N_R   0.019530 0.500000 0.207810 -0.277105
N4    N     N_R   0.980470 0.500000 0.792190 -0.283089
O1    O     O_R   0.430030 0.075530 0.417420 -0.556557
O2    O     O_R   0.583140 0.924490 0.385390 -0.482919
O3    O     O_R   0.583140 0.075510 0.385390 -0.498153
O4    O     O_R   0.416860 0.924490 0.614610 -0.483230
O5    O     O_R   0.916860 0.575510 0.614610 -0.491330
O6    O     O_R   0.083140 0.424490 0.385390 -0.465241
O7    O     O_R   0.083140 0.575510 0.385390 -0.495190
O8    O     O_R   0.916860 0.424490 0.614610 -0.513618
O9    O     O_2   0.719398 0.049782 0.115714 -0.426698
O10   O     O_2   0.280167 0.048777 0.884974 -0.421341
O11   O     O_2   0.219473 0.549673 0.115602 -0.430580
O12   O     O_R   0.569970 0.924470 0.582580 -0.435090
O13   O     O_2   0.780401 0.549179 0.884454 -0.429667
O14   O     O_2   0.338740 0.947406 0.286683 -0.518209
O15   O     O_2   0.661119 0.946864 0.714003 -0.519182
O16   O     O_2   0.838767 0.447341 0.286542 -0.517580
O17   O     O_2   0.160869 0.445876 0.714883 -0.523240
O18   O     O_2   0.572199 0.272409 0.721337 -0.444600
O19   O     O_2   0.483594 0.795536 0.351841 -0.419136
O20   O     O_2   0.428337 0.273114 0.280877 -0.445177
O21   O     O_2   0.516385 0.795448 0.647621 -0.419383
O22   O     O_2   0.071719 0.772586 0.720891 -0.440364
O23   O     O_R   0.569970 0.075530 0.582580 -0.557169
O24   O     O_2   0.983706 0.295791 0.350606 -0.434165
O25   O     O_2   0.928808 0.773007 0.280146 -0.442088
O26   O     O_2   0.071641 0.223951 0.709978 -0.425279
O27   O     O_2   0.692268 0.164355 0.783566 -0.544651
O28   O     O_2   0.301314 0.740991 0.134323 -0.358060
O29   O     O_2   0.308505 0.165273 0.215233 -0.541013
O30   O     O_2   0.698019 0.740334 0.865628 -0.358371
O31   O     O_2   0.191822 0.664441 0.783206 -0.545065
O32   O     O_2   0.801022 0.241186 0.134330 -0.352051
O33   O     O_2   0.808599 0.665264 0.215779 -0.544021
O34   O     O_R   0.430030 0.924470 0.417420 -0.434528
O35   O     O_2   0.195452 0.237458 0.865445 -0.335760
O36   O     O_2   0.281820 0.928011 0.064298 -0.394589
O37   O     O_2   0.718905 0.929317 0.935570 -0.394205
O38   O     O_2   0.781421 0.428715 0.064380 -0.396131
O39   O     O_2   0.218896 0.429276 0.935449 -0.399068
O40   O     O_R   0.930030 0.575530 0.417420 -0.554424
O41   O     O_R   0.069970 0.424470 0.582580 -0.491713
O42   O     O_R   0.069970 0.575530 0.582580 -0.548152
O43   O     O_R   0.930030 0.424470 0.417420 -0.423998
O44   O     O_R   0.416860 0.075510 0.614610 -0.497388

loop_
_geom_bond_atom_site_label_1
_geom_bond_atom_site_label_2
_ccdc_geom_bond_type
C17   C69   S    
C8    C13   A    
C88   O36   D    
C36   Cl2   S    
C86   O33   D    
Cu2   O44   S    
C90   H19   S    
C67   O7    A    
C92   H21   S    
C25   C43   A    
C53   C59   A    
C31   C80   S    
C14   C89   A    
C62   H1    S    
C7    C11   A    
C32   C81   S    
C90   O37   D    
Cu1   Cu2   S    
C79   H8    S    
C50   C59   A    
C65   H23   S    
C23   O3    A    
C27   C84   S    
C18   C37   A    
C43   Cl7   S    
C82   H11   S    
C66   O14   D    
C6    N1    A    
C42   Cl8   S    
C52   C61   A    
C9    C88   S    
C40   Cl6   S    
C1    O44   A    
C73   H3    S    
C22   C41   A    
C70   O17   D    
C31   C40   A    
C5    C63   S    
C77   H7    S    
C85   H15   S    
Cu3   N3    S    
Cu3   O40   S    
Cu2   O12   S    
C71   H28   S    
C44   C53   A    
Cu4   O42   S    
C21   C38   A    
C10   C89   A    
C69   H26   S    
C62   O9    D    
C23   O23   A    
C81   H10   S    
C17   N3    A    
C32   C41   A    
Cu4   O8    S    
C35   C43   A    
C33   C82   S    
C63   O10   D    
Cu3   O43   S    
C3    C13   A    
C22   C50   A    
C56   O6    A    
C72   O19   D    
C8    N3    A    
C45   O5    A    
C85   O32   D    
C18   C46   A    
C56   O41   A    
C92   O39   D    
Cu1   O3    S    
C5    N2    A    
C83   O30   D    
C29   C61   A    
C75   H5    S    
C35   C55   A    
C78   O43   A    
C48   C57   A    
C16   C70   S    
C88   H18   S    
C45   O40   A    
C87   H17   S    
C20   C39   A    
C35   C83   S    
C57   C60   A    
C14   N2    A    
C15   C66   S    
C12   C21   S    
C19   C34   S    
C49   C58   A    
C18   C23   S    
C91   O38   D    
C30   C60   A    
C29   C38   A    
C2    C89   A    
Cu2   N2    S    
C80   O27   D    
C5    C9    A    
C78   O8    A    
C7    C65   S    
Cu4   O41   S    
C87   O35   D    
Cu1   N1    S    
C46   C54   A    
C46   C71   S    
C49   C76   S    
C37   Cl1   S    
Cu1   O34   S    
Cu2   O4    S    
C4    C11   A    
C2    C15   A    
C39   Cl3   S    
C29   C86   S    
C20   C48   A    
C8    C64   S    
C4    C17   A    
C75   O22   D    
C24   C78   S    
C72   H2    S    
C64   H22   S    
C91   H20   S    
C13   C92   S    
C81   O28   D    
C41   Cl5   S    
C63   H12   S    
C79   O26   D    
C52   C77   S    
C16   N4    A    
Cu3   O6    S    
C25   C45   S    
C32   C53   A    
C28   C85   S    
C1    O1    A    
C19   C44   A    
C26   C42   A    
C47   C55   A    
C54   C58   A    
C24   C49   A    
C33   C42   A    
C76   O24   D    
C1    C20   S    
C33   C57   A    
Cu4   N4    S    
C74   O21   D    
C69   O16   D    
Cu3   O7    S    
C48   C73   S    
C47   C74   S    
C67   O42   A    
C26   C56   S    
Cu2   O23   S    
C6    C10   A    
Cu1   O2    S    
C15   N1    A    
C28   C58   A    
C27   C36   A    
C76   H6    S    
C6    C62   S    
C19   C36   A    
C12   O12   A    
Cu1   O1    S    
C30   C87   S    
C25   C52   A    
C7    N4    A    
C64   O11   D    
C84   O31   D    
C27   C59   A    
C50   C75   S    
C71   O18   D    
C83   H13   S    
C28   C37   A    
C55   C61   A    
C73   O20   D    
C34   O4    A    
C70   H27   S    
C24   C40   A    
C77   O25   D    
C66   H24   S    
C30   C39   A    
C44   C72   S    
C12   O2    A    
C31   C54   A    
C65   O13   D    
C68   H25   S    
C51   C79   S    
C22   C67   S    
C74   H4    S    
C11   C91   S    
C80   H9    S    
C10   C90   S    
C84   H14   S    
C38   Cl4   S    
Cu3   Cu4   S    
C68   O15   D    
C14   C68   S    
Cu4   O5    S    
C86   H16   S    
C51   C60   A    
C34   O34   A    
C26   C51   A    
C2    C9    A    
C3    C16   A    
C3    C4    A    
C21   C47   A    
C82   O29   D    
