data_mof_unit_67606.cif
_audit_creation_date              2013-03-05T16:07:31-0500
_audit_creation_method            fapswitch 2.2
_symmetry_space_group_name_H-M    P1
_symmetry_Int_Tables_number       1
_space_group_crystal_system       triclinic
_cell_length_a                    10.986513
_cell_length_b                    10.648893
_cell_length_c                    10.015218
_cell_angle_alpha                 89.772416
_cell_angle_beta                  92.196205
_cell_angle_gamma                 90.037368
_cell_volume                      1170.85236768

loop_
_atom_site_label
_atom_site_type_symbol
_atom_site_description
_atom_site_fract_x
_atom_site_fract_y
_atom_site_fract_z
_atom_type_partial_charge
O1    O     O_R   0.499990 0.319660 0.618740 -0.553699
O2    O     O_R   0.500010 0.680340 0.381260 -0.590896
O3    O     O_R   0.499990 0.319630 0.381170 -0.557273
O4    O     O_R   0.500010 0.680370 0.618830 -0.563009
C1    C     C_R   0.501872 0.264207 0.500180 0.841708
C2    C     C_R   0.497754 0.736051 0.500221 0.831317
O5    O     O_R   0.319650 0.500020 0.618780 -0.515869
O6    O     O_R   0.680350 0.499980 0.381220 -0.539439
O7    O     O_R   0.319640 0.500000 0.381210 -0.600187
O8    O     O_R   0.680360 0.500000 0.618790 -0.588253
C3    C     C_R   0.263564 0.501453 0.497495 0.811009
C4    C     C_R   0.736614 0.499586 0.502059 0.816538
Cu1   Cu    Cu3+1 0.500000 0.500020 0.640660 1.011379
Cu2   Cu    Cu3+1 0.500000 0.499980 0.359340 0.984639
C5    C     C_R   0.156961 0.728033 0.082411 -0.270790
C6    C     C_R   0.849868 0.277378 0.917487 -0.204574
H1    H     H_    0.169787 0.822235 0.044147 0.186801
H2    H     H_    0.841189 0.184992 0.961171 0.188327
C7    C     C_R   0.119756 0.710409 0.212839 0.220528
C8    C     C_R   0.890027 0.293049 0.787272 0.251816
C9    C     C_R   0.104070 0.586757 0.261169 -0.007605
C10   C     C_R   0.897400 0.416907 0.736075 -0.048229
C11   C     C_R   0.122162 0.483012 0.177606 0.224885
C12   C     C_R   0.874685 0.521646 0.816619 0.264848
C13   C     C_R   0.153728 0.503274 0.046055 0.200479
C14   C     C_R   0.845248 0.503228 0.948640 0.196257
C15   C     C_R   0.170987 0.625624 0.998811 0.264027
C16   C     C_R   0.828836 0.381157 0.997429 0.224560
C17   C     C_R   0.929412 0.558816 0.399231 -0.120335
C18   C     C_R   0.070978 0.441176 0.596632 -0.128870
H3    H     H_    0.874210 0.600115 0.320234 0.187668
H4    H     H_    0.125323 0.392983 0.671938 0.201784
C19   C     C_R   0.871719 0.500282 0.503913 -0.020016
C20   C     C_R   0.128815 0.502149 0.493931 -0.028223
C21   C     C_R   0.944756 0.443610 0.605441 0.064499
C22   C     C_R   0.056248 0.560329 0.392258 0.134721
C23   C     C_R   0.610029 0.063041 0.481658 0.251339
C24   C     C_R   0.389853 0.938155 0.521686 0.229806
C25   C     C_R   0.607871 0.933134 0.486776 -0.285095
C26   C     C_R   0.392835 0.067968 0.519814 -0.282717
H5    H     H_    0.690906 0.880526 0.472885 0.174553
H6    H     H_    0.310047 0.120759 0.534366 0.179945
C27   C     C_R   0.497550 0.870829 0.502314 -0.125783
C28   C     C_R   0.502404 0.129914 0.500652 -0.113535
C29   C     C_R   0.472294 0.393778 0.071307 0.278584
C30   C     C_R   0.522504 0.607570 0.929393 0.305500
C31   C     C_R   0.483337 0.391755 0.926580 0.326307
C32   C     C_R   0.530221 0.605151 0.075215 0.300895
N1    N     N_R   0.500030 0.500030 0.852070 -0.231043
N2    N     N_R   0.499970 0.499970 0.147930 -0.256084
Br1   Br    Br    0.204001 0.658346 0.818615 -0.422559
Br2   Br    Br    0.786889 0.349378 0.175058 -0.444593
N3    N     N_2   0.496797 0.273609 0.863490 -0.389276
H7    H     H_    0.571512 0.222822 0.897788 0.228140
C33   C     C_3   0.388823 0.199653 0.831541 -0.523640
H8    H     H_    0.338904 0.174583 0.921561 0.260842
H9    H     H_    0.416127 0.110526 0.784740 0.196757
H10   H     H_    0.327603 0.250811 0.759548 0.260955
N4    N     N_2   0.593477 0.704881 0.142683 -0.351617
H11   H     H_    0.649308 0.678741 0.222721 0.308922
C34   C     C_3   0.537860 0.827321 0.153688 -0.599650
H12   H     H_    0.570303 0.890590 0.075122 0.237890
H13   H     H_    0.571050 0.872850 0.246141 0.223281
H14   H     H_    0.437009 0.820699 0.155624 0.211991
N5    N     N_2   0.101265 0.817231 0.294040 -0.390572
H15   H     H_    0.168711 0.883564 0.282858 0.272727
C35   C     C_3   0.982396 0.874966 0.278233 -0.479022
H16   H     H_    0.978497 0.958438 0.344062 0.260333
H17   H     H_    0.910125 0.809350 0.307931 0.223721
H18   H     H_    0.964893 0.905917 0.173100 0.238455
N6    N     N_2   0.934563 0.188430 0.713858 -0.410720
H19   H     H_    0.959754 0.203088 0.617096 0.296747
C36   C     C_3   0.896382 0.061951 0.746094 -0.494460
H20   H     H_    0.929600 0.995471 0.670432 0.270164
H21   H     H_    0.795376 0.056194 0.746005 0.218854
H22   H     H_    0.936505 0.032776 0.844787 0.241117
Br3   Br    Br    0.099391 0.312305 0.241847 -0.469832
Br4   Br    Br    0.889962 0.692204 0.748124 -0.476150
Br5   Br    Br    0.163434 0.362934 0.931576 -0.543973
Br6   Br    Br    0.844299 0.646420 0.060933 -0.557871
Br7   Br    Br    0.759114 0.144196 0.441611 -0.543722
Br8   Br    Br    0.238641 0.859324 0.558265 -0.494085
N7    N     N_2   0.416624 0.287872 0.131581 -0.384270
H23   H     H_    0.356460 0.309414 0.204135 0.315740
C37   C     C_3   0.487442 0.173838 0.154371 -0.593027
H24   H     H_    0.441873 0.113504 0.228111 0.223047
H25   H     H_    0.580889 0.195295 0.192608 0.289589
H26   H     H_    0.492711 0.116551 0.063266 0.194437
N8    N     N_2   0.558169 0.721535 0.868001 -0.371585
H27   H     H_    0.627923 0.718396 0.802489 0.307789
C38   C     C_3   0.469250 0.822397 0.854759 -0.558913
H28   H     H_    0.413317 0.815134 0.762652 0.289272
H29   H     H_    0.516960 0.914212 0.853434 0.190205
H30   H     H_    0.403429 0.820194 0.935447 0.215372

loop_
_geom_bond_atom_site_label_1
_geom_bond_atom_site_label_2
_geom_bond_distance
_ccdc_geom_bond_type
C6    C16   1.391860 A    
C18   H4    1.073073 S    
C33   H8    1.104839 S    
C36   H20   1.111020 S    
C25   H5    1.084637 S    
C30   N8    1.419967 S    
O2    C2    1.334148 A    
N3    H7    1.030438 S    
C5    C7    1.395538 A    
C10   C21   1.453376 S    
C17   C22   1.397979 A    
C18   C21   1.393177 A    
O1    C1    1.329111 A    
C7    C9    1.413807 A    
C12   C14   1.386353 A    
C17   C19   1.390932 A    
O4    Cu1   1.932069 S    
C34   H13   1.096737 S    
N5    C35   1.446723 S    
C8    N6    1.433869 S    
N8    C38   1.454611 S    
O6    C4    1.337684 A    
C31   N3    1.420464 S    
C29   C31   1.459419 A    
N4    H11   1.028129 S    
Cu1   Cu2   2.817484 S    
C24   Br8   1.908190 S    
C36   H21   1.111316 S    
C23   Br7   1.906902 S    
C29   N7    1.425601 S    
C15   Br1   1.885450 S    
N3    C33   1.449664 S    
C30   C32   1.459774 A    
N4    C34   1.446678 S    
C18   C20   1.388367 A    
C37   H25   1.105968 S    
C35   H16   1.110622 S    
O4    C2    1.324935 A    
C38   H28   1.091607 S    
C9    C22   1.458984 S    
C25   C27   1.395012 A    
C37   H24   1.110394 S    
C14   Br6   1.898574 S    
C35   H17   1.105837 S    
C34   H14   1.111102 S    
O5    C3    1.340858 A    
O7    Cu2   2.001923 S    
C38   H29   1.109340 S    
C5    C15   1.389753 A    
N7    H23   1.027563 S    
C30   N1    1.401478 A    
C26   C28   1.391664 A    
C6    C8    1.401979 A    
C6    H2    1.080752 S    
C11   Br3   1.945137 S    
C32   N2    1.380916 A    
O7    C3    1.338384 A    
O3    Cu2   1.932069 S    
O8    C4    1.343195 A    
Cu1   N1    2.117305 S    
C12   Br4   1.948353 S    
N7    C37   1.455160 S    
C1    C28   1.430078 S    
C8    C10   1.416608 A    
C2    C27   1.435477 S    
C33   H9    1.106868 S    
C13   C15   1.399657 A    
C36   H22   1.110033 S    
C10   C12   1.407101 A    
O1    Cu1   1.934006 S    
C32   N4    1.426956 S    
N6    C36   1.449286 S    
C37   H26   1.102974 S    
C5    H1    1.083468 S    
O6    Cu2   1.985133 S    
C13   Br5   1.892750 S    
C3    C20   1.479516 S    
O3    C1    1.327380 A    
O8    Cu1   2.001922 S    
C31   N1    1.386828 A    
C14   C16   1.400882 A    
C35   H18   1.111790 S    
C23   C28   1.400305 A    
C9    C11   1.407415 A    
C4    C19   1.483750 S    
C24   C27   1.404084 A    
C17   H3    1.071437 S    
C38   H30   1.105049 S    
C24   C26   1.382796 A    
C16   Br2   1.884025 S    
Cu2   N2    2.117305 S    
C29   N2    1.395950 A    
C26   H6    1.084451 S    
C19   C21   1.405437 A    
C7    N5    1.420189 S    
C20   C22   1.410589 A    
C11   C13   1.391157 A    
C34   H12   1.103219 S    
O2    Cu2   1.934006 S    
O5    Cu1   1.985134 S    
N6    H19   1.029269 S    
C23   C25   1.384329 A    
N5    H15   1.032305 S    
C33   H10   1.108711 S    
N8    H27   1.028414 S    
