data_mof_unit_27148.cif
_audit_creation_date              2012-12-11T14:49:28-0500
_audit_creation_method            fapswitch 2.2
_symmetry_space_group_name_H-M    P1
_symmetry_Int_Tables_number       1
_space_group_crystal_system       triclinic
_cell_length_a                    16.870618
_cell_length_b                    16.762294
_cell_length_c                    19.472551
_cell_angle_alpha                 117.693868
_cell_angle_beta                  62.373085
_cell_angle_gamma                 100.761218
_cell_volume                      4317.00112019

loop_
_atom_site_label
_atom_site_type_symbol
_atom_type_description
_atom_site_fract_x
_atom_site_fract_y
_atom_site_fract_z
_atom_type_partial_charge
C1    C     C_R   0.040163 0.759477 0.010792 -0.023908
C2    C     C_R   0.766992 0.436153 0.238632 0.091211
C3    C     C_R   0.722963 0.548003 0.021767 0.051097
C4    C     C_R   0.969828 0.759207 0.256893 0.087326
C5    C     C_R   0.247577 0.572558 0.016738 -0.064785
C6    C     C_R   0.914478 0.266298 0.839068 -0.147987
C7    C     C_R   0.171513 0.452081 0.751542 -0.200506
C8    C     C_R   0.052786 0.307625 0.050268 -0.122746
C9    C     C_R   0.975712 0.238909 0.972756 -0.114056
C10   C     C_R   0.252486 0.528099 0.825021 0.441382
C11   C     C_R   0.182216 0.490812 0.089188 -0.135431
C12   C     C_R   0.764410 0.418219 0.162997 -0.143461
C13   C     C_R   0.983806 0.342425 0.761478 -0.111098
C14   C     C_R   0.254880 0.543414 0.069321 0.033197
C15   C     C_R   0.928278 0.270884 0.765196 0.125455
C16   C     C_R   0.258401 0.464692 0.743981 -0.028805
C17   C     C_R   0.031599 0.222635 0.000212 0.068591
C18   C     C_R   0.849516 0.133291 0.712186 -0.306172
C19   C     C_R   0.885781 0.214038 0.707435 -0.003792
C20   C     C_R   0.891015 0.231288 0.640811 0.382224
C21   C     C_R   0.887428 0.158318 0.567182 0.009682
C22   C     C_R   0.864122 0.073180 0.567906 -0.018680
C23   C     C_R   0.804418 0.560040 0.961231 -0.071570
C24   C     C_R   0.837707 0.063116 0.643356 0.146326
C25   C     C_R   0.913903 0.166081 0.490528 -0.127815
C26   C     C_R   0.927517 0.089098 0.413923 -0.210668
C27   C     C_R   0.911828 0.003898 0.413499 0.128737
C28   C     C_R   0.874230 0.996540 0.491634 0.057884
C29   C     C_R   0.854779 0.911410 0.492394 0.133959
C30   C     C_R   0.818145 0.904038 0.570002 -0.197285
C31   C     C_R   0.810390 0.979674 0.645271 -0.179970
C32   C     C_R   0.939542 0.925733 0.336139 -0.193046
C33   C     C_R   0.927915 0.840866 0.336662 0.103121
C34   C     C_R   0.957955 0.672160 0.249490 -0.132935
C35   C     C_R   0.879621 0.834388 0.415024 -0.251408
C36   C     C_R   0.423136 0.425491 0.664142 -0.190920
C37   C     C_R   0.339231 0.420498 0.663774 0.137767
C38   C     C_R   0.333205 0.376349 0.584955 -0.247223
C39   C     C_R   0.410171 0.351929 0.507848 0.133940
C40   C     C_R   0.494273 0.372300 0.509623 0.030926
C41   C     C_R   0.501172 0.405663 0.587659 0.103544
C42   C     C_R   0.403747 0.316435 0.429845 -0.193889
C43   C     C_R   0.479167 0.310531 0.355384 -0.200372
C44   C     C_R   0.560894 0.341253 0.359031 0.142658
C45   C     C_R   0.738300 0.483062 0.039735 -0.118297
C46   C     C_R   0.569862 0.368006 0.435099 0.035629
C47   C     C_R   0.651784 0.399803 0.439239 0.133806
C48   C     C_R   0.660133 0.424661 0.514973 -0.192702
C49   C     C_R   0.585156 0.426764 0.588807 -0.157256
C50   C     C_R   0.630378 0.355035 0.291098 -0.264921
C51   C     C_R   0.707144 0.398848 0.299521 0.101378
C52   C     C_R   0.720557 0.414636 0.370799 -0.267714
C53   C     C_R   0.636182 0.591948 0.057513 0.129765
C54   C     C_R   0.321166 0.571917 0.104480 0.124568
C55   C     C_R   0.401561 0.539876 0.164964 -0.215484
C56   C     C_R   0.027637 0.753087 0.174974 -0.101196
C57   C     C_R   0.325014 0.532833 0.152996 -0.162378
C58   C     C_R   0.389035 0.628810 0.079087 -0.260792
C59   C     C_R   0.467914 0.631165 0.085693 0.177164
C60   C     C_R   0.475593 0.582727 0.125375 0.183105
C61   C     C_R   0.559537 0.567393 0.114566 -0.263163
C62   C     C_R   0.627206 0.649909 0.027498 -0.151231
C63   C     C_R   0.542829 0.670842 0.042976 -0.201999
C64   C     C_R   0.802221 0.151469 0.097487 0.096471
C65   C     C_R   0.963942 0.859648 0.987559 -0.006725
C66   C     C_R   0.925946 0.935712 0.925900 -0.211545
C67   C     C_R   0.842039 0.486616 0.239708 -0.135672
C68   C     C_R   0.964612 0.862540 0.916411 -0.230956
C69   C     C_R   0.925870 0.933672 0.069639 0.382401
C70   C     C_R   0.887268 0.008666 0.079394 0.044936
C71   C     C_R   0.885651 0.007980 0.006957 0.142809
C72   C     C_R   0.841870 0.078794 0.016990 -0.238243
C73   C     C_R   0.805575 0.154078 0.168644 -0.177428
C74   C     C_R   0.847372 0.083316 0.160128 -0.135231
C75   C     C_R   0.963175 0.689499 0.933490 -0.150597
C76   C     C_R   0.990143 0.773476 0.976865 0.113014
H1    H     H_    0.081164 0.808481 0.038370 0.115822
H2    H     H_    0.864918 0.227739 0.869689 0.091225
H3    H     H_    0.149708 0.407850 0.702635 0.125933
H4    H     H_    0.093741 0.321059 0.083480 0.102475
H5    H     H_    0.946023 0.188691 0.932599 0.097475
H6    H     H_    0.158665 0.468175 0.138895 0.090224
H7    H     H_    0.003932 0.371312 0.716981 0.165589
H8    H     H_    0.838756 0.120402 0.765291 0.135897
H9    H     H_    0.931256 0.230176 0.487434 0.186062
H10   H     H_    0.724768 0.368883 0.133722 0.086935
H11   H     H_    0.954379 0.095845 0.354462 0.156223
H12   H     H_    0.974725 0.931731 0.276290 0.177012
H13   H     H_    0.867168 0.769868 0.417249 0.121006
H14   H     H_    0.801625 0.838981 0.571403 0.134520
H15   H     H_    0.788420 0.971833 0.703600 0.128988
H16   H     H_    0.428616 0.450146 0.723736 0.179284
H17   H     H_    0.269336 0.367169 0.582458 0.126530
H18   H     H_    0.339581 0.298829 0.427527 0.135053
H19   H     H_    0.472048 0.288426 0.296699 0.131389
H20   H     H_    0.619685 0.339476 0.235673 0.119732
H21   H     H_    0.815516 0.602100 0.929848 0.093036
H22   H     H_    0.781046 0.444825 0.376534 0.123613
H23   H     H_    0.723147 0.447554 0.518577 0.142586
H24   H     H_    0.591604 0.451228 0.648137 0.151955
H25   H     H_    0.564652 0.527181 0.142619 0.118619
H26   H     H_    0.684898 0.674082 0.987161 0.123123
H27   H     H_    0.406151 0.503811 0.197041 0.129408
H28   H     H_    0.537408 0.710039 0.013954 0.141530
H29   H     H_    0.272442 0.491134 0.176102 0.117237
H30   H     H_    0.386252 0.662716 0.044697 0.136057
H31   H     H_    0.837982 0.077905 0.962674 0.108752
H32   H     H_    0.917659 0.649562 0.298662 0.097686
H33   H     H_    0.774909 0.210789 0.230804 0.139649
H34   H     H_    0.925757 0.934800 0.869959 0.137319
H35   H     H_    0.847612 0.087736 0.217229 0.185075
H36   H     H_    0.992881 0.806306 0.853308 0.150092
H37   H     H_    0.690967 0.455224 0.082714 0.095639
H38   H     H_    0.054105 0.808331 0.158219 0.114788
H39   H     H_    0.871945 0.501231 0.282602 0.086786
H40   H     H_    0.933418 0.674085 0.890397 0.105714
H41   H     H_    0.280952 0.628842 0.004200 0.157138
N1    N     N_R   0.036080 0.671900 0.995420 -0.052133
N2    N     N_R   0.954660 0.334720 0.880230 -0.044550
N3    N     N_R   0.116260 0.502360 0.832930 -0.061531
N4    N     N_R   0.012950 0.371090 0.051890 -0.044145
N5    N     N_R   0.963920 0.328100 0.004580 -0.044741
N6    N     N_R   0.165290 0.545350 0.880240 -0.080536
N7    N     N_R   0.132570 0.490700 0.051900 -0.045651
N8    N     N_R   0.996640 0.382750 0.832930 -0.049985
N9    N     N_R   0.834710 0.454650 0.119760 -0.038800
N10   N     N_R   0.867430 0.509300 0.948100 -0.037884
N11   N     N_R   0.003360 0.617250 0.167070 -0.044371
N12   N     N_R   0.825450 0.461270 0.995400 -0.042862
N13   N     N_R   0.045340 0.665280 0.119770 -0.048548
N14   N     N_R   0.883740 0.497640 0.167070 -0.038029
N15   N     N_R   0.987050 0.628910 0.948110 -0.043947
N16   N     N_R   0.174550 0.538730 0.004600 -0.051341
Ni1   Ni    Ni4+2 0.104370 0.604370 0.000010 0.246599
Ni2   Ni    Ni4+2 0.895630 0.395630 0.999990 0.211087
Ni3   Ni    Ni4+2 0.991920 0.505780 0.891500 0.238112
Ni4   Ni    Ni4+2 0.008080 0.494220 0.108500 0.207582
Cl1   Cl    Cl    0.337534 0.599757 0.844745 -0.733672
Cl2   Cl    Cl    0.895491 0.342345 0.650873 -0.719901
Cl3   Cl    Cl    0.916960 0.927921 0.161309 -0.755943

loop_
_geom_bond_atom_site_label_1
_geom_bond_atom_site_label_2
_ccdc_geom_bond_type
C57   H29   S    
C45   N12   A    
C1    H1    S    
C73   C74   A    
C66   C68   A    
C19   C20   A    
C30   H14   S    
C2    C12   A    
C15   C19   S    
C26   C27   A    
C62   C63   A    
C65   C76   S    
N7    N16   A    
C18   C24   A    
C20   Cl2   S    
C23   N10   A    
C36   C37   A    
C37   C38   A    
C38   C39   A    
C11   C14   A    
C8    N4    A    
C6    H2    S    
C12   N9    A    
C4    C33   S    
C32   H12   S    
C55   H27   S    
C18   C19   A    
C68   H36   S    
N4    Ni4   S    
C3    C23   A    
C67   H39   S    
C6    C15   A    
N12   Ni2   S    
C53   C61   A    
C47   C48   A    
C26   H11   S    
C70   C74   A    
C43   H19   S    
C64   C73   A    
C70   C71   A    
N1    Ni1   S    
N3    N6    A    
C16   C37   S    
C13   N8    A    
C36   H16   S    
C69   Cl3   S    
C59   C60   A    
C22   C28   A    
C21   C22   A    
C4    C56   A    
C36   C41   A    
N13   Ni1   S    
C41   C49   A    
C44   C46   A    
C50   C51   A    
C39   C42   A    
C11   H6    S    
C4    C34   A    
N6    Ni1   S    
C51   C52   A    
N7    Ni4   S    
N10   Ni3   S    
C2    C67   A    
C39   C40   A    
C58   C59   A    
C3    C45   A    
N2    Ni2   S    
C61   H25   S    
C5    H41   S    
C60   C61   A    
C58   H30   S    
C40   C46   A    
C75   C76   A    
N10   N12   A    
C29   C30   A    
N14   Ni4   S    
C53   C62   A    
C18   H8    S    
C66   C71   A    
C72   H31   S    
N15   Ni3   S    
C65   C68   A    
C25   H9    S    
C9    N5    A    
C5    C14   A    
C66   H34   S    
N4    N5    A    
C67   N14   A    
N11   Ni4   S    
C35   H13   S    
N8    Ni3   S    
C9    C17   A    
C48   C49   A    
C14   C54   S    
N9    Ni2   S    
C10   N6    A    
C31   H15   S    
C13   C15   A    
C43   C44   A    
N16   Ni1   S    
C22   C24   A    
C42   C43   A    
N2    N8    A    
C6    N2    A    
C74   H35   S    
C75   N15   A    
C7    H3    S    
C54   C58   A    
C44   C50   A    
C48   H23   S    
C21   C25   A    
C46   C47   A    
C28   C29   A    
C23   H21   S    
C27   C32   A    
C42   H18   S    
C1    C76   A    
C7    N3    A    
C7    C16   A    
C63   H28   S    
N11   N13   A    
C73   H33   S    
C47   C52   A    
C5    N16   A    
C29   C35   A    
C59   C63   A    
C8    C17   A    
C12   H10   S    
C34   H32   S    
C32   C33   A    
C55   C57   A    
C25   C26   A    
C24   C31   A    
C71   C72   A    
C10   C16   A    
C49   H24   S    
C3    C53   S    
C50   H20   S    
C30   C31   A    
N9    N14   A    
C65   C69   A    
C38   H17   S    
C52   H22   S    
C33   C35   A    
C1    N1    A    
C64   C72   A    
C69   C70   A    
N5    Ni2   S    
N1    N15   A    
C2    C51   S    
C45   H37   S    
C20   C21   A    
C34   N11   A    
C27   C28   A    
C8    H4    S    
C56   H38   S    
C40   C41   A    
C75   H40   S    
C10   Cl1   S    
C11   N7    A    
N3    Ni3   S    
C55   C60   A    
C56   N13   A    
C13   H7    S    
C9    H5    S    
C62   H26   S    
C54   C57   A    
