data_mof_unit_38044.cif
_audit_creation_date              2012-10-26T19:24:21-0400
_audit_creation_method            fapswitch 2.2
_symmetry_space_group_name_H-M    P1
_symmetry_Int_Tables_number       1
_space_group_crystal_system       triclinic
_cell_length_a                    27.764138
_cell_length_b                    10.797561
_cell_length_c                    9.641496
_cell_angle_alpha                 89.644061
_cell_angle_beta                  89.862961
_cell_angle_gamma                 92.979318
_cell_volume                      2886.40251803

loop_
_atom_site_label
_atom_site_type_symbol
_atom_type_description
_atom_site_fract_x
_atom_site_fract_y
_atom_site_fract_z
_atom_type_partial_charge
C1    C     C_R   0.496177 0.262590 0.500641 0.556299
C2    C     C_R   0.972456 0.447700 0.615739 0.027473
C3    C     C_R   0.974938 0.517114 0.371582 -0.027111
C4    C     C_R   0.407649 0.498701 0.500134 0.557948
C5    C     C_R   0.948312 0.479741 0.491661 0.025759
C6    C     C_R   0.944387 0.418372 0.735181 -0.123774
C7    C     C_R   0.894413 0.416834 0.731618 -0.079443
C8    C     C_R   0.870359 0.444831 0.609219 0.027481
C9    C     C_R   0.897046 0.475410 0.488083 -0.063064
C10   C     C_R   0.872421 0.502453 0.364078 0.015213
C11   C     C_R   0.821714 0.508583 0.368764 0.457569
C12   C     C_R   0.276913 0.435532 0.401695 -0.047264
C13   C     C_R   0.819922 0.444566 0.605995 0.460867
C14   C     C_R   0.716834 0.390424 0.420474 0.242986
C15   C     C_R   0.665911 0.397089 0.419413 0.197009
C16   C     C_R   0.495557 0.736365 0.499718 0.554691
C17   C     C_R   0.673314 0.579921 0.565401 -0.201900
C18   C     C_R   0.723681 0.577986 0.560791 0.249419
C19   C     C_R   0.745221 0.482637 0.488902 0.290467
C20   C     C_R   0.023642 0.446907 0.616800 0.021129
C21   C     C_R   0.050162 0.491859 0.499175 0.041467
C22   C     C_R   0.026027 0.531009 0.378220 0.018187
C23   C     C_R   0.253687 0.501569 0.504676 0.198883
C24   C     C_R   0.049462 0.401847 0.731371 -0.141134
C25   C     C_R   0.104061 0.591663 0.273518 -0.108085
C26   C     C_R   0.949584 0.535959 0.247112 -0.080307
C27   C     C_R   0.899483 0.525388 0.241206 0.249869
C28   C     C_R   0.592120 0.497248 0.499599 0.629728
C29   C     C_R   0.054007 0.584101 0.268065 -0.142113
C30   C     C_R   0.433711 0.119225 0.702952 -0.128223
C31   C     C_R   0.407113 0.050602 0.802114 -0.111637
C32   C     C_R   0.406758 0.920893 0.802411 0.258833
C33   C     C_R   0.433306 0.861097 0.702271 -0.030362
C34   C     C_R   0.101401 0.497255 0.502231 -0.027156
C35   C     C_R   0.461981 0.928857 0.603417 -0.011386
C36   C     C_R   0.462312 0.060323 0.604006 0.020253
C37   C     C_R   0.489492 0.127978 0.500905 0.017392
C38   C     C_R   0.509819 0.066075 0.390616 -0.122552
C39   C     C_R   0.507932 0.938877 0.387778 -0.119057
C40   C     C_R   0.176576 0.455273 0.617468 0.403382
C41   C     C_R   0.488211 0.869454 0.498527 0.012036
C42   C     C_R   0.585884 0.578735 0.134605 0.143401
C43   C     C_R   0.627605 0.561224 0.057737 -0.124615
C44   C     C_R   0.625391 0.577895 0.915317 -0.135996
C45   C     C_R   0.125949 0.452680 0.618380 0.025750
C46   C     C_R   0.580966 0.602253 0.856984 0.137135
C47   C     C_R   0.539040 0.553301 0.924702 0.151527
C48   C     C_R   0.540254 0.548261 0.073026 0.143652
C49   C     C_R   0.461817 0.453226 0.074281 0.008638
C50   C     C_R   0.462083 0.451811 0.926799 0.002084
C51   C     C_R   0.178766 0.550549 0.393572 0.401584
C52   C     C_R   0.281073 0.564775 0.606236 -0.064477
C53   C     C_R   0.331179 0.562060 0.604948 -0.193695
C54   C     C_R   0.327471 0.433487 0.398171 0.227032
C55   C     C_R   0.099555 0.404544 0.731725 -0.109729
C56   C     C_R   0.128190 0.546755 0.388854 0.025224
C57   C     C_R   0.354718 0.497834 0.500679 0.044824
C58   C     C_R   0.644596 0.489812 0.496922 -0.000815
Cu1   Cu    Cu3+1 0.500000 0.499990 0.640660 0.979458
Cu2   Cu    Cu3+1 0.500000 0.500010 0.359340 1.034559
H1    H     H_    0.263492 0.616439 0.685989 0.165001
H2    H     H_    0.429260 0.761215 0.700495 0.160559
H3    H     H_    0.523388 0.895419 0.299325 0.178882
H4    H     H_    0.430679 0.413375 0.128996 0.168589
H5    H     H_    0.662657 0.570860 0.106862 0.177463
H6    H     H_    0.658587 0.602564 0.860548 0.155755
H7    H     H_    0.431155 0.410799 0.872907 0.116849
H8    H     H_    0.117536 0.368336 0.821776 0.169218
H9    H     H_    0.874653 0.394517 0.826338 0.182226
H10   H     H_    0.959917 0.399300 0.834807 0.116568
H11   H     H_    0.032047 0.360599 0.821586 0.113202
H12   H     H_    0.123803 0.632529 0.186072 0.170964
H13   H     H_    0.351652 0.612006 0.684233 0.154176
H14   H     H_    0.326339 0.327655 0.235305 0.321778
H15   H     H_    0.853671 0.466797 0.104505 0.363404
H16   H     H_    0.732104 0.727283 0.671837 0.341157
H17   H     H_    0.363094 0.905549 0.959940 0.332841
H18   H     H_    0.654239 0.287441 0.262966 0.341215
H19   H     H_    0.717677 0.220250 0.356536 0.347758
H20   H     H_    0.967868 0.552459 0.149446 0.136987
H21   H     H_    0.656500 0.654224 0.618352 0.144088
H22   H     H_    0.038228 0.623784 0.177100 0.115396
H23   H     H_    0.528421 0.116240 0.306882 0.168691
H24   H     H_    0.429774 0.218074 0.702527 0.141998
H25   H     H_    0.385768 0.098826 0.876623 0.105957
H26   H     H_    0.255413 0.385351 0.324765 0.129622
I1    I     I_    0.600078 0.743819 0.249472 -0.317094
I2    I     I_    0.582852 0.787148 0.780539 -0.308269
N1    N     N_R   0.201944 0.503515 0.505911 -0.394128
N2    N     N_R   0.796823 0.477848 0.487675 -0.342999
N3    N     N_R   0.500460 0.501210 0.147910 -0.245660
N4    N     N_R   0.500480 0.501290 0.852040 -0.242260
O1    O     O_R   0.500000 0.319640 0.618810 -0.505474
O2    O     O_R   0.569730 0.499970 0.618800 -0.496942
O3    O     O_R   0.569740 0.499990 0.381230 -0.451856
O4    O     O_2   0.200219 0.408218 0.726311 -0.494364
O5    O     O_3   0.350684 0.366995 0.298473 -0.704305
O6    O     O_3   0.878651 0.535343 0.112367 -0.650579
O7    O     O_3   0.752756 0.667783 0.625276 -0.635657
O8    O     O_3   0.379790 0.849734 0.896558 -0.693866
O9    O     O_3   0.636267 0.315275 0.344926 -0.686375
O10   O     O_3   0.740055 0.294595 0.359488 -0.667042
O11   O     O_2   0.794048 0.412325 0.720556 -0.453888
O12   O     O_2   0.204613 0.601091 0.286758 -0.489734
O13   O     O_2   0.797387 0.548815 0.257706 -0.429894
O14   O     O_R   0.500000 0.319660 0.381240 -0.491896
O15   O     O_R   0.430260 0.500010 0.618770 -0.547795
O16   O     O_R   0.430270 0.500030 0.381200 -0.458506
O17   O     O_R   0.500000 0.680340 0.618760 -0.487715
O18   O     O_R   0.500000 0.680360 0.381190 -0.489361

loop_
_geom_bond_atom_site_label_1
_geom_bond_atom_site_label_2
_ccdc_geom_bond_type
C10   C27   A    
C12   H26   S    
C27   O6    S    
C34   C56   A    
C8    C13   A    
C31   H25   S    
C22   C29   A    
C38   H23   S    
C47   N4    A    
C44   H6    S    
C35   C36   A    
C25   C56   A    
C55   H8    S    
C16   O18   A    
C7    C8    A    
C39   C41   A    
C31   C32   A    
C24   C55   A    
C4    O16   A    
C12   C23   A    
C26   C27   A    
C28   O3    A    
C36   C37   A    
C40   O4    S    
C18   C19   A    
C52   H1    S    
C30   C31   A    
C13   N2    A    
C14   O10   S    
H17   O8    S    
C28   O2    A    
C51   C56   A    
C33   C35   A    
C20   C24   A    
C8    C9    A    
C48   N3    A    
C4    C57   S    
C11   O13   S    
C23   N1    S    
H19   O10   S    
Cu1   O2    S    
C40   N1    A    
C13   O11   S    
C50   H7    S    
Cu2   O16   S    
C1    C37   S    
C17   C58   A    
Cu1   Cu2   S    
C49   H4    S    
C21   C22   A    
H18   O9    S    
C2    C6    A    
C49   N3    A    
C44   C46   A    
C16   O17   A    
H14   O5    S    
C46   I2    S    
C25   C29   A    
C40   C45   A    
C4    O15   A    
C2    C20   A    
C34   C45   A    
C53   C57   A    
C33   H2    S    
C21   C34   A    
C51   O12   S    
H15   O6    S    
C26   H20   S    
C32   O8    S    
H16   O7    S    
C43   C44   A    
C5    C9    A    
C37   C38   A    
C47   C48   A    
C43   H5    S    
C17   C18   A    
C54   O5    S    
C25   H12   S    
C42   C48   A    
C15   O9    S    
C50   N4    A    
C15   C58   A    
C2    C5    A    
C42   C43   A    
Cu2   O14   S    
C52   C53   A    
C9    C10   A    
Cu2   N3    S    
C6    H10   S    
C46   C47   A    
C14   C19   A    
C3    C26   A    
C53   H13   S    
C3    C5    A    
C7    H9    S    
C6    C7    A    
C28   C58   S    
C39   H3    S    
C1    O14   A    
C30   C36   A    
C32   C33   A    
C29   H22   S    
C19   N2    S    
C51   N1    A    
C11   N2    A    
C23   C52   A    
C38   C39   A    
Cu1   O17   S    
C17   H21   S    
Cu1   N4    S    
C30   H24   S    
C35   C41   A    
Cu1   O15   S    
Cu2   O18   S    
C10   C11   A    
Cu2   O3    S    
C20   C21   A    
C45   C55   A    
C1    O1    A    
C49   C50   A    
C18   O7    S    
C14   C15   A    
C3    C22   A    
C42   I1    S    
Cu1   O1    S    
C16   C41   S    
C12   C54   A    
C24   H11   S    
C54   C57   A    
