data_mof_unit_41913.cif
_audit_creation_date              2013-03-05T15:41:51-0500
_audit_creation_method            fapswitch 2.2
_symmetry_space_group_name_H-M    P1
_symmetry_Int_Tables_number       1
_space_group_crystal_system       triclinic
_cell_length_a                    7.817724
_cell_length_b                    8.56592
_cell_length_c                    10.512443
_cell_angle_alpha                 91.210872
_cell_angle_beta                  85.281927
_cell_angle_gamma                 93.986468
_cell_volume                      699.80918969

loop_
_atom_site_label
_atom_site_type_symbol
_atom_site_description
_atom_site_fract_x
_atom_site_fract_y
_atom_site_fract_z
_atom_type_partial_charge
O1    O     O_R   0.389250 0.738570 0.508410 -0.602516
O2    O     O_R   0.610750 0.261430 0.491590 -0.602514
O3    O     O_R   0.678390 0.711620 0.486450 -0.584966
O4    O     O_R   0.321610 0.288380 0.513550 -0.584967
C1    C     C_R   0.545829 0.794580 0.496627 0.925736
C2    C     C_R   0.454171 0.205420 0.503374 0.925735
O5    O     O_R   0.355460 0.513510 0.697030 -0.590394
O6    O     O_R   0.644540 0.486490 0.302970 -0.590393
O7    O     O_R   0.644600 0.486560 0.675070 -0.594071
O8    O     O_R   0.355400 0.513440 0.324930 -0.594074
C3    C     C_R   0.501625 0.500800 0.742141 0.889814
C4    C     C_R   0.498374 0.499199 0.257859 0.889814
Zn1   Zn    Zn3+2 0.306940 0.517990 0.514670 1.143463
Zn2   Zn    Zn3+2 0.693060 0.482010 0.485330 1.143466
N1    N     N_2   0.950320 0.457950 0.465730 0.060441
N2    N     N_2   0.049680 0.542050 0.534270 0.060440
C5    C     C_3   0.423044 0.627025 0.963573 -0.241714
C6    C     C_3   0.576956 0.372974 0.036427 -0.241715
C7    C     C_3   0.584575 0.632819 0.040982 -0.252970
C8    C     C_3   0.415424 0.367180 0.959018 -0.252971
H1    H     H_    0.654774 0.739127 0.078059 0.207236
H2    H     H_    0.345226 0.260873 0.921941 0.207236
H3    H     H_    0.358333 0.728411 0.930591 0.210891
H4    H     H_    0.641667 0.271589 0.069409 0.210892
C9    C     C_3   0.496366 0.499543 0.123312 -0.159402
C10   C     C_3   0.503634 0.500457 0.876688 -0.159402
C11   C     C_3   0.338887 0.493909 0.047236 0.410836
C12   C     C_3   0.661113 0.506090 0.952764 0.410837
C13   C     C_2   0.569626 0.958383 0.494167 -0.314843
C14   C     C_2   0.430374 0.041617 0.505833 -0.314846
H5    H     H_    0.700939 0.009831 0.482428 0.246876
H6    H     H_    0.299061 0.990169 0.517572 0.246875
N3    N     N_R   0.161553 0.487417 0.102626 0.251384
O9    O     O_R   0.059298 0.363925 0.085135 -0.317908
O10   O     O_R   0.103335 0.606899 0.166534 -0.322672
N4    N     N_R   0.838447 0.512583 0.897375 0.251385
O11   O     O_R   0.940702 0.636074 0.914867 -0.317907
O12   O     O_R   0.896664 0.393101 0.833466 -0.322671
N5    N     N_R   0.992526 0.303616 0.454463 0.301849
O13   O     O_R   0.972283 0.215367 0.554585 -0.339500
O14   O     O_R   0.007161 0.237830 0.341947 -0.327569
N6    N     N_R   0.007473 0.696383 0.545538 0.301850
O15   O     O_R   0.027726 0.784637 0.445418 -0.339502
O16   O     O_R   0.992814 0.762163 0.658055 -0.327568

loop_
_geom_bond_atom_site_label_1
_geom_bond_atom_site_label_2
_geom_bond_distance
_ccdc_geom_bond_type
C14   H6    1.087123 S    
O7    Zn2   1.999513 S    
C13   C14   1.338200 D    
C8    C11   1.533938 S    
C9    C11   1.519756 S    
C10   C12   1.519756 S    
C4    C9    1.415864 S    
O6    C4    1.284947 A    
N4    O12   1.300540 A    
N3    O9    1.300084 A    
N5    O14   1.299316 A    
O2    C2    1.280566 A    
C11   N3    1.456695 S    
O5    C3    1.284947 A    
C7    C12   1.533937 S    
O7    C3    1.283366 A    
N1    N5    1.384997 S    
C5    H3    1.110418 S    
O3    Zn2   1.977837 S    
N6    O16   1.299319 A    
C13   H5    1.087123 S    
C6    H4    1.110418 S    
C5    C10   1.537883 S    
O8    C4    1.283366 A    
N4    O11   1.300084 A    
N3    O10   1.300540 A    
C8    H2    1.110418 S    
C1    C13   1.403024 S    
O2    Zn2   1.953901 S    
C6    C9    1.537882 S    
O1    C1    1.280566 A    
O1    Zn1   1.953901 S    
N6    O15   1.301500 A    
C7    C9    1.536904 S    
N1    N2    1.278209 D    
C5    C11   1.532796 S    
N2    N6    1.384995 S    
O5    Zn1   1.986251 S    
C6    C12   1.532796 S    
C12   N4    1.456694 S    
C6    C8    1.554981 S    
O4    C2    1.292806 A    
Zn1   N2    2.029156 S    
N5    O13   1.301499 A    
Zn2   N1    2.029156 S    
C5    C7    1.554982 S    
O6    Zn2   1.986249 S    
C3    C10   1.415864 S    
C2    C14   1.403023 S    
C7    H1    1.110417 S    
O4    Zn1   1.977837 S    
C8    C10   1.536905 S    
O3    C1    1.292806 A    
O8    Zn1   1.999513 S    
