data_mof_unit_44275.cif
_audit_creation_date              2012-12-10T20:40:56-0500
_audit_creation_method            fapswitch 2.2
_symmetry_space_group_name_H-M    P1
_symmetry_Int_Tables_number       1
_space_group_crystal_system       triclinic
_cell_length_a                    27.526853
_cell_length_b                    10.71399
_cell_length_c                    9.974764
_cell_angle_alpha                 88.761204
_cell_angle_beta                  91.061147
_cell_angle_gamma                 90.656482
_cell_volume                      2940.40973697

loop_
_atom_site_label
_atom_site_type_symbol
_atom_type_description
_atom_site_fract_x
_atom_site_fract_y
_atom_site_fract_z
_atom_type_partial_charge
C1    C     C_R   0.501747 0.260105 0.500883 0.932620
C2    C     C_R   0.273798 0.441635 0.545613 0.149239
C3    C     C_R   0.253048 0.523600 0.449407 0.298207
C4    C     C_R   0.101606 0.527440 0.393803 -0.055917
C5    C     C_R   0.127347 0.417457 0.365586 -0.112361
C6    C     C_R   0.100989 0.308783 0.325843 -0.067895
C7    C     C_R   0.126939 0.637878 0.429460 -0.042963
C8    C     C_R   0.353773 0.520798 0.489952 -0.059134
C9    C     C_R   0.646753 0.490225 0.502216 -0.023281
C10   C     C_R   0.976054 0.408658 0.422321 0.018069
C11   C     C_R   0.973237 0.635917 0.400665 0.068733
C12   C     C_R   0.406280 0.504564 0.498174 0.967191
C13   C     C_R   0.949400 0.520394 0.422639 0.097081
C14   C     C_R   0.954465 0.299250 0.474867 -0.293562
C15   C     C_R   0.905743 0.295512 0.510436 0.132952
C16   C     C_R   0.876983 0.403164 0.491718 -0.024159
C17   C     C_R   0.899080 0.516521 0.447794 -0.115940
C18   C     C_R   0.871094 0.625916 0.429612 -0.027048
C19   C     C_R   0.820262 0.613416 0.437136 0.599225
C20   C     C_R   0.826931 0.402483 0.516872 0.562478
C21   C     C_R   0.722315 0.420583 0.411364 -0.205725
C22   C     C_R   0.671831 0.412296 0.414534 -0.011891
C23   C     C_R   0.502123 0.739480 0.499032 0.926493
C24   C     C_R   0.672806 0.568447 0.589051 -0.291158
C25   C     C_R   0.723481 0.570400 0.591939 0.025053
C26   C     C_R   0.748250 0.497989 0.498921 0.290181
C27   C     C_R   0.025044 0.412038 0.380929 -0.055582
C28   C     C_R   0.050448 0.526555 0.390726 0.084222
C29   C     C_R   0.024685 0.639269 0.403984 0.060864
C30   C     C_R   0.049608 0.305938 0.333850 -0.056130
C31   C     C_R   0.101501 0.751786 0.436601 -0.001196
C32   C     C_R   0.945156 0.744218 0.383966 -0.291646
C33   C     C_R   0.894878 0.741235 0.399492 0.009722
C34   C     C_R   0.593816 0.496651 0.500914 0.901979
C35   C     C_R   0.051001 0.750691 0.425003 -0.261233
C36   C     C_R   0.514222 0.060577 0.620706 0.090464
C37   C     C_R   0.510110 0.128524 0.500814 -0.041856
C38   C     C_R   0.515809 0.067283 0.378758 -0.098194
C39   C     C_R   0.515755 0.938010 0.377571 -0.171830
C40   C     C_R   0.509943 0.870935 0.498428 -0.060045
C41   C     C_R   0.513425 0.932960 0.619762 -0.026823
C42   C     C_3   0.484067 0.922255 0.745431 -0.042286
C43   C     C_3   0.484994 0.064369 0.744902 -0.503154
C44   C     C_R   0.457845 0.490444 0.068720 0.075834
C45   C     C_R   0.178700 0.423268 0.374458 0.524951
C46   C     C_R   0.540097 0.538095 0.073798 0.003079
C47   C     C_R   0.540736 0.532967 0.929793 -0.031773
C48   C     C_R   0.457324 0.496715 0.928093 0.218790
C49   C     C_3   0.413816 0.409777 0.921694 -0.095780
C50   C     C_3   0.416778 0.398456 0.077982 -0.078347
C51   C     C_R   0.176365 0.627617 0.463667 0.533938
C52   C     C_R   0.282748 0.604511 0.372398 0.004459
C53   C     C_R   0.332952 0.608851 0.398133 -0.042377
C54   C     C_R   0.324151 0.437753 0.561818 -0.252855
H1    H     H_    0.340193 0.367594 0.628111 0.150846
H2    H     H_    0.961791 0.833199 0.358392 0.156339
H3    H     H_    0.653468 0.629795 0.653726 0.154680
H4    H     H_    0.032845 0.838298 0.437831 0.164438
H5    H     H_    0.516971 0.117950 0.283790 0.177056
H6    H     H_    0.516741 0.891753 0.282159 0.186027
H7    H     H_    0.449005 0.106787 0.723975 0.231710
H8    H     H_    0.506505 0.105008 0.829089 0.188921
H9    H     H_    0.742107 0.364840 0.341681 0.146905
H10   H     H_    0.975749 0.216428 0.494802 0.163777
N1    N     N_R   0.201394 0.524599 0.428982 -0.340421
N2    N     N_R   0.799914 0.505671 0.486872 -0.346057
N3    N     N_R   0.499670 0.499140 0.142800 -0.171354
N4    N     N_R   0.499670 0.499180 0.857150 -0.169306
O1    O     O_R   0.500010 0.316790 0.614690 -0.616906
O2    O     O_2   0.804864 0.299619 0.568513 -0.499034
O3    O     O_2   0.199167 0.717054 0.535209 -0.508418
O4    O     O_2   0.790944 0.705523 0.391425 -0.510907
O5    O     O_R   0.500000 0.316760 0.385350 -0.602655
O6    O     O_R   0.428760 0.500040 0.614660 -0.580112
O7    O     O_R   0.428750 0.500000 0.385310 -0.587890
O8    O     O_R   0.500000 0.683240 0.614650 -0.668130
O9    O     O_R   0.499990 0.683210 0.385310 -0.615963
O10   O     O_R   0.571250 0.500000 0.614690 -0.634925
O11   O     O_R   0.571240 0.499960 0.385340 -0.610892
O12   O     O_2   0.206143 0.329274 0.331422 -0.568719
Zn1   Zn    Zn3+2 0.500000 0.500020 0.653130 0.981988
Zn2   Zn    Zn3+2 0.500000 0.499980 0.346870 1.011048
N5    N     N_3   0.262321 0.681142 0.266165 -0.466614
H11   H     H_    0.239988 0.748068 0.306729 0.272398
H12   H     H_    0.241439 0.624646 0.202652 0.204583
C55   C     C_2   0.125515 0.876133 0.445274 0.546650
H13   H     H_    0.107857 0.950827 0.497000 0.042737
O13   O     O_2   0.163292 0.899044 0.386966 -0.540948
C56   C     C_2   0.870452 0.863797 0.395320 0.497532
H14   H     H_    0.880539 0.933564 0.320014 0.033339
O14   O     O_2   0.841839 0.891474 0.481639 -0.494278
C57   C     C_2   0.748675 0.648568 0.693400 0.523156
H15   H     H_    0.728130 0.715461 0.748958 0.071043
O15   O     O_2   0.791909 0.637194 0.719547 -0.544761
C58   C     C_2   0.433659 0.865998 0.725584 0.539830
H16   H     H_    0.422060 0.787107 0.787444 0.142524
O16   O     O_2   0.405822 0.906868 0.638940 -0.526231
N6    N     N_3   0.243499 0.360424 0.624528 -0.428122
H17   H     H_    0.253586 0.268400 0.607492 0.223447
H18   H     H_    0.250563 0.378589 0.725632 0.192609
C59   C     C_2   0.512654 0.865886 0.862034 0.310972
H19   H     H_    0.552026 0.863186 0.859119 0.073398
O17   O     O_2   0.492230 0.827952 0.962905 -0.607168
C60   C     C_2   0.579098 0.605887 0.146386 0.496946
H20   H     H_    0.569644 0.679265 0.213982 0.071470
O18   O     O_2   0.621748 0.578933 0.134906 -0.542725
C61   C     C_2   0.583757 0.579539 0.859315 0.534355
H21   H     H_    0.580656 0.658869 0.790524 0.018399
O19   O     O_2   0.622796 0.527875 0.875293 -0.533829
C62   C     C_2   0.368139 0.471134 0.867091 0.456374
H22   H     H_    0.334287 0.418284 0.866284 0.046428
O20   O     O_2   0.368234 0.579591 0.826804 -0.564894
N7    N     N_3   0.423855 0.295557 0.850867 -0.447363
H23   H     H_    0.458006 0.263502 0.881378 0.174077
H24   H     H_    0.398170 0.227649 0.878926 0.181298
N8    N     N_3   0.375105 0.449537 0.147762 -0.388369
H25   H     H_    0.344152 0.396184 0.124514 0.210376
H26   H     H_    0.368512 0.541441 0.115579 0.181200
C63   C     C_2   0.432564 0.273885 0.137519 0.523151
H27   H     H_    0.467321 0.235153 0.111534 0.017641
O21   O     O_2   0.406762 0.215821 0.215827 -0.536051
C64   C     C_2   0.126428 0.197960 0.276706 0.620795
H28   H     H_    0.151143 0.146836 0.342898 0.115513
O22   O     O_2   0.120169 0.164266 0.161465 -0.515475
C65   C     C_2   0.647749 0.318668 0.327336 0.482726
H29   H     H_    0.666088 0.287020 0.239048 0.085348
O23   O     O_2   0.608736 0.271032 0.356010 -0.592594
N9    N     N_3   0.885952 0.180949 0.563675 -0.341509
H30   H     H_    0.891266 0.111649 0.493530 0.198641
H31   H     H_    0.905713 0.156609 0.650702 0.203060
C66   C     C_2   0.020891 0.198530 0.279842 0.417458
H32   H     H_    0.986292 0.215489 0.229104 0.083095
O24   O     O_2   0.034213 0.090902 0.296624 -0.596333
C67   C     C_2   0.362277 0.708287 0.330132 0.497889
H33   H     H_    0.350391 0.747715 0.234103 0.095651
O25   O     O_2   0.398774 0.751585 0.383316 -0.534575

loop_
_geom_bond_atom_site_label_1
_geom_bond_atom_site_label_2
_ccdc_geom_bond_type
C10   C27   A    
C49   N7    S    
C21   C26   A    
C59   H19   S    
C12   O6    A    
C41   C42   S    
C47   N4    A    
C58   H16   S    
C23   O8    A    
N9    H30   S    
C60   O18   D    
C19   O4    S    
C35   H4    S    
N4    Zn1   S    
C20   N2    A    
C28   C29   A    
C5    C6    A    
C3    C52   A    
C55   O13   D    
C9    C22   A    
C30   C66   S    
N8    H25   S    
C19   N2    A    
C18   C19   A    
C51   N1    A    
C62   H22   S    
C54   H1    S    
C24   H3    S    
C61   H21   S    
C8    C12   S    
C56   O14   D    
C1    C37   S    
C65   H29   S    
C59   O17   D    
C31   C55   S    
C21   C22   A    
C27   C30   A    
C61   O19   D    
C20   O2    S    
C36   C41   A    
C3    N1    S    
C51   O3    S    
C4    C7    A    
C60   H20   S    
C4    C28   A    
C63   O21   D    
C7    C31   A    
C15   C16   A    
C42   C58   S    
C26   N2    S    
C24   C25   A    
C2    C54   A    
C8    C54   A    
C39   C40   A    
C55   H13   S    
C16   C17   A    
C22   C65   S    
C67   O25   D    
C25   C26   A    
C5    C45   A    
C1    O1    A    
C50   C63   S    
C8    C53   A    
C52   N5    S    
C37   C38   A    
C33   C56   S    
C34   O11   A    
N5    H11   S    
C16   C20   A    
C14   H10   S    
C57   O15   D    
C17   C18   A    
C36   C43   S    
O7    Zn2   S    
C23   O9    A    
C11   C29   A    
C48   C49   S    
N5    H12   S    
C11   C32   A    
C49   C50   S    
C47   C61   S    
C15   N9    S    
C45   N1    A    
C9    C34   S    
C31   C35   A    
C42   C43   S    
C6    C64   S    
O6    Zn1   S    
C64   O22   D    
C66   H32   S    
C42   C59   S    
O5    Zn2   S    
C52   C53   A    
C43   H7    S    
N7    H23   S    
C44   C50   S    
C46   C47   A    
C40   C41   A    
C25   C57   S    
C6    C30   A    
C53   C67   S    
C4    C5    A    
C66   O24   D    
C10   C13   A    
N9    H31   S    
O8    Zn1   S    
O11   Zn2   S    
C63   H27   S    
C58   O16   D    
C9    C24   A    
C67   H33   S    
C13   C17   A    
C29   C35   A    
N6    H18   S    
C48   N4    A    
C1    O5    A    
C32   C33   A    
C2    C3    A    
C64   H28   S    
C7    C51   A    
C46   N3    A    
C34   O10   A    
C11   C13   A    
O10   Zn1   S    
C38   C39   A    
C46   C60   S    
O9    Zn2   S    
C39   H6    S    
C57   H15   S    
N8    H26   S    
C45   O12   S    
C50   N8    S    
C18   C33   A    
C62   O20   D    
C21   H9    S    
O1    Zn1   S    
C38   H5    S    
C44   C48   A    
C2    N6    S    
N3    Zn2   S    
C36   C37   A    
N6    H17   S    
C12   O7    A    
C27   C28   A    
C65   O23   D    
C14   C15   A    
C44   N3    A    
C56   H14   S    
C32   H2    S    
C23   C40   S    
C43   H8    S    
C10   C14   A    
C49   C62   S    
N7    H24   S    
