data_mof_unit_24022.cif
_audit_creation_date              2013-03-05T15:46:33-0500
_audit_creation_method            fapswitch 2.2
_symmetry_space_group_name_H-M    P1
_symmetry_Int_Tables_number       1
_space_group_crystal_system       triclinic
_cell_length_a                    10.182655
_cell_length_b                    10.625575
_cell_length_c                    10.590251
_cell_angle_alpha                 90.441349
_cell_angle_beta                  92.586583
_cell_angle_gamma                 83.892654
_cell_volume                      1138.15976691

loop_
_atom_site_label
_atom_site_type_symbol
_atom_site_description
_atom_site_fract_x
_atom_site_fract_y
_atom_site_fract_z
_atom_type_partial_charge
O1    O     O_R   0.568940 0.489660 0.307530 -0.574520
O2    O     O_R   0.431060 0.510340 0.692470 -0.571218
O3    O     O_R   0.348880 0.522640 0.340350 -0.621189
O4    O     O_R   0.651120 0.477360 0.659650 -0.624537
C1    C     C_R   0.447456 0.512421 0.266275 0.848058
C2    C     C_R   0.553319 0.495867 0.734004 0.857595
O5    O     O_R   0.610030 0.300280 0.483580 -0.620994
O6    O     O_R   0.389970 0.699720 0.516420 -0.617334
O7    O     O_R   0.389970 0.333270 0.516400 -0.554232
O8    O     O_R   0.610030 0.666730 0.483600 -0.536156
C3    C     C_R   0.492689 0.261392 0.481604 0.893481
C4    C     C_R   0.506374 0.740227 0.513708 0.923121
Zn1   Zn    Zn3+2 0.646940 0.477980 0.478080 0.993748
Zn2   Zn    Zn3+2 0.353060 0.522020 0.521920 0.992312
C5    C     C_R   0.677944 0.094091 0.332114 -0.182894
C6    C     C_R   0.312004 0.912344 0.647425 -0.189485
C7    C     C_R   0.798934 0.024590 0.308479 0.193607
C8    C     C_R   0.189187 0.981183 0.665074 0.187500
C9    C     C_R   0.840475 0.915501 0.381701 0.114344
C10   C     C_R   0.150203 0.088468 0.588866 0.107926
C11   C     C_R   0.752198 0.873348 0.469241 0.452805
C12   C     C_R   0.242972 0.130428 0.506266 0.442114
C13   C     C_R   0.620226 0.930938 0.471043 0.001479
C14   C     C_R   0.374697 0.072549 0.509826 -0.000330
C15   C     C_R   0.591928 0.051122 0.418562 -0.064098
C16   C     C_R   0.401827 0.953135 0.563360 -0.071157
C17   C     C_R   0.516888 0.876281 0.529438 -0.113418
C18   C     C_R   0.479176 0.127593 0.456032 -0.111563
H1    H     H_    0.648975 0.181372 0.281018 0.162534
H2    H     H_    0.338519 0.826975 0.700728 0.221255
C19   C     C_2   0.424732 0.536429 0.131380 0.189961
C20   C     C_2   0.580207 0.509771 0.869759 0.204684
C21   C     C_2   0.513595 0.596592 0.071230 0.366081
C22   C     C_2   0.505366 0.598733 0.933227 0.366273
H3    H     H_    0.897525 0.539858 0.606833 0.175003
H4    H     H_    0.101694 0.462417 0.392060 0.174238
N1    N     N_2   0.157300 0.551390 0.551120 -0.063942
N2    N     N_2   0.842700 0.448610 0.448880 -0.063171
C23   C     C_2   0.069595 0.502533 0.481029 -0.039015
C24   C     C_2   0.929566 0.500042 0.517658 -0.046149
C25   C     C_3   0.014537 0.161189 0.597254 -0.881572
H5    H     H_    0.956690 0.129946 0.674928 0.255449
H6    H     H_    0.025656 0.262637 0.614295 0.249759
H7    H     H_    0.954973 0.150537 0.508258 0.242640
C26   C     C_3   0.975298 0.842731 0.366687 -0.889305
H8    H     H_    0.026924 0.871830 0.283762 0.258105
H9    H     H_    0.040393 0.856238 0.451535 0.243525
H10   H     H_    0.964230 0.740528 0.354092 0.248628
C27   C     C_3   0.883634 0.072303 0.209828 -0.896546
H11   H     H_    0.900707 0.999831 0.134596 0.253870
H12   H     H_    0.835887 0.160122 0.163856 0.242228
H13   H     H_    0.979737 0.093561 0.253920 0.241330
C28   C     C_3   0.100692 0.935367 0.761435 -0.896093
H14   H     H_    0.078878 0.010117 0.833591 0.253296
H15   H     H_    0.007095 0.911204 0.714276 0.248504
H16   H     H_    0.147717 0.849848 0.811876 0.242046
O9    O     O_3   0.794193 0.786408 0.562660 -0.775147
H17   H     H_    0.891275 0.772871 0.567341 0.326103
O10   O     O_3   0.206710 0.219917 0.414058 -0.778097
H18   H     H_    0.111101 0.221983 0.395080 0.322396
O11   O     O_3   0.414156 0.684415 0.870762 -0.831452
H19   H     H_    0.368934 0.740324 0.934516 0.334296
O12   O     O_3   0.614880 0.649513 0.137028 -0.769620
H20   H     H_    0.668782 0.687958 0.074992 0.338642
O13   O     O_3   0.677975 0.431184 0.933553 -0.796710
H21   H     H_    0.718640 0.369389 0.872296 0.336884
O14   O     O_3   0.317545 0.494584 0.064704 -0.784441
H22   H     H_    0.266986 0.448546 0.123792 0.342081
C29   C     C_3   0.867184 0.416409 0.317865 -0.552315
H23   H     H_    0.782432 0.371542 0.275596 0.239991
H24   H     H_    0.878928 0.502977 0.263040 0.218532
H25   H     H_    0.953446 0.345714 0.309025 0.150010
C30   C     C_3   0.129773 0.589614 0.679961 -0.584510
H26   H     H_    0.215538 0.632157 0.722740 0.272792
H27   H     H_    0.045497 0.663822 0.683429 0.162852
H28   H     H_    0.112413 0.506295 0.737314 0.209137

loop_
_geom_bond_atom_site_label_1
_geom_bond_atom_site_label_2
_geom_bond_distance
_ccdc_geom_bond_type
C29   H25   1.100229 S    
O5    C3    1.304414 A    
O7    Zn2   2.001699 S    
C19   C21   1.347077 D    
C11   O9    1.380888 S    
C13   C17   1.421707 A    
C25   H6    1.108360 S    
C25   H5    1.106058 S    
C2    C20   1.460661 S    
O11   H19   0.992216 S    
O6    C4    1.304926 A    
C21   O12   1.384896 S    
C27   H13   1.109446 S    
C28   H16   1.110023 S    
C27   H12   1.110512 S    
C28   H15   1.109418 S    
C21   C22   1.460319 S    
Zn1   N2    2.021946 S    
N2    C29   1.452610 S    
C29   H24   1.111491 S    
O10   H18   0.983120 S    
N1    C23   1.284881 D    
C26   H8    1.106167 S    
Zn2   N1    2.021948 S    
N2    C24   1.284588 D    
C30   H27   1.103599 S    
C14   C16   1.389267 A    
O7    C3    1.293670 A    
O9    H17   0.982752 S    
O2    C2    1.295310 A    
O3    Zn2   1.921467 S    
O8    C4    1.294900 A    
C3    C18   1.464856 S    
O1    C1    1.291818 A    
C6    C16   1.407407 A    
O4    C2    1.295066 A    
C9    C11   1.426672 A    
C10   C12   1.423562 A    
C5    H1    1.083980 S    
C8    C10   1.413296 A    
C26   H9    1.109904 S    
C11   C13   1.416984 A    
C16   C17   1.413691 A    
C29   H23   1.105362 S    
O2    Zn2   1.939452 S    
C25   H7    1.109210 S    
C12   C14   1.413862 A    
C5    C15   1.406297 A    
O1    Zn1   1.939450 S    
O13   H21   0.991598 S    
C19   O14   1.384348 S    
C4    C17   1.468579 S    
H3    C24   1.081472 S    
O14   H22   0.991604 S    
C23   C24   1.497458 S    
C15   C18   1.404821 A    
O5    Zn1   1.965830 S    
C13   C15   1.393162 A    
C30   H28   1.111400 S    
C14   C18   1.410919 A    
C6    C8    1.399391 A    
C27   H11   1.110201 S    
C30   H26   1.103364 S    
C26   H10   1.110079 S    
C7    C27   1.508269 S    
C12   O10   1.378812 S    
C5    C7    1.399006 A    
N1    C30   1.451564 S    
O6    Zn2   1.965831 S    
O3    C1    1.296651 A    
C8    C28   1.508114 S    
C7    C9    1.415541 A    
C28   H14   1.110193 S    
C6    H2    1.075361 S    
H4    C23   1.080849 S    
C22   O11   1.379476 S    
C9    C26   1.516511 S    
O12   H20   0.992041 S    
O4    Zn1   1.921468 S    
C10   C25   1.515329 S    
C20   O13   1.384163 S    
C1    C19   1.456931 S    
O8    Zn1   2.001700 S    
C20   C22   1.345076 D    
