data_mof_unit_6948.cif
_audit_creation_date              2012-12-10T19:01:22-0500
_audit_creation_method            fapswitch 2.2
_symmetry_space_group_name_H-M    P1
_symmetry_Int_Tables_number       1
_space_group_crystal_system       triclinic
_cell_length_a                    9.545427
_cell_length_b                    10.853516
_cell_length_c                    15.498855
_cell_angle_alpha                 89.492329
_cell_angle_beta                  73.56679
_cell_angle_gamma                 90.058591
_cell_volume                      1540.04014731

loop_
_atom_site_label
_atom_site_type_symbol
_atom_type_description
_atom_site_fract_x
_atom_site_fract_y
_atom_site_fract_z
_atom_type_partial_charge
C1    C     C_R   0.999607 0.262565 0.500289 0.809854
C2    C     C_R   0.681751 0.459500 0.911835 0.019540
C3    C     C_R   0.778002 0.502425 0.960173 -0.049576
C4    C     C_R   0.536551 0.423629 0.959497 0.045648
C5    C     C_R   0.488739 0.438471 0.054173 -0.041607
C6    C     C_R   0.594647 0.457392 0.101278 0.129505
C7    C     C_R   0.733353 0.502573 0.054551 0.417383
C8    C     C_R   0.436952 0.373030 0.916592 -0.194145
C9    C     C_R   0.292111 0.349254 0.964217 -0.256833
C10   C     C_R   0.239367 0.383310 0.054027 0.131901
C11   C     C_R   0.336557 0.432786 0.098637 0.114432
C12   C     C_R   0.917460 0.501416 0.672321 0.821860
C13   C     C_R   0.090344 0.370421 0.099682 -0.148230
C14   C     C_R   0.036652 0.409770 0.188548 -0.126721
C15   C     C_R   0.277713 0.482091 0.184662 -0.208795
C16   C     C_R   0.127871 0.063575 0.474010 0.130111
C17   C     C_R   0.998084 0.129610 0.497960 -0.149269
C18   C     C_R   0.864467 0.066133 0.519232 -0.250686
C19   C     C_R   0.860321 0.937006 0.524991 0.249190
C20   C     C_R   0.994501 0.871559 0.504186 -0.176952
C21   C     C_R   0.126104 0.936590 0.476415 0.081938
C22   C     C_3   0.253087 0.932088 0.514796 -0.457707
C23   C     C_R   0.998033 0.737648 0.503262 0.810004
C24   C     C_3   0.255056 0.071472 0.511738 -0.466222
C25   C     C_R   0.589002 0.599271 0.467232 0.302306
C26   C     C_R   0.555215 0.408652 0.541547 -0.102484
C27   C     C_R   0.406301 0.408776 0.541695 -0.086946
C28   C     C_R   0.441887 0.598921 0.466636 0.270966
C29   C     C_3   0.481351 0.648064 0.372629 -0.543263
C30   C     C_3   0.639542 0.650961 0.374354 -0.517120
C31   C     C_R   0.082738 0.494580 0.327859 0.797104
C32   C     C_R   0.872310 0.501913 0.771286 -0.145797
C33   C     C_R   0.130371 0.466818 0.231263 -0.101411
C34   C     C_R   0.919154 0.543509 0.913676 -0.247734
C35   C     C_R   0.967700 0.542650 0.819656 0.469779
C36   C     C_R   0.731688 0.460777 0.817218 -0.294714
Cu1   Cu    Cu3+1 0.140670 0.499980 0.500000 0.960303
Cu2   Cu    Cu3+1 0.859330 0.500020 0.500000 0.936809
H1    H     H_    0.015628 0.329489 0.066801 0.149579
H2    H     H_    0.763825 0.117907 0.537614 0.169902
H3    H     H_    0.224013 0.893201 0.584279 0.211823
H4    H     H_    0.351134 0.891537 0.467507 0.190539
H5    H     H_    0.226808 0.113710 0.579581 0.192724
H6    H     H_    0.353685 0.110439 0.462389 0.193273
H7    H     H_    0.595848 0.333546 0.573871 0.134390
H8    H     H_    0.335632 0.334009 0.574347 0.133669
H9    H     H_    0.460135 0.580266 0.324999 0.227821
H10   H     H_    0.345493 0.534583 0.216014 0.171505
H11   H     H_    0.435982 0.740795 0.367263 0.191081
H12   H     H_    0.711149 0.586637 0.326296 0.218105
H13   H     H_    0.683764 0.745923 0.373334 0.208896
H14   H     H_    0.922616 0.394584 0.223961 0.168818
H15   H     H_    0.219404 0.309586 0.929343 0.136405
H16   H     H_    0.991687 0.579095 0.950101 0.193116
H17   H     H_    0.662059 0.432671 0.777101 0.162782
H18   H     H_    0.467971 0.348248 0.846611 0.130920
N1    N     N_R   0.648210 0.500930 0.499430 -0.186932
N2    N     N_R   0.352300 0.500890 0.499430 -0.178196
O1    O     O_R   0.118810 0.319640 0.500000 -0.585638
O2    O     O_R   0.881230 0.319680 0.499990 -0.594546
O3    O     O_R   0.055580 0.499970 0.629840 -0.536007
O4    O     O_R   0.818000 0.500010 0.629830 -0.598449
O5    O     O_R   0.118770 0.680320 0.500010 -0.572218
O6    O     O_R   0.881190 0.680360 0.500000 -0.562802
O7    O     O_R   0.182000 0.499990 0.370170 -0.573446
O8    O     O_R   0.944420 0.500030 0.370160 -0.584451
O9    O     O_3   0.829580 0.538825 0.101530 -0.600194
C37   C     C_3   0.801478 0.663090 0.126223 -0.386611
H19   H     H_    0.687714 0.676084 0.169535 0.171470
H20   H     H_    0.822679 0.724276 0.065868 0.174145
H21   H     H_    0.876481 0.691518 0.165615 0.200566
N3    N     N_2   0.724790 0.872926 0.560316 -0.402330
H22   H     H_    0.717915 0.821750 0.617793 0.257331
C38   C     C_3   0.589289 0.929369 0.556989 -0.717417
H23   H     H_    0.557723 0.003174 0.607947 0.218649
H24   H     H_    0.501918 0.858277 0.572744 0.230802
H25   H     H_    0.599541 0.967059 0.488583 0.232866
O10   O     O_3   0.100733 0.595623 0.774374 -0.570272
C39   C     C_3   0.215787 0.526398 0.790623 -0.304862
H26   H     H_    0.319114 0.554048 0.740307 0.189968
H27   H     H_    0.201413 0.425566 0.782849 0.141403
H28   H     H_    0.228124 0.546894 0.858134 0.171841
N4    N     N_2   0.567405 0.420538 0.193385 -0.440623
H29   H     H_    0.638189 0.456333 0.225978 0.280574
C40   C     C_3   0.545934 0.289532 0.210394 -0.677034
H30   H     H_    0.519927 0.271143 0.283864 0.223996
H31   H     H_    0.647053 0.238900 0.175714 0.218655
H32   H     H_    0.453565 0.254902 0.187057 0.241991

loop_
_geom_bond_atom_site_label_1
_geom_bond_atom_site_label_2
_ccdc_geom_bond_type
C8    C9    A    
C31   O8    A    
C30   H13   S    
C16   C21   A    
C19   C20   A    
C4    C8    A    
C8    H18   S    
C14   C33   A    
C29   H11   S    
C40   H30   S    
C25   C28   A    
C26   C27   A    
C29   C30   S    
C38   H24   S    
C29   H9    S    
C32   C36   A    
C28   C29   S    
C5    C11   A    
C3    C7    A    
C1    O1    A    
C5    C6    A    
C22   H3    S    
C34   C35   A    
C18   H2    S    
C26   H7    S    
C37   H19   S    
C11   C15   A    
C14   H14   S    
Cu2   O8    S    
C16   C17   A    
C38   H25   S    
Cu1   O7    S    
C31   C33   S    
C9    C10   A    
Cu1   N2    S    
C23   O5    A    
C30   H12   S    
C16   C24   S    
C13   C14   A    
C12   C32   S    
C19   N3    S    
C25   N1    A    
C15   H10   S    
Cu1   O5    S    
Cu2   O6    S    
C40   H31   S    
C38   H23   S    
O9    C37   S    
C32   C35   A    
N3    C38   S    
C1    O2    A    
C39   H27   S    
O10   C39   S    
C18   C19   A    
C3    C34   A    
C27   N2    A    
C2    C4    A    
Cu1   Cu2   S    
Cu2   N1    S    
C12   O4    A    
N4    H29   S    
C20   C23   S    
C17   C18   A    
Cu1   O1    S    
Cu2   O2    S    
C27   H8    S    
C23   O6    A    
N4    C40   S    
C34   H16   S    
C24   H6    S    
C22   C24   S    
C9    H15   S    
C40   H32   S    
C2    C36   A    
C25   C30   S    
C31   O7    A    
C6    N4    S    
N3    H22   S    
C10   C13   A    
C39   H28   S    
Cu1   O3    S    
C6    C7    A    
C28   N2    A    
C35   O10   S    
C1    C17   S    
C2    C3    A    
C36   H17   S    
C12   O3    A    
C22   H4    S    
C37   H21   S    
C26   N1    A    
C13   H1    S    
C10   C11   A    
C7    O9    S    
C39   H26   S    
C4    C5    A    
C20   C21   A    
C37   H20   S    
C24   H5    S    
C21   C22   S    
C15   C33   A    
Cu2   O4    S    
