data_mof_unit_65777.cif
_audit_creation_date              2012-12-10T19:07:50-0500
_audit_creation_method            fapswitch 2.2
_symmetry_space_group_name_H-M    P1
_symmetry_Int_Tables_number       1
_space_group_crystal_system       triclinic
_cell_length_a                    25.598925
_cell_length_b                    34.569175
_cell_length_c                    21.467278
_cell_angle_alpha                 90.000154
_cell_angle_beta                  126.480254
_cell_angle_gamma                 89.999989
_cell_volume                      15274.8571625

loop_
_atom_site_label
_atom_site_type_symbol
_atom_type_description
_atom_site_fract_x
_atom_site_fract_y
_atom_site_fract_z
_atom_type_partial_charge
C1    C     C_R   0.141602 0.250008 0.000055 0.804567
C2    C     C_3   0.758121 0.214123 0.981303 -0.209144
C3    C     C_R   0.989688 0.917886 0.937095 -0.190585
C4    C     C_R   0.489362 0.582125 0.936916 -0.190091
C5    C     C_R   0.473408 0.417898 0.031530 -0.190739
C6    C     C_R   0.510638 0.582125 0.063083 -0.190086
C7    C     C_R   0.526592 0.417898 0.968470 -0.190737
C8    C     C_R   1.000000 0.102498 1.000000 0.002832
C9    C     C_R   1.000000 0.897504 0.000000 0.000974
C10   C     C_R   0.500000 0.602504 1.000000 0.001430
C11   C     C_R   0.500000 0.397512 0.000000 0.001839
C12   C     C_R   0.000000 0.021337 1.000000 0.113987
C13   C     C_3   0.758237 0.785827 0.981481 -0.208992
C14   C     C_R   0.000000 0.978666 0.000000 0.113862
C15   C     C_R   0.499999 0.521346 1.000000 0.114021
C16   C     C_R   0.499999 0.478677 1.000000 0.114026
C17   C     C_R   0.000000 0.144864 1.000000 0.781121
C18   C     C_R   1.000000 0.855137 0.000000 0.783183
C19   C     C_R   0.500000 0.644866 1.000000 0.781223
C20   C     C_R   0.500000 0.355140 0.000000 0.783199
C21   C     C_R   0.000000 0.355138 0.000000 0.784663
C22   C     C_R   1.000000 0.644861 1.000000 0.785222
C23   C     C_R   0.500000 0.855138 0.000000 0.784624
C24   C     C_3   0.241883 0.214125 0.018707 -0.209146
C25   C     C_R   0.500000 0.144862 1.000000 0.785150
C26   C     C_R   0.057871 0.458148 0.030487 -0.181036
C27   C     C_R   0.947690 0.541849 0.936946 -0.180769
C28   C     C_R   0.942129 0.458147 0.969513 -0.181037
C29   C     C_R   0.052310 0.541849 0.063054 -0.180769
C30   C     C_R   0.552242 0.958149 0.063118 -0.180736
C31   C     C_R   0.442114 0.041850 0.969385 -0.180872
C32   C     C_R   0.447758 0.958149 0.936883 -0.180735
C33   C     C_R   0.557886 0.041850 0.030615 -0.180871
C34   C     C_R   0.057948 0.417888 0.031005 -0.189369
C35   C     C_3   0.741752 0.285830 0.018497 -0.210869
C36   C     C_R   0.947478 0.582108 0.937218 -0.188265
C37   C     C_R   0.942052 0.417888 0.968995 -0.189369
C38   C     C_R   0.052522 0.582108 0.062782 -0.188265
C39   C     C_R   0.552455 0.917889 0.062847 -0.189185
C40   C     C_R   0.442038 0.082109 0.968871 -0.188087
C41   C     C_R   0.447545 0.917889 0.937153 -0.189182
C42   C     C_R   0.557962 0.082109 0.031128 -0.188087
C43   C     C_R   1.000000 0.397505 0.000000 0.001476
C44   C     C_R   1.000000 0.602493 0.000000 0.001399
C45   C     C_R   0.500000 0.897506 0.000000 0.002822
C46   C     C_3   0.258106 0.714128 0.981271 -0.207195
C47   C     C_R   0.500000 0.102493 1.000000 0.001230
C48   C     C_R   1.000000 0.478665 0.000000 0.113912
C49   C     C_R   1.000000 0.521332 0.000000 0.113641
C50   C     C_R   0.500000 0.978666 0.000000 0.113937
C51   C     C_R   0.500000 0.021333 0.000000 0.113557
C52   C     C_3   0.740751 0.276028 0.946984 -0.212164
C53   C     C_3   0.259115 0.723915 0.052798 -0.213105
C54   C     C_3   0.259245 0.276032 0.053008 -0.212163
C55   C     C_3   0.740882 0.723918 0.947195 -0.213107
C56   C     C_3   0.240762 0.776040 0.947007 -0.210704
C57   C     C_3   0.258243 0.285829 0.981493 -0.210865
C58   C     C_3   0.759126 0.223926 0.052821 -0.214566
C59   C     C_3   0.759241 0.776036 0.053000 -0.210703
C60   C     C_3   0.240877 0.223922 0.947187 -0.214565
C61   C     C_3   0.741890 0.714127 0.018719 -0.207190
C62   C     C_3   0.198956 0.749995 0.000617 0.014802
C63   C     C_3   0.800935 0.249959 0.999208 0.016303
C64   C     C_3   0.801044 0.749995 0.999382 0.014802
C65   C     C_R   0.858434 0.749971 0.000002 0.805488
C66   C     C_3   0.199064 0.249960 0.000792 0.016298
C67   C     C_3   0.698956 0.249995 0.000617 0.016386
C68   C     C_3   0.300936 0.749960 0.999208 0.014754
C69   C     C_3   0.301044 0.249995 0.999383 0.016383
C70   C     C_3   0.699065 0.749960 0.000792 0.014753
C71   C     C_3   0.198478 0.740441 0.930990 0.139992
C72   C     C_3   0.801381 0.259531 0.068805 0.140882
C73   C     C_3   0.801521 0.740437 0.069007 0.139986
C74   C     C_3   0.198618 0.259526 0.931193 0.140873
C75   C     C_3   0.698482 0.240426 0.930998 0.141167
C76   C     C_R   0.858398 0.250008 0.999945 0.804571
C77   C     C_3   0.301385 0.759516 0.068813 0.139721
C78   C     C_3   0.301519 0.240431 0.069005 0.141175
C79   C     C_3   0.698616 0.759520 0.931190 0.139716
C80   C     C_R   0.221255 0.281874 0.417203 -0.174060
C81   C     C_R   0.746609 0.745473 0.584019 -0.238483
C82   C     C_R   0.778751 0.281873 0.582797 -0.174042
C83   C     C_R   0.253390 0.745488 0.415978 -0.238480
C84   C     C_R   0.721170 0.781856 0.417213 -0.174391
C85   C     C_R   0.246584 0.245606 0.584037 -0.238008
C86   C     C_R   0.278788 0.781847 0.582786 -0.174391
C87   C     C_R   0.141566 0.749971 0.999998 0.805484
C88   C     C_R   0.753412 0.245582 0.415964 -0.238004
C89   C     C_R   0.181554 0.282008 0.336691 -0.250841
C90   C     C_R   0.787251 0.745356 0.664509 -0.220076
C91   C     C_R   0.818452 0.282009 0.663309 -0.250829
C92   C     C_R   0.212749 0.745371 0.335489 -0.220082
C93   C     C_R   0.681464 0.782007 0.336701 -0.251899
C94   C     C_R   0.287232 0.245465 0.664525 -0.218771
C95   C     C_R   0.318494 0.781997 0.663298 -0.251907
C96   C     C_R   0.712765 0.245443 0.335476 -0.218768
C97   C     C_R   0.148582 0.248362 0.295361 -0.043451
C98   C     C_R   0.641602 0.750008 0.000055 0.806197
C99   C     C_R   0.854551 0.749226 0.704868 -0.048497
C100  C     C_R   0.851417 0.248360 0.704640 -0.043446
C101  C     C_R   0.145448 0.749226 0.295130 -0.048475
C102  C     C_R   0.648596 0.748344 0.295349 -0.042548
C103  C     C_R   0.354544 0.249240 0.704876 -0.047880
C104  C     C_R   0.351403 0.748343 0.704649 -0.042583
C105  C     C_R   0.645455 0.249239 0.295125 -0.047907
C106  C     C_R   0.156884 0.213874 0.335722 0.097108
C107  C     C_R   0.881463 0.752541 0.663362 0.041606
C108  C     C_R   0.843106 0.213868 0.664282 0.097096
C109  C     C_R   0.358434 0.249971 0.000002 0.803802
C110  C     C_R   0.118535 0.752529 0.336635 0.041604
C111  C     C_R   0.657012 0.713823 0.335678 0.098649
C112  C     C_R   0.381460 0.252489 0.663369 0.042275
C113  C     C_R   0.343028 0.713831 0.664317 0.098664
C114  C     C_R   0.618541 0.252506 0.336633 0.042281
C115  C     C_R   0.197331 0.213688 0.417099 0.061560
C116  C     C_R   0.840156 0.752069 0.581987 0.120914
C117  C     C_R   0.802658 0.213681 0.582904 0.061545
C118  C     C_R   0.159841 0.752057 0.418009 0.120913
C119  C     C_R   0.697464 0.713621 0.417058 0.061962
C120  C     C_R   0.358398 0.750008 0.999945 0.806192
C121  C     C_R   0.340146 0.252038 0.581995 0.121160
C122  C     C_R   0.302575 0.713629 0.582938 0.061948
C123  C     C_R   0.659854 0.252054 0.418007 0.121152
C124  C     C_R   0.229075 0.248044 0.457717 0.080038
C125  C     C_R   0.772725 0.748639 0.542624 0.064929
C126  C     C_R   0.770923 0.248039 0.542284 0.080039
C127  C     C_R   0.227272 0.748640 0.457373 0.064938
C128  C     C_R   0.729100 0.747993 0.457702 0.079992
C129  C     C_R   0.272705 0.248698 0.542637 0.064787
C130  C     C_R   0.270898 0.747993 0.542296 0.079999
C131  C     C_R   0.641566 0.249971 0.999998 0.803804
C132  C     C_R   0.727293 0.248693 0.457364 0.064793
C133  C     C_R   0.027155 0.041857 0.969132 -0.181784
C134  C     C_R   0.010805 0.958146 0.063181 -0.181315
C135  C     C_R   0.972845 0.041857 0.030867 -0.181783
C136  C     C_R   0.989195 0.958146 0.936819 -0.181314
C137  C     C_R   0.488885 0.541864 0.936653 -0.182038
C138  C     C_R   0.472974 0.458159 0.031023 -0.181186
C139  C     C_R   0.511114 0.541864 0.063347 -0.182040
C140  C     C_R   0.527025 0.458159 0.968976 -0.181186
C141  C     C_R   0.894514 0.249599 0.789667 0.817114
C142  C     C_3   0.241767 0.785826 0.018528 -0.208997
C143  C     C_R   0.104455 0.749680 0.210243 0.787377
C144  C     C_R   0.105486 0.249600 0.210333 0.817110
C145  C     C_R   0.895545 0.749680 0.789756 0.787380
C146  C     C_R   0.394512 0.749597 0.789670 0.816080
C147  C     C_R   0.604455 0.249681 0.210241 0.788667
C148  C     C_R   0.605487 0.749597 0.210329 0.816093
C149  C     C_R   0.395545 0.249681 0.789759 0.788657
C150  C     C_R   0.026708 0.082116 0.968608 -0.189945
C151  C     C_R   0.010312 0.917886 0.062905 -0.190585
C152  C     C_R   0.973292 0.082116 0.031392 -0.189944
H1    H     H_    0.103157 0.402722 0.054654 0.155773
H2    H     H_    0.907279 0.526815 0.886935 0.130006
H3    H     H_    0.892694 0.780293 0.553820 0.193209
H4    H     H_    0.743073 0.172279 0.505831 0.196454
H5    H     H_    0.809966 0.181471 0.509396 0.186888
H6    H     H_    0.101530 0.731399 0.444890 0.198412
H7    H     H_    0.107291 0.780263 0.446178 0.193204
H8    H     H_    0.757175 0.672244 0.494084 0.195967
H9    H     H_    0.690280 0.681326 0.490571 0.186564
H10   H     H_    0.398380 0.231279 0.555080 0.198469
H11   H     H_    0.392780 0.280151 0.553844 0.193498
H12   H     H_    0.242916 0.672239 0.505900 0.195976
H13   H     H_    0.897035 0.473182 0.946933 0.130002
H14   H     H_    0.309811 0.681362 0.509439 0.186553
H15   H     H_    0.601594 0.231328 0.444914 0.198479
H16   H     H_    0.607249 0.280198 0.446166 0.193485
H17   H     H_    0.092721 0.526815 0.113065 0.130006
H18   H     H_    0.592596 0.973183 0.113175 0.129853
H19   H     H_    0.397005 0.026815 0.946701 0.130024
H20   H     H_    0.407404 0.973183 0.886825 0.129853
H21   H     H_    0.602995 0.026815 0.053299 0.130024
H22   H     H_    0.049496 0.026826 0.946254 0.129684
H23   H     H_    0.020457 0.973177 0.113293 0.129854
H24   H     H_    0.950504 0.026827 0.053745 0.129684
H25   H     H_    0.906661 0.597273 0.887834 0.156258
H26   H     H_    0.979543 0.973176 0.886706 0.129853
H27   H     H_    0.479001 0.526829 0.886428 0.130011
H28   H     H_    0.450747 0.473195 0.054036 0.129678
H29   H     H_    0.520999 0.526829 0.113571 0.130011
H30   H     H_    0.549253 0.473195 0.945963 0.129679
H31   H     H_    0.048078 0.097283 0.944647 0.155163
H32   H     H_    0.018918 0.902719 0.112382 0.155411
H33   H     H_    0.951922 0.097283 0.055352 0.155164
H34   H     H_    0.981082 0.902718 0.887618 0.155410
H35   H     H_    0.480487 0.597298 0.887300 0.157319
H36   H     H_    0.896843 0.402722 0.945347 0.155774
H37   H     H_    0.452125 0.402733 0.055598 0.154631
H38   H     H_    0.519513 0.597298 0.112699 0.157320
H39   H     H_    0.547875 0.402733 0.944401 0.154632
H40   H     H_    0.235266 0.814817 0.035267 0.142914
H41   H     H_    0.764635 0.185128 0.964591 0.140882
H42   H     H_    0.764742 0.814819 0.964750 0.142917
H43   H     H_    0.235374 0.185131 0.035427 0.140881
H44   H     H_    0.735235 0.314825 0.035208 0.140788
H45   H     H_    0.264604 0.685137 0.964532 0.143073
H46   H     H_    0.264756 0.314822 0.964774 0.140786
H47   H     H_    0.093339 0.597273 0.112166 0.156258
H48   H     H_    0.735388 0.685135 0.035450 0.143075
H49   H     H_    0.733032 0.296698 0.902633 0.153598
H50   H     H_    0.266823 0.703237 0.097133 0.153619
H51   H     H_    0.266961 0.296705 0.097353 0.153597
H52   H     H_    0.733170 0.703244 0.902854 0.153617
H53   H     H_    0.233052 0.796718 0.902673 0.154854
H54   H     H_    0.766843 0.203258 0.097173 0.152360
H55   H     H_    0.766954 0.796712 0.097340 0.154856
H56   H     H_    0.233164 0.203250 0.902841 0.152362
H57   H     H_    0.154489 0.725353 0.818809 0.181553
H58   H     H_    0.593216 0.902723 0.112280 0.154452
H59   H     H_    0.109252 0.753514 0.833269 0.190417
H60   H     H_    0.845205 0.274754 0.180869 0.176458
H61   H     H_    0.890484 0.246465 0.166679 0.192991
H62   H     H_    0.845508 0.725340 0.181183 0.181555
H63   H     H_    0.890747 0.753504 0.166733 0.190415
H64   H     H_    0.154792 0.274737 0.819122 0.176466
H65   H     H_    0.109515 0.246454 0.833333 0.193007
H66   H     H_    0.654498 0.225314 0.818829 0.181540
H67   H     H_    0.609249 0.253476 0.833267 0.190282
H68   H     H_    0.345214 0.774714 0.180890 0.176425
H69   H     H_    0.396815 0.097274 0.945123 0.156016
H70   H     H_    0.390481 0.746428 0.166677 0.193136
H71   H     H_    0.345505 0.225331 0.181180 0.181539
H72   H     H_    0.390752 0.253488 0.166729 0.190285
H73   H     H_    0.654789 0.774728 0.819118 0.176426
H74   H     H_    0.609519 0.746439 0.833322 0.193131
H75   H     H_    0.246056 0.308237 0.448203 0.149378
H76   H     H_    0.694588 0.743068 0.553786 0.147821
H77   H     H_    0.753957 0.308238 0.551795 0.149371
H78   H     H_    0.305411 0.743095 0.446211 0.147816
H79   H     H_    0.745888 0.808232 0.448232 0.148768
H80   H     H_    0.406784 0.902723 0.887720 0.154451
H81   H     H_    0.194556 0.243271 0.553809 0.147850
H82   H     H_    0.254040 0.808217 0.551768 0.148775
H83   H     H_    0.805439 0.243231 0.446192 0.147842
H84   H     H_    0.175826 0.308636 0.306596 0.167617
H85   H     H_    0.765982 0.742884 0.695429 0.158236
H86   H     H_    0.824187 0.308640 0.693402 0.167604
H87   H     H_    0.234019 0.742909 0.304569 0.158224
H88   H     H_    0.675644 0.808660 0.306622 0.165707
H89   H     H_    0.265962 0.243048 0.695453 0.158073
H90   H     H_    0.324281 0.808643 0.693376 0.165740
H91   H     H_    0.603184 0.097274 0.054877 0.156017
H92   H     H_    0.734034 0.243012 0.304549 0.158091
H93   H     H_    0.161609 0.158081 0.310661 0.191391
H94   H     H_    0.096590 0.168813 0.309814 0.199577
H95   H     H_    0.973082 0.732210 0.741661 0.187858
H96   H     H_    0.967155 0.781308 0.731691 0.215264
H97   H     H_    0.838365 0.158077 0.689338 0.191397
H98   H     H_    0.903394 0.168802 0.690195 0.199575
H99   H     H_    0.026925 0.732187 0.258334 0.187846
H100  H     H_    0.032834 0.781284 0.268303 0.215263
H101  H     H_    0.661922 0.658071 0.310557 0.189454
H102  H     H_    0.102965 0.473182 0.053067 0.130002
H103  H     H_    0.596865 0.668667 0.309719 0.198634
H104  H     H_    0.473007 0.232053 0.741642 0.187756
H105  H     H_    0.467250 0.281153 0.731733 0.215678
H106  H     H_    0.338197 0.658065 0.689437 0.189456
H107  H     H_    0.403235 0.668711 0.690269 0.198620
H108  H     H_    0.526976 0.232092 0.258356 0.187776
H109  H     H_    0.532770 0.281193 0.268277 0.215681
H110  H     H_    0.256905 0.172282 0.494165 0.196447
H111  H     H_    0.190029 0.181490 0.490622 0.186900
H112  H     H_    0.898474 0.731429 0.555101 0.198403
N1    N     N_3   0.140468 0.729672 0.855130 -0.469687
N2    N     N_3   0.950281 0.755000 0.702098 -0.481870
N3    N     N_3   0.874237 0.178793 0.706018 -0.431197
N4    N     N_3   0.049717 0.754977 0.297896 -0.481875
N5    N     N_3   0.625990 0.678737 0.293906 -0.435116
N6    N     N_3   0.450284 0.254859 0.702105 -0.481850
N7    N     N_3   0.374099 0.678752 0.706086 -0.435065
N8    N     N_3   0.549716 0.254895 0.297898 -0.481842
N9    N     N_3   0.207096 0.178130 0.457230 -0.483476
N10   N     N_3   0.866374 0.754524 0.538782 -0.461588
N11   N     N_3   0.792884 0.178119 0.542776 -0.483472
N12   N     N_3   0.859329 0.270334 0.144672 -0.466933
N13   N     N_3   0.133621 0.754499 0.461213 -0.461598
N14   N     N_3   0.707347 0.678036 0.457163 -0.483951
N15   N     N_3   0.366365 0.254419 0.538784 -0.461513
N16   N     N_3   0.292736 0.678051 0.542832 -0.483963
N17   N     N_3   0.633635 0.254455 0.461217 -0.461510
N18   N     N_3   0.859529 0.729662 0.144864 -0.469687
N19   N     N_3   0.140670 0.270324 0.855322 -0.466941
N20   N     N_3   0.640476 0.229639 0.855148 -0.470395
N21   N     N_3   0.359337 0.770303 0.144690 -0.466263
N22   N     N_3   0.359526 0.229650 0.144858 -0.470396
N23   N     N_3   0.640666 0.770312 0.855316 -0.466264
N24   N     N_3   0.125746 0.178800 0.293988 -0.431198
O1    O     O_3   0.000000 0.250010 0.000000 -0.479413
O2    O     O_R   0.359980 0.227250 0.954550 -0.648836
O3    O     O_R   0.359980 0.772750 0.954550 -0.646458
O4    O     O_R   0.640020 0.227250 0.045450 -0.648837
O5    O     O_R   0.944020 0.227270 0.826530 -0.620471
O6    O     O_R   0.055980 0.772730 0.173470 -0.653373
O7    O     O_R   0.055980 0.227270 0.173470 -0.620464
O8    O     O_R   0.944020 0.772730 0.826530 -0.653373
O9    O     O_R   0.444020 0.727270 0.826530 -0.621471
O10   O     O_R   0.555980 0.272730 0.173470 -0.652020
O11   O     O_R   0.555980 0.727270 0.173470 -0.621484
O12   O     O_3   0.000000 0.749990 0.000000 -0.472364
O13   O     O_R   0.444020 0.272730 0.826530 -0.652012
O14   O     O_R   0.008020 0.163280 0.954510 -0.644303
O15   O     O_R   0.991980 0.836720 0.045490 -0.646085
O16   O     O_R   0.991980 0.163280 0.045490 -0.644304
O17   O     O_R   0.008020 0.836720 0.954510 -0.646085
O18   O     O_R   0.508020 0.663280 0.954510 -0.644214
O19   O     O_R   0.491980 0.336720 0.045490 -0.646047
O20   O     O_R   0.491980 0.663280 0.045490 -0.644212
O21   O     O_R   0.508020 0.336720 0.954510 -0.646044
O22   O     O_R   0.053480 0.336740 0.045470 -0.645976
O23   O     O_3   0.500000 0.750010 0.000000 -0.479652
O24   O     O_R   0.946520 0.663260 0.954530 -0.644529
O25   O     O_R   0.946520 0.336740 0.954530 -0.645975
O26   O     O_R   0.053480 0.663260 0.045470 -0.644529
O27   O     O_R   0.553480 0.836740 0.045470 -0.645822
O28   O     O_R   0.446520 0.163260 0.954530 -0.644559
O29   O     O_R   0.446520 0.836740 0.954530 -0.645822
O30   O     O_R   0.553480 0.163260 0.045470 -0.644558
O31   O     O_R   0.882520 0.272750 0.826550 -0.650425
O32   O     O_R   0.117480 0.727250 0.173450 -0.641540
O33   O     O_R   0.117480 0.272750 0.173450 -0.650428
O34   O     O_3   0.500000 0.249990 0.000000 -0.472353
O35   O     O_R   0.882520 0.727250 0.826550 -0.641543
O36   O     O_R   0.382520 0.772750 0.826550 -0.651768
O37   O     O_R   0.617480 0.227250 0.173450 -0.640098
O38   O     O_R   0.617480 0.772750 0.173450 -0.651760
O39   O     O_R   0.382520 0.227250 0.826550 -0.640093
O40   O     O_R   0.094550 0.227270 0.954490 -0.647825
O41   O     O_R   0.905450 0.772730 0.045510 -0.649202
O42   O     O_R   0.905450 0.227270 0.045510 -0.647821
O43   O     O_R   0.094550 0.772730 0.954490 -0.649201
O44   O     O_R   0.594550 0.727270 0.954490 -0.646402
O45   O     O_R   0.140020 0.272750 0.045450 -0.647842
O46   O     O_R   0.405450 0.272730 0.045510 -0.650616
O47   O     O_R   0.405450 0.727270 0.045510 -0.646404
O48   O     O_R   0.594550 0.272730 0.954490 -0.650614
O49   O     O_R   0.859980 0.727250 0.954550 -0.647450
O50   O     O_R   0.859980 0.272750 0.954550 -0.647842
O51   O     O_R   0.140020 0.727250 0.045450 -0.647451
O52   O     O_R   0.640020 0.772750 0.045450 -0.646456
Zn1   Zn    Zn3+2 0.923580 0.282490 0.935040 0.964772
Zn2   Zn    Zn3+2 0.988550 0.782480 0.064990 0.954537
Zn3   Zn    Zn3+2 0.988550 0.217520 0.064990 0.971407
Zn4   Zn    Zn3+2 0.011450 0.782480 0.935010 0.954534
Zn5   Zn    Zn3+2 0.511450 0.717520 0.935010 0.971769
Zn6   Zn    Zn3+2 0.488550 0.282480 0.064990 0.954578
Zn7   Zn    Zn3+2 0.488550 0.717520 0.064990 0.971766
Zn8   Zn    Zn3+2 0.511450 0.282480 0.935010 0.954585
Zn9   Zn    Zn3+2 0.076420 0.717510 0.064960 0.965090
Zn10  Zn    Zn3+2 0.076420 0.282490 0.064960 0.964769
Zn11  Zn    Zn3+2 0.923580 0.717510 0.935040 0.965090
Zn12  Zn    Zn3+2 0.423580 0.782490 0.935040 0.964972
Zn13  Zn    Zn3+2 0.576420 0.217510 0.064960 0.965064
Zn14  Zn    Zn3+2 0.576420 0.782490 0.064960 0.964981
Zn15  Zn    Zn3+2 0.423580 0.217510 0.935040 0.965066
Zn16  Zn    Zn3+2 0.011450 0.217520 0.935010 0.971404

loop_
_geom_bond_atom_site_label_1
_geom_bond_atom_site_label_2
_ccdc_geom_bond_type
C73   N18   S    
C13   C79   S    
C92   H87   S    
C52   C75   S    
C110  C118  A    
C151  H32   S    
O46   Zn6   S    
O36   Zn12  S    
C85   H81   S    
H73   N23   S    
C89   H84   S    
O26   Zn9   S    
C149  O39   A    
H98   N3    S    
H9    N14   S    
H65   N19   S    
C63   C76   S    
C93   H88   S    
C52   H49   S    
C96   H92   S    
H109  N8    S    
C85   C129  A    
H95   N2    S    
C98   O52   A    
C56   H53   S    
C12   C135  A    
C91   C100  A    
C117  C126  A    
C59   C73   S    
C139  H29   S    
C119  C128  A    
C32   H20   S    
C19   O18   A    
C102  C111  A    
C15   C139  A    
C109  O2    A    
C11   C20   S    
H64   N19   S    
H8    N14   S    
C123  N17   S    
H6    N13   S    
C24   H43   S    
C101  C110  A    
H112  N10   S    
C82   C91   A    
C103  C112  A    
O34   Zn15  S    
C8    C150  A    
C6    C10   A    
C115  N9    S    
O18   Zn5   S    
C137  H27   S    
C147  O10   A    
H106  N7    S    
C148  O38   A    
C35   H44   S    
C81   C90   A    
O33   Zn10  S    
C82   H77   S    
C74   N19   S    
C20   O19   A    
C149  O13   A    
C13   H42   S    
C21   O22   A    
C36   C44   A    
C32   C41   A    
O40   Zn16  S    
C34   H1    S    
C68   C77   S    
O14   Zn16  S    
C9    C151  A    
C70   C79   S    
C16   C138  A    
C121  N15   S    
C77   N21   S    
C52   C63   S    
C122  N16   S    
O32   Zn9   S    
H10   N15   S    
C83   H78   S    
C40   H69   S    
C8    C17   S    
C106  C115  A    
C2    H41   S    
C5    H37   S    
C7    C140  A    
H11   N15   S    
C134  C151  A    
C46   C53   S    
C98   O44   A    
C84   C93   A    
C80   H75   S    
C140  H30   S    
O41   Zn2   S    
C147  O37   A    
C86   C95   A    
C58   C67   S    
C17   O14   A    
C41   C45   A    
C120  O3    A    
C29   H17   S    
C87   O51   A    
C2    C75   S    
C15   C137  A    
C84   C128  A    
C123  C132  A    
H94   N24   S    
O7    Zn3   S    
C117  N11   S    
O28   Zn15  S    
C29   C49   A    
C33   C42   A    
O34   Zn13  S    
C8    C152  A    
O49   Zn11  S    
H16   N17   S    
H66   N20   S    
C54   H51   S    
O51   Zn9   S    
C111  C119  A    
C3    C136  A    
C85   C94   A    
C6    C139  A    
C144  O33   A    
C4    C137  A    
C30   H18   S    
C20   O21   A    
C29   C38   A    
C64   C73   S    
C35   C67   S    
C39   C45   A    
C27   H2    S    
C99   C145  S    
H67   N20   S    
O31   Zn1   S    
C16   C140  A    
C62   C142  S    
H3    N10   S    
O12   Zn2   S    
C79   N23   S    
C76   O42   A    
C100  C108  A    
O22   Zn10  S    
C113  C122  A    
C146  O36   A    
O15   Zn2   S    
C104  C146  S    
C23   O29   A    
C86   C130  A    
C95   H90   S    
C56   C68   S    
O39   Zn15  S    
C75   N20   S    
O11   Zn7   S    
O48   Zn8   S    
C23   O27   A    
C97   C144  S    
C46   C68   S    
C3    C9    A    
C1    O45   A    
C17   O16   A    
C126  C132  S    
C142  H40   S    
C18   O15   A    
O21   Zn8   S    
O16   Zn3   S    
H15   N17   S    
C114  C123  A    
C87   O43   A    
C116  C125  A    
H7    N13   S    
C67   C75   S    
C118  C127  A    
C131  O48   A    
C90   C99   A    
C65   O41   A    
C2    C63   S    
C59   H55   S    
C88   H83   S    
C28   C48   A    
C81   C125  A    
C108  C117  A    
C133  C150  A    
C113  N7    S    
C31   C51   A    
C114  N8    S    
C54   C66   S    
C25   O28   A    
C24   C66   S    
O50   Zn1   S    
O1    Zn16  S    
O52   Zn14  S    
C135  H24   S    
H97   N3    S    
C112  C121  A    
O12   Zn11  S    
C68   C120  S    
C31   H19   S    
C28   C37   A    
C55   C61   S    
O23   Zn14  S    
O25   Zn1   S    
C30   C39   A    
C107  C116  A    
C104  C113  A    
O43   Zn4   S    
O12   Zn4   S    
C78   N22   S    
O38   Zn14  S    
C54   C57   S    
C61   C70   S    
O24   Zn11  S    
O9    Zn5   S    
C96   C105  A    
C88   C96   A    
C21   O25   A    
C23   C45   S    
C81   H76   S    
C110  N4    S    
H107  N7    S    
H57   N1    S    
C86   H82   S    
O6    Zn2   S    
C106  N24   S    
C94   H89   S    
C5    C11   A    
C100  C141  S    
C109  O46   A    
C58   H54   S    
C42   H91   S    
H59   N1    S    
C31   C40   A    
C80   C89   A    
C82   C126  A    
C65   O49   A    
H100  N4    S    
H101  N5    S    
H111  N9    S    
O4    Zn13  S    
O42   Zn3   S    
C25   C47   S    
O47   Zn7   S    
C26   C48   A    
C56   C142  S    
C30   C50   A    
C7    H39   S    
C25   O30   A    
C134  H23   S    
C34   C43   A    
C112  N6    S    
C60   H56   S    
C46   H45   S    
O34   Zn8   S    
C61   C73   S    
H104  N6    S    
C18   O17   A    
H108  N8    S    
C53   C77   S    
C143  O32   A    
C38   C44   A    
H71   N22   S    
C55   C79   S    
C141  O5    A    
C41   H80   S    
C10   C19   S    
C56   C71   S    
C107  N2    S    
O2    Zn15  S    
H63   N18   S    
C46   C71   S    
C28   H13   S    
C13   C59   S    
C97   C106  A    
C24   C78   S    
C48   C49   S    
C35   C72   S    
C111  N5    S    
C80   C124  A    
H110  N9    S    
C115  C124  A    
C90   H85   S    
C72   N12   S    
C121  C129  A    
O23   Zn12  S    
C145  O8    A    
C93   C102  A    
H5    N11   S    
C118  N13   S    
C2    C58   S    
C27   C36   A    
C33   C51   A    
C99   C107  A    
C62   C87   S    
C53   H50   S    
C64   C65   S    
O8    Zn4   S    
C13   C64   S    
C14   C136  A    
C55   H52   S    
C91   H86   S    
C124  C129  S    
C83   C127  A    
C1    O40   A    
C103  C149  S    
C59   C70   S    
C148  O11   A    
C63   C72   S    
C39   H58   S    
C76   O50   A    
C35   C52   S    
C38   H47   S    
O20   Zn7   S    
C22   O24   A    
H99   N4    S    
O5    Zn16  S    
C135  C152  A    
C54   C78   S    
C66   C74   S    
C40   C47   A    
H72   N22   S    
C37   C43   A    
C57   H46   S    
C138  H28   S    
O1    Zn10  S    
C119  N14   S    
O29   Zn12  S    
C5    C138  A    
O34   Zn6   S    
O3    Zn12  S    
C7    C11   A    
C83   C92   A    
C131  O4    A    
C60   C69   S    
C4    H35   S    
H70   N21   S    
O19   Zn6   S    
C37   H36   S    
H96   N2    S    
C144  O7    A    
C15   C16   S    
O30   Zn13  S    
C136  H26   S    
O45   Zn10  S    
O13   Zn8   S    
C84   H79   S    
O1    Zn1   S    
C77   C142  S    
H4    N11   S    
O23   Zn7   S    
C102  C148  S    
C21   C43   S    
C69   C109  S    
C26   C34   A    
C22   C44   S    
C22   O26   A    
C125  C128  S    
H61   N12   S    
O12   Zn9   S    
C33   H21   S    
C133  H22   S    
O44   Zn5   S    
H62   N18   S    
C71   N1    S    
H93   N24   S    
O35   Zn11  S    
O17   Zn4   S    
C69   C78   S    
C62   C71   S    
C61   H48   S    
H14   N16   S    
C50   C51   S    
H60   N12   S    
C105  C114  A    
H74   N23   S    
C26   H102  S    
C14   C134  A    
C120  O47   A    
C89   C97   A    
H68   N21   S    
O10   Zn6   S    
C57   C74   S    
C108  N3    S    
C53   C62   S    
C9    C18   S    
C24   C60   S    
C55   C64   S    
C6    H38   S    
C1    C66   S    
C116  N10   S    
C32   C50   A    
C92   C101  A    
C12   C14   S    
C12   C133  A    
C88   C132  A    
C4    C10   A    
C3    H34   S    
C95   C104  A    
H103  N5    S    
C146  O9    A    
C19   O20   A    
C67   C131  S    
C36   H25   S    
C152  H33   S    
C94   C103  A    
C143  O6    A    
C150  H31   S    
C141  O31   A    
O1    Zn3   S    
C127  C130  S    
O23   Zn5   S    
C101  C143  S    
C105  C147  S    
C58   C72   S    
C60   C74   S    
C42   C47   A    
C145  O35   A    
C27   C49   A    
O27   Zn14  S    
H12   N16   S    
H105  N6    S    
C57   C69   S    
C122  C130  A    
C70   C98   S    
O37   Zn13  S    
