data_mof_unit_27605.cif
_audit_creation_date              2012-12-10T18:48:42-0500
_audit_creation_method            fapswitch 2.2
_symmetry_space_group_name_H-M    P1
_symmetry_Int_Tables_number       1
_space_group_crystal_system       triclinic
_cell_length_a                    15.180077
_cell_length_b                    15.014617
_cell_length_c                    9.855519
_cell_angle_alpha                 91.024203
_cell_angle_beta                  91.281111
_cell_angle_gamma                 89.745728
_cell_volume                      2245.3612587

loop_
_atom_site_label
_atom_site_type_symbol
_atom_type_description
_atom_site_fract_x
_atom_site_fract_y
_atom_site_fract_z
_atom_type_partial_charge
C1    C     C_R   0.120491 0.381037 0.500482 0.880697
C2    C     C_R   0.004251 0.421867 0.926140 -0.018869
C3    C     C_R   0.004272 0.421868 0.069935 -0.050785
C4    C     C_R   0.995727 0.578132 0.930064 -0.050775
C5    C     C_R   0.495743 0.078133 0.073860 -0.018873
C6    C     C_R   0.504257 0.921867 0.926140 -0.018828
C7    C     C_R   0.504278 0.921868 0.069936 -0.050770
C8    C     C_R   0.495722 0.078132 0.930064 -0.050780
C9    C     C_R   0.818154 0.241776 0.406175 0.401829
C10   C     C_R   0.181856 0.758216 0.593843 0.401803
C11   C     C_R   0.260209 0.672456 0.418440 0.421770
C12   C     C_R   0.879513 0.618968 0.499521 0.880702
C13   C     C_R   0.739783 0.327550 0.581542 0.421731
C14   C     C_R   0.271268 0.335826 0.552730 0.426332
C15   C     C_R   0.728764 0.664200 0.447120 0.426388
C16   C     C_R   0.835715 0.771131 0.548845 0.423203
C17   C     C_R   0.164252 0.228837 0.451333 0.423252
C18   C     C_R   0.318152 0.741777 0.406161 0.401799
C19   C     C_R   0.681838 0.258231 0.593817 0.401813
C20   C     C_R   0.760212 0.172455 0.418455 0.421742
C21   C     C_R   0.239796 0.827538 0.581560 0.421766
C22   C     C_R   0.771238 0.835803 0.552876 0.426387
C23   C     C_R   0.879474 0.380593 0.497610 0.917421
C24   C     C_R   0.228728 0.164164 0.447282 0.426344
C25   C     C_R   0.335744 0.271156 0.548662 0.423205
C26   C     C_R   0.664287 0.728872 0.451155 0.423183
C27   C     C_R   0.189947 0.682532 0.508387 -0.454933
C28   C     C_R   0.810054 0.317467 0.491612 -0.454922
C29   C     C_R   0.813879 0.685575 0.497774 -0.458937
C30   C     C_R   0.186121 0.314424 0.502239 -0.458917
C31   C     C_R   0.689942 0.182537 0.508385 -0.454938
C32   C     C_R   0.310058 0.817463 0.491613 -0.454933
C33   C     C_R   0.313875 0.185570 0.497761 -0.458930
C34   C     C_R   0.120527 0.619406 0.502389 0.917444
C35   C     C_R   0.686123 0.814428 0.502225 -0.458940
C36   C     C_R   0.620488 0.881034 0.500479 0.880717
C37   C     C_R   0.379508 0.118961 0.499519 0.880750
C38   C     C_R   0.379475 0.880592 0.497611 0.917426
C39   C     C_R   0.620525 0.119408 0.502389 0.917420
C40   C     C_R   0.995749 0.578133 0.073860 -0.018824
H1    H     H_    0.992353 0.640648 0.129821 0.149355
H2    H     H_    0.120125 0.719862 0.749197 0.347377
H3    H     H_    0.246980 0.544909 0.383675 0.336842
H4    H     H_    0.753022 0.455095 0.616304 0.336765
H5    H     H_    0.246433 0.462114 0.595560 0.322084
H6    H     H_    0.753567 0.537885 0.404442 0.322074
H7    H     H_    0.963391 0.753058 0.555792 0.348569
H8    H     H_    0.036576 0.246945 0.444456 0.348528
H9    H     H_    0.379902 0.780133 0.250825 0.347382
H10   H     H_    0.620078 0.219892 0.749146 0.347378
H11   H     H_    0.746980 0.044908 0.383702 0.336765
H12   H     H_    0.007647 0.359351 0.870179 0.149353
H13   H     H_    0.253023 0.955085 0.616328 0.336843
H14   H     H_    0.746435 0.962118 0.595563 0.322075
H15   H     H_    0.253560 0.037874 0.404459 0.322077
H16   H     H_    0.463421 0.253095 0.555385 0.348489
H17   H     H_    0.536610 0.746932 0.444254 0.348557
H18   H     H_    0.007792 0.359371 0.122749 0.158201
H19   H     H_    0.992208 0.640629 0.877251 0.158245
H20   H     H_    0.492343 0.140648 0.129821 0.149345
H21   H     H_    0.507657 0.859352 0.870179 0.149353
H22   H     H_    0.507803 0.859372 0.122749 0.158243
H23   H     H_    0.492198 0.140628 0.877251 0.158210
H24   H     H_    0.879896 0.280122 0.250834 0.347368
N1    N     N_R   0.000000 0.500000 0.857200 -0.093154
N2    N     N_R   1.000000 0.500000 0.142800 -0.093148
N3    N     N_R   0.500000 0.000000 0.857200 -0.093150
N4    N     N_R   0.500000 0.000000 0.142800 -0.093152
O1    O     O_R   0.091610 0.408380 0.614620 -0.615247
O2    O     O_R   0.408390 0.091620 0.385380 -0.615274
O3    O     O_R   0.408390 0.091620 0.614620 -0.598053
O4    O     O_R   0.591610 0.908380 0.385380 -0.598093
O5    O     O_R   0.408390 0.908380 0.385380 -0.627837
O6    O     O_R   0.591610 0.091620 0.614620 -0.627795
O7    O     O_R   0.591610 0.091620 0.385380 -0.600491
O8    O     O_R   0.408390 0.908380 0.614620 -0.600492
O9    O     O_3   0.885761 0.231167 0.316460 -0.661821
O10   O     O_3   0.114258 0.768820 0.683577 -0.661856
O11   O     O_3   0.274032 0.596574 0.339954 -0.650136
O12   O     O_R   0.908390 0.591620 0.385380 -0.615162
O13   O     O_3   0.725956 0.403436 0.660018 -0.650167
O14   O     O_3   0.295645 0.419193 0.602958 -0.661306
O15   O     O_3   0.704416 0.580857 0.396764 -0.661233
O16   O     O_3   0.919537 0.794851 0.593856 -0.626438
O17   O     O_3   0.080405 0.205092 0.406474 -0.626410
O18   O     O_3   0.385754 0.731169 0.316436 -0.661842
O19   O     O_3   0.614223 0.268845 0.683516 -0.661775
O20   O     O_3   0.774041 0.096568 0.339981 -0.650159
O21   O     O_3   0.225973 0.903419 0.660050 -0.650135
O22   O     O_3   0.795587 0.919146 0.603231 -0.661231
O23   O     O_R   0.908390 0.591620 0.614620 -0.598106
O24   O     O_3   0.204350 0.080797 0.397060 -0.661300
O25   O     O_3   0.419598 0.294902 0.593495 -0.626380
O26   O     O_3   0.580461 0.705153 0.406151 -0.626429
O27   O     O_R   0.091610 0.408380 0.385380 -0.598101
O28   O     O_R   0.908390 0.408380 0.385380 -0.627809
O29   O     O_R   0.091610 0.591620 0.614620 -0.627830
O30   O     O_R   0.091610 0.591620 0.385380 -0.600490
O31   O     O_R   0.908390 0.408380 0.614620 -0.600483
O32   O     O_R   0.591610 0.908380 0.614620 -0.615177
Zn1   Zn    Zn3+2 0.000000 0.500000 0.653120 0.984232
Zn2   Zn    Zn3+2 0.000000 0.500000 0.346880 0.984270
Zn3   Zn    Zn3+2 0.500000 1.000000 0.653120 0.984284
Zn4   Zn    Zn3+2 0.500000 0.000000 0.346880 0.984227

loop_
_geom_bond_atom_site_label_1
_geom_bond_atom_site_label_2
_ccdc_geom_bond_type
C10   C27   A    
C26   O26   S    
C23   O31   A    
C11   C18   A    
C25   O25   S    
O28   Zn2   S    
C12   C29   S    
H24   O9    S    
N2    Zn2   S    
C12   O23   A    
C35   C36   S    
N1    Zn1   S    
C2    N1    A    
C19   C31   A    
C10   O10   S    
N3    Zn3   S    
C38   O8    A    
C22   C35   A    
C18   O18   S    
C17   O17   S    
C6    H21   S    
O23   Zn1   S    
H14   O22   S    
C19   O19   S    
C4    N1    A    
O2    Zn4   S    
H5    O14   S    
H3    O11   S    
C13   O13   S    
C16   O16   S    
C34   O29   A    
C23   O28   A    
C39   O6    A    
C7    N4    A    
O5    Zn4   S    
C4    C40   A    
C13   C28   A    
C39   O7    A    
O27   Zn2   S    
O8    Zn3   S    
C10   C21   A    
C40   N2    A    
C37   O2    A    
C17   C30   A    
C14   C30   A    
C5    N4    A    
C24   O24   S    
C15   C29   A    
C27   C34   S    
H16   O25   S    
C21   C32   A    
C17   C24   A    
C13   C19   A    
H4    O13   S    
C15   C26   A    
C21   O21   S    
O4    Zn4   S    
C16   C29   A    
C23   C28   S    
O32   Zn3   S    
C1    O1    A    
O12   Zn2   S    
C7    H22   S    
H15   O24   S    
C2    H12   S    
C9    C20   A    
C11   C27   A    
C1    O27   A    
C22   O22   S    
C36   O32   A    
C9    O9    S    
H7    O16   S    
C11   O11   S    
H10   O19   S    
C6    N3    A    
O31   Zn1   S    
H2    O10   S    
C32   C38   S    
H17   O26   S    
C37   O3    A    
H13   O21   S    
O7    Zn4   S    
C3    N2    A    
C18   C32   A    
C14   O14   S    
O3    Zn3   S    
C40   H1    S    
C16   C22   A    
C5    H20   S    
H9    O18   S    
N4    Zn4   S    
H11   O20   S    
C5    C8    A    
C15   O15   S    
C6    C7    A    
O1    Zn1   S    
C24   C33   A    
C2    C3    A    
O30   Zn2   S    
C12   O12   A    
C4    H19   S    
C1    C30   S    
C34   O30   A    
C31   C39   S    
C14   C25   A    
C33   C37   S    
C8    H23   S    
H6    O15   S    
C3    H18   S    
C26   C35   A    
C8    N3    A    
C20   O20   S    
H8    O17   S    
C20   C31   A    
O29   Zn1   S    
C36   O4    A    
C9    C28   A    
C25   C33   A    
O6    Zn3   S    
C38   O5    A    
