data_mof_unit_14174.cif
_audit_creation_date              2012-12-10T19:11:32-0500
_audit_creation_method            fapswitch 2.2
_symmetry_space_group_name_H-M    P1
_symmetry_Int_Tables_number       1
_space_group_crystal_system       triclinic
_cell_length_a                    10.696465
_cell_length_b                    9.745765
_cell_length_c                    10.533313
_cell_angle_alpha                 89.693183
_cell_angle_beta                  90.811421
_cell_angle_gamma                 89.583455
_cell_volume                      1097.89219771

loop_
_atom_site_label
_atom_site_type_symbol
_atom_type_description
_atom_site_fract_x
_atom_site_fract_y
_atom_site_fract_z
_atom_type_partial_charge
C1    C     C_R   0.257761 0.500498 0.502542 0.879928
C2    C     C_3   0.500647 0.501525 0.123978 -0.046524
C3    C     C_3   0.068557 0.654342 0.520754 0.258361
C4    C     C_3   0.072583 0.403396 0.615384 0.218791
C5    C     C_3   0.924877 0.648832 0.523850 -0.503141
C6    C     C_3   0.927511 0.409267 0.611740 -0.497906
C7    C     C_3   0.073012 0.443271 0.375091 -0.520211
C8    C     C_3   0.120885 0.501163 0.505075 0.106729
C9    C     C_3   0.878426 0.500015 0.499299 0.088967
C10   C     C_3   0.927576 0.448588 0.367047 0.233407
C11   C     C_3   0.376875 0.083110 0.452127 -0.012426
C12   C     C_3   0.379538 0.919251 0.444697 -0.007169
C13   C     C_3   0.598225 0.080237 0.413694 -0.267294
C14   C     C_3   0.603003 0.918898 0.419722 -0.272389
C15   C     C_3   0.521330 0.081666 0.627840 0.005255
C16   C     C_3   0.515557 0.917905 0.628656 -0.002512
C17   C     C_R   0.501239 0.500447 0.257806 0.890413
C18   C     C_R   0.742221 0.499780 0.500289 0.889619
C19   C     C_R   0.497663 0.499680 0.742442 0.876907
C20   C     C_3   0.530116 0.628390 0.042095 -0.165147
C21   C     C_3   0.382824 0.467723 0.045146 -0.224693
C22   C     C_3   0.415290 0.591141 0.960342 0.099612
C23   C     C_3   0.495960 0.499216 0.877196 -0.046948
C24   C     C_3   0.609638 0.532353 0.960123 0.093131
C25   C     C_3   0.467484 0.376919 0.963120 0.127205
C26   C     C_3   0.584377 0.406705 0.044769 -0.235811
H1    H     H_    0.305897 0.109401 0.524461 0.123423
H2    H     H_    0.303063 0.882429 0.506300 0.139605
H3    H     H_    0.583301 0.114285 0.314002 0.151520
H4    H     H_    0.601314 0.875544 0.322631 0.150601
H5    H     H_    0.443185 0.118052 0.688034 0.128380
H6    H     H_    0.430567 0.889970 0.682670 0.095674
H7    H     H_    0.691168 0.122211 0.439135 0.162107
H8    H     H_    0.695352 0.885238 0.457691 0.144749
H9    H     H_    0.888524 0.685556 0.616323 0.171054
H10   H     H_    0.892263 0.453078 0.701615 0.167657
H11   H     H_    0.884004 0.721209 0.452122 0.183450
H12   H     H_    0.887585 0.304380 0.607386 0.169603
H13   H     H_    0.115278 0.500081 0.294801 0.162559
H14   H     H_    0.107975 0.337264 0.360230 0.174014
N1    N     N_3   0.499750 0.138610 0.497240 -0.043430
N2    N     N_3   0.499750 0.861390 0.497240 -0.041851
O1    O     O_R   0.314910 0.616040 0.499970 -0.588678
O2    O     O_R   0.314910 0.383960 0.499970 -0.605516
O3    O     O_R   0.500080 0.616020 0.313900 -0.613621
O4    O     O_R   0.500080 0.383980 0.313900 -0.611621
O5    O     O_R   0.685320 0.616040 0.499930 -0.630990
O6    O     O_R   0.685320 0.383960 0.499930 -0.609033
O7    O     O_R   0.500150 0.616060 0.686000 -0.603221
O8    O     O_R   0.500150 0.383940 0.686000 -0.602434
Zn1   Zn    Zn3+2 0.500150 0.654960 0.499940 0.948416
Zn2   Zn    Zn3+2 0.500150 0.345040 0.499940 0.947408
N3    N     N_3   0.324072 0.692167 0.914914 -0.467823
H15   H     H_    0.373135 0.770578 0.870218 0.183010
H16   H     H_    0.269018 0.645390 0.845372 0.192686
N4    N     N_3   0.888288 0.545998 0.266405 -0.485980
H17   H     H_    0.925480 0.514711 0.179797 0.168688
H18   H     H_    0.791084 0.542715 0.254666 0.176403
N5    N     N_3   0.876800 0.312631 0.334725 -0.471707
H19   H     H_    0.912208 0.281357 0.247344 0.161586
H20   H     H_    0.904577 0.238711 0.401265 0.161012
N6    N     N_3   0.333733 0.152846 0.335285 -0.392184
H21   H     H_    0.240654 0.126667 0.316812 0.135747
H22   H     H_    0.386309 0.125261 0.256805 0.169831
N7    N     N_3   0.352464 0.864169 0.317508 -0.379860
H23   H     H_    0.262114 0.893177 0.289214 0.162645
H24   H     H_    0.412790 0.903304 0.249681 0.164179
N8    N     N_3   0.635430 0.139021 0.685608 -0.391737
H25   H     H_    0.716344 0.100197 0.644651 0.150422
H26   H     H_    0.638392 0.114901 0.782424 0.169926
N9    N     N_3   0.620571 0.851061 0.696895 -0.379096
H27   H     H_    0.707401 0.879776 0.662533 0.160622
H28   H     H_    0.617127 0.876803 0.793036 0.159012
H29   H     H_    0.556289 0.731651 0.077232 0.128361
H30   H     H_    0.289820 0.441203 0.083465 0.129061
N10   N     N_3   0.731560 0.567652 0.910500 -0.468508
H31   H     H_    0.786993 0.599213 0.987240 0.172290
H32   H     H_    0.771467 0.476748 0.877593 0.166649
N11   N     N_3   0.433198 0.240850 0.918966 -0.467510
H33   H     H_    0.421311 0.179141 0.999258 0.165424
H34   H     H_    0.345663 0.249468 0.874195 0.166658
H35   H     H_    0.654053 0.331557 0.082866 0.136346
N12   N     N_3   0.106519 0.741264 0.412546 -0.441240
H36   H     H_    0.078202 0.842796 0.427765 0.141043
H37   H     H_    0.061491 0.713355 0.328280 0.194961
N13   N     N_3   0.115915 0.260121 0.599347 -0.463287
H38   H     H_    0.095700 0.203200 0.680922 0.155915
H39   H     H_    0.069023 0.210930 0.525472 0.157620
N14   N     N_3   0.118029 0.717296 0.638695 -0.453100
H40   H     H_    0.067245 0.687580 0.717999 0.192755
H41   H     H_    0.106738 0.823911 0.634801 0.150402
N15   N     N_3   0.119017 0.450543 0.739770 -0.488311
H42   H     H_    0.215238 0.431624 0.746757 0.172529
H43   H     H_    0.078230 0.393006 0.812204 0.168581

loop_
_geom_bond_atom_site_label_1
_geom_bond_atom_site_label_2
_ccdc_geom_bond_type
C7    C10   S    
C5    H11   S    
C1    C8    S    
C4    C8    S    
C11   N6    S    
C18   O5    A    
C6    C9    S    
C13   N1    S    
C7    C8    S    
N3    H15   S    
C13   H7    S    
C12   H2    S    
N10   H32   S    
C13   H3    S    
C24   C26   S    
N13   H39   S    
C4    N13   S    
O3    Zn1   S    
C15   C16   S    
O4    Zn2   S    
N4    H17   S    
C12   N2    S    
C1    O1    A    
C20   C24   S    
C6    H10   S    
N8    H25   S    
O7    Zn1   S    
O8    Zn2   S    
C7    H14   S    
C6    H12   S    
N14   H41   S    
C10   N4    S    
C9    C10   S    
N1    Zn2   S    
N6    H22   S    
N2    Zn1   S    
C14   N2    S    
O2    Zn2   S    
N5    H19   S    
C26   H35   S    
C21   C22   S    
C2    C17   S    
C16   N9    S    
C14   H4    S    
C22   N3    S    
N3    H16   S    
N5    H20   S    
C2    C20   S    
C17   O4    A    
C15   N1    S    
C4    C6    S    
C3    C8    S    
N9    H28   S    
N13   H38   S    
C24   N10   S    
O5    Zn1   S    
N7    H24   S    
C25   C26   S    
C19   C23   S    
C5    C9    S    
N6    H21   S    
C19   O7    A    
C1    O2    A    
N12   H36   S    
C11   H1    S    
C23   C24   S    
C2    C21   S    
N15   H43   S    
C20   H29   S    
C2    C26   S    
N10   H31   S    
N12   H37   S    
C20   C22   S    
C3    N12   S    
C16   N2    S    
N11   H34   S    
C21   C25   S    
C25   N11   S    
C17   O3    A    
C3    C5    S    
C18   O6    A    
C14   H8    S    
C11   C12   S    
C15   H5    S    
C16   H6    S    
C12   N7    S    
C21   H30   S    
C3    N14   S    
C10   N5    S    
N9    H27   S    
C19   O8    A    
O1    Zn1   S    
C15   N8    S    
C5    H9    S    
N15   H42   S    
N4    H18   S    
C11   N1    S    
C23   C25   S    
N11   H33   S    
C9    C18   S    
O6    Zn2   S    
N8    H26   S    
N7    H23   S    
C7    H13   S    
C22   C23   S    
N14   H40   S    
C13   C14   S    
C4    N15   S    
