data_mof_unit_21995.cif
_audit_creation_date              2012-12-11T18:34:56-0500
_audit_creation_method            fapswitch 2.2
_symmetry_space_group_name_H-M    P1
_symmetry_Int_Tables_number       1
_space_group_crystal_system       triclinic
_cell_length_a                    8.202485
_cell_length_b                    14.484803
_cell_length_c                    22.844781
_cell_angle_alpha                 93.689855
_cell_angle_beta                  89.041664
_cell_angle_gamma                 92.19094
_cell_volume                      2706.33643951

loop_
_atom_site_label
_atom_site_type_symbol
_atom_type_description
_atom_site_fract_x
_atom_site_fract_y
_atom_site_fract_z
_atom_type_partial_charge
Ba1   Ba    Ba6+2 0.846250 0.544220 0.470860 1.655637
Ba2   Ba    Ba6+2 0.343570 0.455860 0.529140 1.659803
C1    C     C_3   0.621138 0.883610 0.308431 -0.357271
C2    C     C_R   0.089979 0.573472 0.937690 -0.023308
C3    C     C_R   0.043038 0.568339 0.877970 0.589044
C4    C     C_3   0.085366 0.736531 0.303280 0.317332
C5    C     C_R   0.983812 0.405257 0.881368 0.582527
C6    C     C_R   0.026711 0.408537 0.941205 -0.017969
C7    C     C_R   0.080302 0.493098 0.969486 -0.053533
C8    C     C_R   0.145780 0.657287 0.966547 -0.077414
C9    C     C_R   0.191036 0.661104 0.025512 -0.075261
C10   C     C_R   0.181073 0.581367 0.057861 -0.018358
C11   C     C_R   0.124954 0.497143 0.029751 -0.052442
C12   C     C_3   0.607355 0.787723 0.331877 0.349049
C13   C     C_R   0.017789 0.328653 0.973374 -0.077118
C14   C     C_R   0.060568 0.332742 0.032507 -0.076075
C15   C     C_R   0.114518 0.416768 0.061518 -0.026516
C16   C     C_3   0.056249 0.758167 0.240168 -0.300936
C17   C     C_R   0.159119 0.421895 0.121375 0.590842
C18   C     C_R   0.226019 0.584229 0.117591 0.574119
C19   C     C_2   0.801031 0.434233 0.770919 -0.094774
C20   C     C_3   0.775876 0.408243 0.706445 -0.098294
C21   C     C_1   0.000390 0.518868 0.685764 -0.001065
C22   C     C_2   0.049061 0.520026 0.741487 -0.114994
C23   C     C_3   0.517044 0.317198 0.356047 0.295998
C24   C     C_2   0.941176 0.479841 0.788348 0.224694
C25   C     C_R   0.407545 0.551277 0.229793 -0.097077
C26   C     C_R   0.448110 0.558679 0.289322 -0.013143
C27   C     C_R   0.195522 0.478644 0.314637 0.025665
C28   C     C_3   0.205157 0.728253 0.690724 0.238601
C29   C     C_R   0.151351 0.472344 0.254869 -0.097026
C30   C     C_R   0.256443 0.509928 0.211513 0.201692
C31   C     C_2   0.866124 0.473204 0.667387 -0.248822
C32   C     C_R   0.687670 0.936670 0.533102 -0.055650
C33   C     C_R   0.509873 0.801741 0.498144 0.035355
C34   C     C_3   0.506064 0.291442 0.290616 -0.364682
C35   C     C_R   0.369072 0.770030 0.468521 -0.265521
C36   C     C_R   0.268782 0.831420 0.443014 0.024622
C37   C     C_R   0.315828 0.924977 0.442102 -0.168085
C38   C     C_R   0.458115 0.959200 0.470784 -0.005221
C39   C     C_R   0.553683 0.898526 0.500842 -0.026259
C40   C     C_3   0.075069 0.771765 0.730667 -0.416364
C41   C     C_R   0.637645 0.091903 0.502842 -0.022040
C42   C     C_R   0.731012 0.032723 0.535196 0.011059
C43   C     C_R   0.682533 0.187599 0.503477 0.034103
C44   C     C_R   0.818312 0.222369 0.534799 -0.276387
C45   C     C_3   0.044677 0.228093 0.698257 0.377935
C46   C     C_R   0.918098 0.164455 0.563068 -0.014184
C47   C     C_R   0.869234 0.070564 0.567199 -0.029857
C48   C     C_R   0.502166 0.053926 0.471071 -0.052600
C49   C     C_3   0.023956 0.259813 0.413233 0.310223
C50   C     C_3   0.022186 0.154938 0.402510 -0.380887
C51   C     C_3   0.684433 0.665570 0.641721 0.299942
C52   C     C_3   0.666258 0.682955 0.707846 -0.392090
C53   C     C_3   0.966941 0.011391 0.604276 -0.213997
C54   C     C_3   0.099144 0.964190 0.566761 -0.245823
C55   C     C_3   0.153300 0.881142 0.595984 -0.377358
C56   C     C_3   0.059497 0.184408 0.756580 -0.325023
C57   C     C_3   0.577158 0.218365 0.704288 0.341703
C58   C     C_3   0.496854 0.125971 0.718660 -0.325119
C59   C     C_R   0.341191 0.524067 0.331120 -0.303423
H1    H     H_    0.671771 0.790484 0.374395 0.082545
H2    H     H_    0.815434 0.662618 0.630251 0.014766
H3    H     H_    0.620569 0.598428 0.628988 0.070907
H4    H     H_    0.751484 0.904653 0.301985 0.141948
H5    H     H_    0.715515 0.753207 0.721785 0.118960
H6    H     H_    0.731794 0.630591 0.730689 0.073785
H7    H     H_    0.536210 0.677814 0.721064 0.117585
H8    H     H_    0.475939 0.769682 0.338998 -0.057226
H9    H     H_    0.564426 0.934540 0.340186 0.074657
H10   H     H_    0.393190 0.333438 0.372972 0.018265
H11   H     H_    0.599828 0.379417 0.362439 0.060502
H12   H     H_    0.133207 0.807565 0.769840 0.120014
H13   H     H_    0.421445 0.230356 0.282761 0.136755
H14   H     H_    0.459771 0.350127 0.267661 0.071414
H15   H     H_    0.628669 0.274807 0.272429 0.131390
H16   H     H_    0.557369 0.883522 0.265923 0.126333
H17   H     H_    0.049448 0.692790 0.212200 0.118547
H18   H     H_    0.054971 0.304590 0.705566 0.045823
H19   H     H_    0.922531 0.207028 0.680653 -0.133420
H20   H     H_    0.165565 0.216237 0.780995 0.145864
H21   H     H_    0.946534 0.194724 0.783110 0.129786
H22   H     H_    0.075815 0.108754 0.749176 0.087450
H23   H     H_    0.006666 0.822643 0.707448 0.110045
H24   H     H_    0.676683 0.234385 0.736189 -0.018709
H25   H     H_    0.628549 0.210433 0.658848 -0.008972
H26   H     H_    0.591534 0.073398 0.720192 0.049915
H27   H     H_    0.408356 0.101673 0.684339 0.148746
H28   H     H_    0.006883 0.675358 0.312944 0.103769
H29   H     H_    0.433631 0.132511 0.761995 0.116273
H30   H     H_    0.051323 0.269561 0.055457 0.123494
H31   H     H_    0.977130 0.262405 0.952918 0.119677
H32   H     H_    0.233508 0.727122 0.045791 0.121884
H33   H     H_    0.493559 0.577506 0.197880 0.114417
H34   H     H_    0.989412 0.717014 0.745636 0.138853
H35   H     H_    0.155026 0.720428 0.943555 0.118974
H36   H     H_    0.172068 0.543176 0.752996 0.112085
H37   H     H_    0.717736 0.404956 0.802804 0.103213
H38   H     H_    0.036303 0.438362 0.242285 0.123260
H39   H     H_    0.374978 0.529018 0.376819 0.083884
H40   H     H_    0.215351 0.719826 0.307949 -0.043077
H41   H     H_    0.834719 0.468302 0.621314 0.067417
H42   H     H_    0.332426 0.697441 0.468145 0.080151
H43   H     H_    0.238369 0.971383 0.420927 0.075347
H44   H     H_    0.853377 0.295045 0.533691 0.053919
H45   H     H_    0.902521 0.281539 0.428366 -0.007224
H46   H     H_    0.759758 0.890617 0.555852 0.101924
H47   H     H_    0.427868 0.097660 0.446705 0.093503
H48   H     H_    0.938983 0.793010 0.236600 0.147519
H49   H     H_    0.156802 0.804130 0.224340 0.128336
H50   H     H_    0.262106 0.673508 0.714058 0.041612
H51   H     H_    0.304591 0.780727 0.684019 0.059066
H52   H     H_    0.196255 0.902911 0.640738 0.121996
H53   H     H_    0.046574 0.832078 0.597468 0.181011
H54   H     H_    0.254004 0.848082 0.570997 0.117344
H55   H     H_    0.052541 0.941885 0.522715 0.151253
H56   H     H_    0.114571 0.280273 0.447476 0.077223
H57   H     H_    0.206387 0.011407 0.561401 0.160813
H58   H     H_    0.024147 0.051816 0.641478 0.120812
H59   H     H_    0.885328 0.961576 0.626772 0.088556
H60   H     H_    0.924441 0.131743 0.371243 0.132194
H61   H     H_    0.999839 0.121055 0.444180 0.056979
H62   H     H_    0.141887 0.133173 0.384047 0.118394
N1    N     N_R   0.989817 0.484777 0.850156 -0.421588
N2    N     N_R   0.211980 0.505387 0.149427 -0.423818
O1    O     O_2   0.901900 0.448470 0.362340 -0.457659
O2    O     O_2   0.260742 0.172113 0.551731 -0.486033
O3    O     O_3   0.171304 0.197469 0.660700 -0.573023
O4    O     O_3   0.142240 0.449440 0.433360 -0.499268
O5    O     O_3   0.549340 0.612930 0.525560 -0.476428
O6    O     O_2   0.396530 0.270940 0.479440 -0.463877
O7    O     O_3   0.577596 0.242395 0.384034 -0.644474
O8    O     O_2   0.452725 0.469688 0.708423 -0.490503
O9    O     O_3   0.462772 0.288586 0.709416 -0.552969
O10   O     O_2   0.047706 0.638627 0.851088 -0.616839
O11   O     O_2   0.942468 0.330899 0.856912 -0.630014
O12   O     O_3   0.617924 0.738967 0.614395 -0.642382
O13   O     O_2   0.153496 0.351465 0.148163 -0.596136
O14   O     O_2   0.277327 0.657400 0.141203 -0.616137
O15   O     O_3   0.645560 0.619080 0.391970 -0.491005
O16   O     O_2   0.786881 0.555680 0.291824 -0.501181
O17   O     O_3   0.063047 0.299972 0.360580 -0.626588
O18   O     O_3   0.679366 0.723724 0.291378 -0.600607
O19   O     O_2   0.793170 0.729090 0.520590 -0.463798
O20   O     O_3   0.052800 0.667320 0.419180 -0.486020
O21   O     O_2   0.927736 0.831177 0.446957 -0.493045
O22   O     O_3   0.044856 0.813286 0.340528 -0.604266
O23   O     O_2   0.287790 0.551560 0.637690 -0.452857
O24   O     O_3   0.047460 0.550640 0.566640 -0.468100
O25   O     O_3   0.544140 0.380990 0.608030 -0.454442
O26   O     O_3   0.139671 0.699354 0.635244 -0.627345
O27   O     O_3   0.640350 0.387150 0.474440 -0.476070
O28   O     O_3   0.136890 0.332750 0.580830 -0.465829
P1    P     P_3+3 0.074990 0.420800 0.372080 0.988992
P2    P     P_3+3 0.618830 0.715330 0.538180 0.990650
P3    P     P_3+3 0.072823 0.786802 0.413228 0.951511
P4    P     P_3+3 0.114710 0.579280 0.627920 1.000093
P5    P     P_3+3 0.119468 0.214495 0.588507 0.963043
P6    P     P_3+3 0.641222 0.612516 0.315322 0.946039
P7    P     P_3+3 0.579732 0.270350 0.459709 0.942269
P8    P     P_3+3 0.558273 0.389166 0.684467 0.979197

loop_
_geom_bond_atom_site_label_1
_geom_bond_atom_site_label_2
_ccdc_geom_bond_type
C42   C47   A    
Ba2   O25   S    
C53   C54   S    
O27   P7    S    
C19   H37   S    
Ba1   O20   S    
C16   H48   S    
C36   P3    S    
C5    N1    Am   
C19   C24   D    
C58   H27   S    
O3    P5    S    
C37   H43   S    
C55   H54   S    
C53   H58   S    
C43   C44   A    
C10   C11   A    
C43   P7    S    
C3    N1    Am   
O7    P7    S    
C51   O12   S    
C32   H46   S    
O26   P4    S    
C18   O14   D    
C33   C35   A    
C22   C24   S    
Ba1   O4    S    
C17   O13   D    
O15   P6    S    
C36   C37   A    
C51   H3    S    
C52   H7    S    
Ba2   O23   S    
C13   C14   A    
C12   H1    S    
C44   H44   S    
Ba2   O4    S    
C49   C50   S    
C54   C55   S    
O12   P2    S    
Ba1   O27   S    
Ba1   Ba2   S    
C4    H40   S    
O28   P5    S    
Ba1   P2    S    
C7    C11   A    
C34   H15   S    
Ba2   O5    S    
C13   H31   S    
O20   P3    S    
C50   H61   S    
O16   P6    D    
C51   C52   S    
C14   C15   A    
C21   C31   D    
C21   C22   D    
Ba1   O24   S    
O5    P2    S    
C23   H10   S    
C45   H18   S    
C26   C59   A    
C9    H32   S    
Ba2   O24   S    
C57   C58   S    
C19   C20   S    
C48   H47   S    
C1    H4    S    
C32   C39   A    
C24   N1    S    
C45   H19   S    
C58   H26   S    
C27   C59   A    
C53   H59   S    
Ba2   O27   S    
C4    C16   S    
C44   C46   A    
C31   H41   S    
C45   O3    S    
C1    H9    S    
C40   H23   S    
Ba1   O1    S    
Ba1   O5    S    
C56   H20   S    
C37   C38   A    
C35   H42   S    
C20   P8    S    
C6    C7    A    
C55   H52   S    
C52   H6    S    
C47   C53   S    
C46   P5    S    
C17   N2    Am   
C26   P6    S    
C22   H36   S    
C28   H51   S    
C30   N2    S    
C41   C42   A    
C57   H24   S    
C35   C36   A    
C34   H14   S    
C50   H60   S    
C29   C30   A    
C8    H35   S    
C16   H17   S    
C10   C18   A    
Ba2   O6    S    
C54   H55   S    
C32   C42   A    
C50   H62   S    
C23   H11   S    
O17   P1    S    
O22   P3    S    
C41   C43   A    
O2    P5    D    
C1    C12   S    
C34   H13   S    
O1    P1    D    
C46   C47   A    
C40   H34   S    
Ba2   O28   S    
C29   H38   S    
C49   H56   S    
C12   H8    S    
C59   H39   S    
C2    C8    A    
C1    H16   S    
C49   O17   S    
C3    O10   D    
C20   C31   S    
C12   O18   S    
C38   C39   A    
C40   H12   S    
C25   C30   A    
C54   H57   S    
C16   H49   S    
C33   P2    S    
C2    C3    A    
O8    P8    D    
C9    C10   A    
O25   P8    S    
C41   C48   A    
O18   P6    S    
C55   H53   S    
C52   H5    S    
C58   H29   S    
C6    C13   A    
C4    H28   S    
C57   O9    S    
O9    P8    S    
C11   C15   A    
C28   H50   S    
O19   P2    D    
C56   H21   S    
C57   H25   S    
C18   N2    Am   
C27   C29   A    
Ba1   O19   S    
C56   H22   S    
C45   C56   S    
C4    O22   S    
C51   H2    S    
C28   O26   S    
O4    P1    S    
C49   H45   S    
C38   C48   A    
C21   P4    S    
C15   C17   A    
O23   P4    D    
Ba1   P1    S    
C33   C39   A    
C5    C6    A    
C8    C9    A    
C23   C34   S    
C5    O11   D    
O21   P3    D    
Ba2   P4    S    
C14   H30   S    
C25   C26   A    
C28   C40   S    
C25   H33   S    
Ba1   O15   S    
C2    C7    A    
C23   O7    S    
O24   P4    S    
O6    P7    D    
C27   P1    S    
