data_mof_unit_61768.cif
_audit_creation_date              2012-12-10T18:00:58-0500
_audit_creation_method            fapswitch 2.2
_symmetry_space_group_name_H-M    P1
_symmetry_Int_Tables_number       1
_space_group_crystal_system       triclinic
_cell_length_a                    30.599846
_cell_length_b                    30.813918
_cell_length_c                    24.729183
_cell_angle_alpha                 90.029947
_cell_angle_beta                  128.215218
_cell_angle_gamma                 89.993837
_cell_volume                      18320.1289558

loop_
_atom_site_label
_atom_site_type_symbol
_atom_type_description
_atom_site_fract_x
_atom_site_fract_y
_atom_site_fract_z
_atom_type_partial_charge
C1    C     C_R   0.809897 0.809191 0.500846 0.818712
C2    C     C_R   0.190303 0.809263 0.499564 0.806123
C3    C     C_R   0.309688 0.309371 0.500318 0.816960
C4    C     C_R   0.690279 0.309381 0.499635 0.814682
C5    C     C_R   0.645729 0.750244 0.291345 -0.031096
C6    C     C_R   0.353450 0.750623 0.708550 -0.025902
C7    C     C_R   0.146182 0.250413 0.291377 -0.029437
C8    C     C_R   0.853908 0.250409 0.708625 -0.030541
C9    C     C_R   0.463439 0.751058 0.929950 0.406321
C10   C     C_R   0.534200 0.750795 0.069880 0.407223
C11   C     C_R   0.964764 0.250808 0.930044 0.406019
C12   C     C_R   0.035484 0.250816 0.069960 0.405491
C13   C     C_R   0.897835 0.849930 0.558336 0.048628
C14   C     C_R   0.134039 0.836155 0.532839 0.086949
C15   C     C_R   0.379860 0.332726 0.486755 0.090582
C16   C     C_R   0.619148 0.332719 0.511712 0.102194
C17   C     C_R   0.842916 0.842368 0.500413 -0.086318
C18   C     C_R   0.155269 0.842037 0.497073 -0.096087
C19   C     C_R   0.345052 0.342518 0.503684 -0.096581
C20   C     C_R   0.654893 0.342578 0.496196 -0.106074
C21   C     C_R   0.817267 0.872018 0.445549 -0.182661
C22   C     C_R   0.139066 0.878893 0.455187 -0.163475
C23   C     C_R   0.347499 0.384519 0.527913 -0.166567
C24   C     C_R   0.653477 0.384815 0.473352 -0.160683
C25   C     C_R   0.848719 0.904885 0.445185 -0.192280
C26   C     C_R   0.106608 0.911011 0.455064 -0.201080
C27   C     C_R   0.379555 0.416740 0.527481 -0.202999
C28   C     C_R   0.621528 0.417125 0.473826 -0.201415
C29   C     C_R   0.905512 0.909307 0.501126 -0.076441
C30   C     C_R   0.091822 0.907066 0.498534 -0.057243
C31   C     C_R   0.408403 0.407342 0.501638 -0.042622
C32   C     C_R   0.591764 0.407564 0.498350 -0.040578
C33   C     C_R   0.927913 0.883604 0.559271 0.035208
C34   C     C_R   0.103347 0.868319 0.534138 0.014171
C35   C     C_R   0.411303 0.364526 0.486163 -0.017395
C36   C     C_R   0.587991 0.364668 0.512513 -0.002872
C37   C     C_3   0.982201 0.860318 0.604154 -0.436080
C38   C     C_3   0.127421 0.859616 0.607212 -0.500620
C39   C     C_3   0.404835 0.345458 0.426018 -0.454576
C40   C     C_3   0.593230 0.345212 0.571531 -0.517521
C41   C     C_3   0.949247 0.822084 0.602956 0.453578
C42   C     C_3   0.161470 0.823464 0.606326 0.462442
C43   C     C_3   0.369681 0.309899 0.425996 0.469286
C44   C     C_3   0.627935 0.309344 0.571357 0.474974
C45   C     C_R   0.683723 0.750047 0.367387 0.770159
C46   C     C_R   0.316082 0.750193 0.632578 0.760055
C47   C     C_R   0.183843 0.250128 0.367398 0.760409
C48   C     C_R   0.816179 0.250129 0.632602 0.759133
C49   C     C_R   0.875307 0.711486 0.742756 -0.279120
C50   C     C_R   0.166787 0.759453 0.256785 -0.259406
C51   C     C_R   0.334037 0.253831 0.743678 -0.291092
C52   C     C_R   0.667778 0.252561 0.257486 -0.287264
C53   C     C_R   0.910187 0.709075 0.814726 0.268242
C54   C     C_R   0.133211 0.758994 0.184739 0.292847
C55   C     C_R   0.368652 0.253091 0.815750 0.297217
C56   C     C_R   0.634120 0.251493 0.185520 0.290024
C57   C     C_R   0.928310 0.747578 0.853831 0.032287
C58   C     C_R   0.076308 0.748583 0.145815 0.031213
C59   C     C_R   0.426887 0.249399 0.853527 0.033006
C60   C     C_R   0.575678 0.248201 0.146386 0.027978
C61   C     C_R   0.910080 0.787714 0.819767 -0.311912
C62   C     C_R   0.053968 0.739914 0.179981 -0.285813
C63   C     C_R   0.448880 0.247909 0.817758 -0.289052
C64   C     C_R   0.552731 0.246836 0.181122 -0.290411
C65   C     C_R   0.874312 0.790377 0.747647 0.003422
C66   C     C_R   0.086703 0.742552 0.251874 0.018199
C67   C     C_R   0.414539 0.250038 0.745806 0.011969
C68   C     C_R   0.586186 0.249306 0.253039 0.012678
C69   C     C_R   0.856193 0.751499 0.708459 -0.081223
C70   C     C_R   0.144485 0.751235 0.291194 -0.072131
C71   C     C_R   0.356098 0.251918 0.708152 -0.074479
C72   C     C_R   0.644719 0.251267 0.291824 -0.074410
C73   C     C_R   0.039053 0.747354 0.069720 0.442496
C74   C     C_R   0.967644 0.746973 0.929921 0.436027
C75   C     C_R   0.537506 0.246909 0.069855 0.430018
C76   C     C_R   0.465778 0.247902 0.929829 0.421902
C77   C     C_R   0.681604 0.622305 0.544476 -0.061630
C78   C     C_R   0.321601 0.630876 0.445621 -0.077300
C79   C     C_R   0.176092 0.136539 0.560213 -0.077876
C80   C     C_R   0.823516 0.135932 0.440069 -0.076948
C81   C     C_R   0.656654 0.657882 0.500116 -0.096017
C82   C     C_R   0.343175 0.658255 0.501186 -0.065538
C83   C     C_R   0.156609 0.158435 0.499817 -0.074296
C84   C     C_R   0.843395 0.158418 0.500193 -0.074443
C85   C     C_R   0.598841 0.663546 0.461100 -0.175920
C86   C     C_R   0.399458 0.653288 0.558587 -0.183628
C87   C     C_R   0.101086 0.152647 0.441403 -0.183695
C88   C     C_R   0.899202 0.153169 0.558167 -0.182433
C89   C     C_R   0.690149 0.690665 0.499321 0.773384
C90   C     C_R   0.309347 0.690880 0.500031 0.777258
C91   C     C_R   0.190538 0.190812 0.499946 0.775833
C92   C     C_R   0.809475 0.190808 0.500081 0.771417
C93   C     C_R   0.566447 0.631168 0.460563 -0.206134
C94   C     C_R   0.431735 0.620633 0.558707 -0.196992
C95   C     C_R   0.068541 0.120663 0.441373 -0.197756
C96   C     C_R   0.931741 0.121158 0.558216 -0.196663
C97   C     C_R   0.592092 0.593968 0.501440 -0.061457
C98   C     C_R   0.408201 0.593415 0.500690 -0.068694
C99   C     C_R   0.091027 0.095230 0.500562 -0.079964
C100  C     C_R   0.908956 0.095199 0.499427 -0.079185
C101  C     C_R   0.649949 0.591741 0.546944 0.086986
C102  C     C_R   0.352829 0.600284 0.444920 0.071046
C103  C     C_R   0.143509 0.106047 0.560886 0.094493
C104  C     C_R   0.856096 0.105460 0.439348 0.095525
C105  C     C_3   0.687748 0.555274 0.560623 -0.492799
C106  C     C_3   0.306152 0.585171 0.374056 -0.475675
C107  C     C_3   0.192378 0.078258 0.612400 -0.464989
C108  C     C_3   0.807383 0.077175 0.388915 -0.467199
C109  C     C_3   0.722543 0.588915 0.556425 -0.024310
C110  C     C_3   0.270477 0.620617 0.374814 -0.048829
C111  C     C_3   0.228795 0.112020 0.611376 -0.063708
C112  C     C_3   0.770968 0.110906 0.390030 -0.061019
C113  C     C_R   0.440598 0.559625 0.500020 0.795261
C114  C     C_R   0.559476 0.559574 0.500171 0.793773
C115  C     C_R   0.940575 0.059814 0.499921 0.798197
C116  C     C_R   0.059437 0.059818 0.500095 0.795567
C117  C     C_R   0.940109 0.940884 0.500093 0.804450
C118  C     C_R   0.059623 0.940715 0.499899 0.805554
C119  C     C_R   0.440705 0.440545 0.500127 0.803772
C120  C     C_R   0.559438 0.440712 0.499856 0.803945
C121  C     C_R   0.817178 0.750941 0.632470 0.837566
C122  C     C_R   0.182917 0.750723 0.367403 0.843880
C123  C     C_R   0.317068 0.250842 0.632369 0.851719
C124  C     C_R   0.683040 0.250729 0.367625 0.847815
C125  C     C_R   0.611647 0.786344 0.255043 -0.181071
C126  C     C_R   0.385775 0.787394 0.745074 -0.183540
C127  C     C_R   0.112325 0.286572 0.254925 -0.178030
C128  C     C_R   0.887835 0.286555 0.745118 -0.175839
C129  C     C_R   0.575859 0.786703 0.183114 -0.150516
C130  C     C_R   0.420908 0.787804 0.817024 -0.157372
C131  C     C_R   0.076876 0.286929 0.182987 -0.153577
C132  C     C_R   0.923346 0.286907 0.817059 -0.152410
C133  C     C_R   0.572658 0.750634 0.146023 0.053381
C134  C     C_R   0.425182 0.751131 0.853810 0.053777
C135  C     C_R   0.073800 0.250792 0.146085 0.053832
C136  C     C_R   0.926416 0.250777 0.853920 0.052821
C137  C     C_R   0.606463 0.714391 0.182369 -0.152020
C138  C     C_R   0.392863 0.714348 0.817167 -0.157962
C139  C     C_R   0.107490 0.214546 0.182589 -0.156611
C140  C     C_R   0.892670 0.214539 0.817375 -0.156596
C141  C     C_R   0.643032 0.714366 0.254327 -0.176355
C142  C     C_R   0.356933 0.714263 0.745251 -0.178530
C143  C     C_R   0.143739 0.214536 0.254531 -0.185340
C144  C     C_R   0.856361 0.214534 0.745434 -0.181949
Cu1   Cu    Cu3+1 0.780910 0.719090 0.500000 0.981140
Cu2   Cu    Cu3+1 0.219090 0.719090 0.500000 1.015634
Cu3   Cu    Cu3+1 0.280910 0.219090 0.500000 1.001223
Cu4   Cu    Cu3+1 0.719090 0.219090 0.500000 1.023526
Cu5   Cu    Cu3+1 0.719070 0.780890 0.500010 0.997978
Cu6   Cu    Cu3+1 0.280930 0.780890 0.499990 0.956971
Cu7   Cu    Cu3+1 0.219070 0.280890 0.500010 0.959562
Cu8   Cu    Cu3+1 0.780930 0.280890 0.499990 0.966670
Cu9   Cu    Cu3+1 0.465760 0.500000 0.431570 0.960521
Cu10  Cu    Cu3+1 0.534240 0.500000 0.568430 0.963597
Cu11  Cu    Cu3+1 0.965760 0.000000 0.431570 0.962161
Cu12  Cu    Cu3+1 0.034240 0.000000 0.568430 0.951923
H1    H     H_    0.613045 0.814528 0.282265 0.153717
H2    H     H_    0.383484 0.816002 0.717997 0.156401
H3    H     H_    0.113615 0.314776 0.282036 0.154472
H4    H     H_    0.886548 0.314754 0.718039 0.157180
H5    H     H_    0.862204 0.681647 0.713425 0.151034
H6    H     H_    0.210855 0.765942 0.286021 0.151636
H7    H     H_    0.289391 0.255853 0.715138 0.146356
H8    H     H_    0.712565 0.253917 0.286870 0.149008
H9    H     H_    0.924350 0.817352 0.849878 0.152588
H10   H     H_    0.009884 0.733061 0.149999 0.151626
H11   H     H_    0.493515 0.245791 0.846254 0.160027
H12   H     H_    0.507975 0.245377 0.151846 0.159939
H13   H     H_    0.578551 0.691821 0.428612 0.154539
H14   H     H_    0.418070 0.674104 0.603167 0.142570
H15   H     H_    0.083862 0.171389 0.395160 0.141227
H16   H     H_    0.916680 0.172345 0.604118 0.141592
H17   H     H_    0.521656 0.634806 0.427726 0.151710
H18   H     H_    0.474853 0.617037 0.603563 0.162886
H19   H     H_    0.026659 0.115080 0.394764 0.164677
H20   H     H_    0.973880 0.115987 0.604534 0.164241
H21   H     H_    0.708116 0.541176 0.612525 0.236198
H22   H     H_    0.314866 0.591239 0.337212 0.221343
H23   H     H_    0.198352 0.076491 0.661496 0.230780
H24   H     H_    0.800862 0.074972 0.339504 0.231624
H25   H     H_    0.666578 0.530803 0.518450 0.156820
H26   H     H_    0.293712 0.551264 0.374099 0.177620
H27   H     H_    0.190547 0.045998 0.590801 0.168266
H28   H     H_    0.809890 0.045101 0.411378 0.165702
H29   H     H_    0.550173 0.815027 0.156540 0.154473
H30   H     H_    0.445357 0.816599 0.843856 0.155911
H31   H     H_    0.051285 0.315267 0.156246 0.153953
H32   H     H_    0.948981 0.315237 0.843831 0.155066
H33   H     H_    0.605082 0.686198 0.155183 0.153251
H34   H     H_    0.395003 0.685712 0.844087 0.152361
H35   H     H_    0.106233 0.186328 0.155534 0.151655
H36   H     H_    0.893924 0.186326 0.844398 0.152109
H37   H     H_    0.668697 0.686045 0.281000 0.156796
H38   H     H_    0.332461 0.685482 0.718351 0.152671
H39   H     H_    0.169320 0.186198 0.281322 0.152262
H40   H     H_    0.830736 0.186203 0.718612 0.153923
H41   H     H_    0.773678 0.868600 0.401883 0.143798
H42   H     H_    0.152275 0.883177 0.423762 0.156941
H43   H     H_    0.323666 0.392757 0.545390 0.163038
H44   H     H_    0.678043 0.393166 0.456958 0.168076
H45   H     H_    0.829072 0.926056 0.400881 0.161547
H46   H     H_    0.095347 0.939729 0.423687 0.148501
H47   H     H_    0.379953 0.449261 0.544467 0.138987
H48   H     H_    0.621897 0.449790 0.457910 0.135038
H49   H     H_    0.999442 0.854133 0.576333 0.174143
H50   H     H_    0.152486 0.887494 0.641309 0.209760
H51   H     H_    0.381208 0.367506 0.380757 0.200282
H52   H     H_    0.616855 0.366706 0.617508 0.212034
H53   H     H_    0.011727 0.877051 0.654068 0.181894
H54   H     H_    0.095559 0.847734 0.611776 0.168615
H55   H     H_    0.445000 0.334149 0.439674 0.173825
H56   H     H_    0.552424 0.334166 0.556221 0.170180
N1    N     N_R   0.516898 0.712970 0.033980 -0.236776
N2    N     N_R   0.482066 0.713098 0.965430 -0.236569
N3    N     N_R   0.017518 0.212910 0.034250 -0.237341
N4    N     N_R   0.982691 0.212906 0.965696 -0.237309
N5    N     N_R   0.480907 0.788894 0.965839 -0.234972
N6    N     N_R   0.515390 0.788759 0.034407 -0.233396
N7    N     N_R   0.982917 0.288718 0.965749 -0.234454
N8    N     N_R   0.017374 0.288722 0.034315 -0.234885
N9    N     N_R   0.008422 0.777327 0.964775 -0.243399
N10   N     N_R   0.997958 0.717224 0.034880 -0.229957
N11   N     N_R   0.519587 0.260271 0.964755 -0.247498
N12   N     N_R   0.483796 0.234056 0.034838 -0.238819
N13   N     N_R   0.043519 0.777422 0.033295 -0.211445
N14   N     N_R   0.963122 0.716914 0.966327 -0.205554
N15   N     N_R   0.554603 0.259831 0.033211 -0.195145
N16   N     N_R   0.448744 0.234412 0.966330 -0.179284
O1    O     O_R   0.821190 0.768980 0.500000 -0.614431
O2    O     O_R   0.178810 0.768980 0.500000 -0.556440
O3    O     O_R   0.321190 0.268980 0.500000 -0.570968
O4    O     O_R   0.678810 0.268980 0.500000 -0.557469
O5    O     O_R   0.483700 0.545120 0.557760 -0.592253
O6    O     O_R   0.516300 0.545120 0.442240 -0.588474
O7    O     O_R   0.983700 0.045120 0.557760 -0.589864
O8    O     O_R   0.016300 0.045120 0.442240 -0.591881
O9    O     O_R   0.925990 0.954920 0.442210 -0.586393
O10   O     O_R   0.074010 0.954920 0.557790 -0.588277
O11   O     O_R   0.425990 0.454920 0.442210 -0.586204
O12   O     O_R   0.574010 0.454920 0.557790 -0.583993
O13   O     O_R   0.983760 0.954940 0.557800 -0.584686
O14   O     O_R   0.016240 0.954940 0.442200 -0.581338
O15   O     O_R   0.483760 0.454940 0.557800 -0.582137
O16   O     O_R   0.516240 0.454940 0.442200 -0.583642
O17   O     O_R   0.768960 0.821170 0.500020 -0.545687
O18   O     O_R   0.231040 0.821170 0.499980 -0.591008
O19   O     O_R   0.268960 0.321170 0.500020 -0.592047
O20   O     O_R   0.731040 0.321170 0.499980 -0.590487
O21   O     O_R   0.726180 0.723900 0.400140 -0.577353
O22   O     O_R   0.273820 0.723900 0.599860 -0.584624
O23   O     O_R   0.226180 0.223900 0.400140 -0.596946
O24   O     O_R   0.773820 0.223900 0.599860 -0.589503
O25   O     O_R   0.673950 0.776090 0.400160 -0.592947
O26   O     O_R   0.326050 0.776090 0.599840 -0.586242
O27   O     O_R   0.173950 0.276090 0.400160 -0.585351
O28   O     O_R   0.826050 0.276090 0.599840 -0.585555
O29   O     O_R   0.731010 0.678810 0.499990 -0.579787
O30   O     O_R   0.268990 0.678810 0.500010 -0.581061
O31   O     O_R   0.231010 0.178810 0.499990 -0.577186
O32   O     O_R   0.768990 0.178810 0.500010 -0.577534
O33   O     O_R   0.678790 0.731000 0.500010 -0.583484
O34   O     O_R   0.321210 0.731000 0.499990 -0.586642
O35   O     O_R   0.178790 0.231000 0.500010 -0.580514
O36   O     O_R   0.821210 0.231000 0.499990 -0.581309
O37   O     O_R   0.826030 0.723890 0.599860 -0.603400
O38   O     O_R   0.173970 0.723890 0.400140 -0.526875
O39   O     O_R   0.326030 0.223890 0.599860 -0.535085
O40   O     O_R   0.673970 0.223890 0.400140 -0.536379
O41   O     O_R   0.773800 0.776080 0.599870 -0.539619
O42   O     O_R   0.226200 0.776080 0.400130 -0.605012
O43   O     O_R   0.273800 0.276080 0.599870 -0.595850
O44   O     O_R   0.726200 0.276080 0.400130 -0.595777
O45   O     O_R   0.425940 0.545090 0.442170 -0.583552
O46   O     O_R   0.574060 0.545090 0.557830 -0.579450
O47   O     O_R   0.925940 0.045090 0.442170 -0.582671
O48   O     O_R   0.074060 0.045090 0.557830 -0.581363
N17   N     N_2   0.961392 0.810054 0.668271 -0.411895
H57   H     H_    0.934003 0.787201 0.662192 0.258147
C145  C     C_3   0.974993 0.843393 0.717953 -0.644930
H58   H     H_    0.973967 0.829333 0.758501 0.228069
H59   H     H_    0.944763 0.870579 0.692939 0.245269
H60   H     H_    0.017853 0.855518 0.744035 0.220926
N18   N     N_2   0.147898 0.779758 0.615026 -0.417879
H61   H     H_    0.155623 0.775375 0.661593 0.254892
C146  C     C_3   0.096239 0.759739 0.558193 -0.684557
H62   H     H_    0.091633 0.727574 0.574398 0.223261
H63   H     H_    0.096533 0.754501 0.514015 0.264582
H64   H     H_    0.060171 0.780323 0.541866 0.223659
N19   N     N_2   0.393430 0.266173 0.441237 -0.416710
H65   H     H_    0.364662 0.241875 0.425675 0.262292
C147  C     C_3   0.445492 0.257330 0.508705 -0.688509
H66   H     H_    0.461769 0.225362 0.507824 0.228163
H67   H     H_    0.438689 0.256204 0.547911 0.259749
H68   H     H_    0.477237 0.282268 0.523618 0.222523
N20   N     N_2   0.602757 0.266141 0.555087 -0.419345
H69   H     H_    0.597510 0.255216 0.590152 0.253643
C148  C     C_3   0.555651 0.256053 0.484550 -0.659071
H70   H     H_    0.540854 0.222631 0.481884 0.224549
H71   H     H_    0.568060 0.257368 0.450850 0.274951
H72   H     H_    0.520976 0.279063 0.465422 0.218752
N21   N     N_2   0.928785 0.667856 0.847339 -0.422750
H73   H     H_    0.944648 0.648904 0.828734 0.261530
C149  C     C_3   0.888059 0.644488 0.847895 -0.602833
H74   H     H_    0.851684 0.635555 0.794605 0.222363
H75   H     H_    0.873784 0.664546 0.871645 0.238958
H76   H     H_    0.907090 0.614332 0.878595 0.240384
N22   N     N_2   0.157638 0.766676 0.151981 -0.415068
H77   H     H_    0.192249 0.747669 0.171621 0.268735
C150  C     C_3   0.168627 0.811962 0.149249 -0.652500
H78   H     H_    0.201257 0.824579 0.201935 0.211135
H79   H     H_    0.130160 0.831550 0.124692 0.247647
H80   H     H_    0.183398 0.815483 0.118248 0.235775
N23   N     N_2   0.344391 0.256765 0.849463 -0.409668
H81   H     H_    0.305771 0.242357 0.822969 0.258514
C151  C     C_3   0.344396 0.300462 0.870893 -0.655040
H82   H     H_    0.317754 0.321827 0.825199 0.217603
H83   H     H_    0.387327 0.313775 0.904962 0.235744
H84   H     H_    0.327738 0.300156 0.900015 0.234308
N24   N     N_2   0.659797 0.252222 0.153408 -0.412040
H85   H     H_    0.692134 0.230377 0.174823 0.260759
C152  C     C_3   0.675984 0.295138 0.148030 -0.640479
H86   H     H_    0.709453 0.308244 0.200032 0.212314
H87   H     H_    0.639753 0.317517 0.121146 0.243661
H88   H     H_    0.691750 0.293385 0.117955 0.234061
C153  C     C_2   0.859606 0.834531 0.716997 0.336968
H89   H     H_    0.864010 0.862047 0.747468 0.073753
O49   O     O_2   0.845178 0.841280 0.659412 -0.547449
C154  C     C_2   0.057541 0.738483 0.282164 0.388009
H90   H     H_    0.019534 0.719563 0.255619 0.071551
O50   O     O_2   0.073336 0.758145 0.334281 -0.543155
C155  C     C_2   0.442274 0.252257 0.713453 0.370301
H91   H     H_    0.484174 0.239663 0.740891 0.068302
O51   O     O_2   0.420353 0.270041 0.658081 -0.554600
C156  C     C_2   0.557468 0.251910 0.284125 0.369022
H92   H     H_    0.515335 0.239627 0.255804 0.071302
O52   O     O_2   0.578898 0.269618 0.339466 -0.557807
C157  C     C_2   0.779958 0.597304 0.622877 0.471224
H93   H     H_    0.800146 0.628048 0.630014 0.053989
O53   O     O_2   0.804605 0.569806 0.667983 -0.548271
C158  C     C_2   0.253510 0.657476 0.325230 0.471486
H94   H     H_    0.262776 0.690767 0.343537 0.021537
O54   O     O_2   0.227678 0.650289 0.263905 -0.523639
C159  C     C_2   0.267341 0.137479 0.677205 0.497474
H95   H     H_    0.277067 0.170940 0.674844 0.028178
O55   O     O_2   0.289117 0.120621 0.733209 -0.526908
C160  C     C_2   0.731552 0.135824 0.323867 0.494115
H96   H     H_    0.720361 0.168862 0.325837 0.030580
O56   O     O_2   0.710811 0.119021 0.268067 -0.532156
C161  C     C_2   0.721154 0.582006 0.494805 0.402930
H97   H     H_    0.681459 0.578685 0.443870 0.065364
O57   O     O_2   0.764001 0.579966 0.501188 -0.530183
C162  C     C_2   0.224475 0.602967 0.374834 0.420342
H98   H     H_    0.232940 0.576251 0.408718 0.060551
O58   O     O_2   0.177710 0.618404 0.337588 -0.520580
C163  C     C_2   0.256099 0.094648 0.581619 0.408670
H99   H     H_    0.231317 0.077286 0.532969 0.068132
O59   O     O_2   0.305735 0.099823 0.611283 -0.522452
C164  C     C_2   0.744643 0.093726 0.421111 0.406177
H100  H     H_    0.770112 0.076904 0.470187 0.072014
O60   O     O_2   0.695039 0.098446 0.392039 -0.522560
N25   N     N_2   0.949594 0.784557 0.567380 -0.430843
H101  H     H_    0.916367 0.763989 0.546921 0.271523
C165  C     C_3   0.001597 0.760914 0.604429 -0.670806
H102  H     H_    0.999420 0.736728 0.569544 0.225087
H103  H     H_    0.009227 0.743470 0.648870 0.240143
H104  H     H_    0.036948 0.783139 0.623295 0.231411
N26   N     N_2   0.221188 0.831712 0.651831 -0.424362
H105  H     H_    0.242235 0.815470 0.637787 0.240649
C166  C     C_3   0.249677 0.828815 0.725110 -0.673314
H106  H     H_    0.292234 0.842398 0.753464 0.239031
H107  H     H_    0.253343 0.794368 0.740647 0.228872
H108  H     H_    0.227441 0.847583 0.739726 0.228547
N27   N     N_2   0.311455 0.311111 0.364916 -0.442795
H109  H     H_    0.284624 0.297282 0.371952 0.235309
C167  C     C_3   0.299598 0.297522 0.300952 -0.653156
H110  H     H_    0.255286 0.304299 0.257622 0.231609
H111  H     H_    0.306996 0.262137 0.301993 0.225018
H112  H     H_    0.325757 0.315523 0.291587 0.235715
N28   N     N_2   0.686032 0.309368 0.632730 -0.423631
H113  H     H_    0.712582 0.295030 0.625633 0.249775
C168  C     C_3   0.697516 0.295828 0.696472 -0.678145
H114  H     H_    0.741309 0.303831 0.740183 0.238195
H115  H     H_    0.691853 0.260201 0.696166 0.225998
H116  H     H_    0.670007 0.312827 0.704582 0.230290

loop_
_geom_bond_atom_site_label_1
_geom_bond_atom_site_label_2
_ccdc_geom_bond_type
C99   C103  A    
C40   H52   S    
C133  C137  A    
C129  H29   S    
C76   N16   A    
C77   C101  A    
C147  H66   S    
C136  C140  A    
C132  H32   S    
C157  H93   S    
C149  H75   S    
N21   H73   S    
C135  C139  A    
C43   N27   S    
C4    O4    A    
C55   C59   A    
C95   C99   A    
Cu6   O26   S    
Cu12  O7    S    
C29   C33   A    
C100  C104  A    
C116  O48   A    
C95   H19   S    
C46   O22   A    
Cu2   Cu6   S    
Cu3   O3    S    
C12   C135  S    
C3    C19   S    
C16   C44   S    
C11   N4    A    
C166  H108  S    
C110  C162  S    
C167  H111  S    
C117  O9    A    
C49   C69   A    
C72   C124  S    
C130  C134  A    
C100  C115  S    
C51   C71   A    
Cu4   O32   S    
N12   N16   A    
Cu5   O33   S    
C25   C29   A    
Cu4   O24   S    
Cu9   O11   S    
C27   C31   A    
C28   C32   A    
C158  H94   S    
C114  O6    A    
C121  O37   A    
C99   C116  S    
Cu8   O28   S    
C128  H4    S    
C62   C66   A    
C98   C102  A    
C124  O40   A    
C85   H13   S    
C48   O24   A    
C19   C23   A    
N3    N4    A    
C13   C33   A    
C52   C72   A    
C78   C82   A    
C163  H99   S    
C16   C20   A    
C87   H15   S    
C162  H98   S    
C80   C112  S    
C142  H38   S    
C89   O29   A    
C92   O36   A    
C129  C133  A    
Cu3   O39   S    
C168  H114  S    
C89   O33   A    
C3    O3    A    
C90   O30   A    
C91   O35   A    
Cu10  O15   S    
C107  H23   S    
C84   C88   A    
C105  H21   S    
C167  H110  S    
C10   N1    A    
C57   C61   A    
C108  H28   S    
C83   C91   S    
C59   C63   A    
C60   C64   A    
C75   N15   A    
C50   C70   A    
C146  H63   S    
C1    O17   A    
C11   C136  S    
C66   C70   A    
C49   C53   A    
C93   H17   S    
C111  C159  S    
Cu9   O6    S    
C51   C55   A    
C145  H59   S    
C127  C131  A    
Cu12  O48   S    
C4    C20   S    
Cu11  O14   S    
C125  C129  A    
C24   H44   S    
C152  H86   S    
Cu11  Cu12  S    
C126  C130  A    
Cu9   O45   S    
C12   N8    A    
C131  H31   S    
C42   N26   S    
N24   C152  S    
C161  H97   S    
N9    N13   A    
C50   H6    S    
Cu3   Cu7   S    
Cu6   O42   S    
C7    C143  A    
C42   N18   S    
N20   C148  S    
C74   N9    A    
C27   H47   S    
C32   C36   A    
C71   C123  S    
C147  H67   S    
C25   H45   S    
N11   N15   A    
N23   C151  S    
Cu5   O25   S    
Cu10  O12   S    
C153  O49   D    
C112  C160  S    
C45   O21   A    
C139  C143  A    
C8    C128  A    
C87   C95   A    
C168  H116  S    
C47   O23   A    
C63   H11   S    
N17   H57   S    
C148  H71   S    
C79   C103  A    
C65   C153  S    
C150  H79   S    
C30   C34   A    
C112  C164  S    
C54   N22   S    
C8    C144  A    
C113  O45   A    
C156  H92   S    
C30   C118  S    
N5    N6    A    
C77   C109  S    
C61   C65   A    
C70   C122  S    
C160  O56   D    
C132  C136  A    
C152  H88   S    
C54   C58   A    
N19   H65   S    
C141  H37   S    
C38   H54   S    
C164  O60   D    
C62   H10   S    
C75   N12   A    
C26   C30   A    
C159  O55   D    
C165  H104  S    
Cu2   O30   S    
C11   N7    A    
C122  O38   A    
C167  H112  S    
C9    N5    A    
N7    N8    A    
C21   C25   A    
C124  O44   A    
C151  H84   S    
C44   N28   S    
C163  O59   D    
C18   C22   A    
C107  C111  S    
C24   C28   A    
C154  H90   S    
C14   C34   A    
C103  C107  S    
C144  H40   S    
C1    C17   S    
C13   C17   A    
C15   C43   S    
C74   N14   A    
C16   C36   A    
C118  O10   A    
Cu11  O8    S    
C43   N19   S    
C61   H9    S    
C37   C41   S    
C90   O34   A    
C91   O31   A    
C2    O2    A    
C40   C44   S    
C56   C60   A    
C5    C125  A    
N18   H61   S    
Cu1   O37   S    
C84   C92   S    
C105  H25   S    
C97   C114  S    
C59   C76   S    
C106  H22   S    
C81   C85   A    
C118  O14   A    
C166  H107  S    
C58   C62   A    
C83   C87   A    
C88   C96   A    
C93   C97   A    
C78   C102  A    
C10   C133  S    
C80   C84   A    
C13   C41   S    
C56   N24   S    
N28   H113  S    
N1    N2    A    
C113  O5    A    
N25   C165  S    
Cu3   O23   S    
C50   C54   A    
C80   C104  A    
C158  O54   D    
C139  H35   S    
N27   C167  S    
Cu7   O19   S    
C125  H1    S    
N18   C146  S    
C94   C98   A    
C123  O43   A    
Cu6   O18   S    
Cu10  O46   S    
C105  C109  S    
C162  O58   D    
C165  H102  S    
C51   H7    S    
Cu4   O4    S    
C6    C142  A    
C6    C46   S    
C121  O41   A    
Cu7   O35   S    
C81   C89   S    
Cu8   O36   S    
C151  H82   S    
C86   H14   S    
C3    O19   A    
C157  O53   D    
C149  H76   S    
N21   C149  S    
C76   N11   A    
N22   H77   S    
Cu4   Cu8   S    
C37   H49   S    
C6    C126  A    
Cu11  O47   S    
C138  C142  A    
N20   H69   S    
C53   C57   A    
C98   C113  S    
Cu12  O10   S    
C82   C86   A    
C5    C45   S    
C33   C37   S    
C108  C112  S    
C7    C47   S    
C35   C39   S    
C155  H91   S    
C8    C48   S    
C47   O27   A    
C146  H62   S    
C77   C81   A    
C143  H39   S    
C116  O8    A    
N26   C166  S    
C31   C119  S    
C41   N25   S    
Cu6   O34   S    
C109  C157  S    
C31   C35   A    
C64   C68   A    
C104  C108  S    
C114  O46   A    
Cu1   O21   S    
C137  C141  A    
Cu5   O17   S    
C96   H20   S    
C22   H42   S    
C66   C154  S    
C140  C144  A    
C9    N2    A    
C40   H56   S    
C60   C75   S    
C82   C90   S    
Cu4   O40   S    
C2    O18   A    
C145  H58   S    
Cu5   O41   S    
C64   H12   S    
C79   C83   A    
N23   H81   S    
C65   C69   A    
Cu10  O5    S    
C21   H41   S    
C67   C71   A    
C153  H89   S    
C17   C21   A    
Cu8   O20   S    
Cu12  O13   S    
C122  O42   A    
C53   N21   S    
N24   H85   S    
C123  O39   A    
C109  C161  S    
Cu11  O9    S    
C22   C26   A    
C168  H115  S    
C12   N3    A    
C46   O26   A    
Cu1   Cu5   S    
C159  H95   S    
C115  O7    A    
C88   H16   S    
C23   H43   S    
C2    C18   S    
C148  H70   S    
C14   C18   A    
N26   H105  S    
C119  O11   A    
C120  O12   A    
C150  H78   S    
C73   N10   A    
Cu2   O22   S    
C26   H46   S    
C38   C42   S    
C146  H64   S    
C131  C135  A    
C55   N23   S    
C156  O52   D    
N28   C168  S    
C67   C155  S    
N10   N14   A    
C96   C100  A    
C108  H24   S    
C120  O16   A    
C145  H60   S    
Cu2   O38   S    
C4    O20   A    
C86   C94   A    
C15   C19   A    
C106  H26   S    
C149  H74   S    
C152  H87   S    
C44   N20   S    
C39   H51   S    
C23   C27   A    
C48   O28   A    
C68   C72   A    
C14   C42   S    
C9    C134  S    
C111  C163  S    
C161  O57   D    
Cu3   O31   S    
C165  H103  S    
C138  H34   S    
C85   C93   A    
C32   C120  S    
C128  C132  A    
C15   C35   A    
C92   O32   A    
C126  H2    S    
C101  C105  S    
C63   C67   A    
C151  H83   S    
C28   H48   S    
C20   C24   A    
C36   C40   S    
C147  H68   S    
C41   N17   S    
C154  O50   D    
C39   C43   S    
C29   C117  S    
C107  H27   S    
N22   C150  S    
C57   C74   S    
C1    O1    A    
C5    C141  A    
C69   C121  S    
C39   H55   S    
C78   C110  S    
C155  O51   D    
C37   H53   S    
C94   H18   S    
C137  H33   S    
C52   H8    S    
N17   C145  S    
C140  H36   S    
C148  H72   S    
C127  H3    S    
C10   N6    A    
Cu7   O27   S    
C166  H106  S    
Cu2   O2    S    
C150  H80   S    
C38   H50   S    
C34   C38   S    
C49   H5    S    
Cu1   O29   S    
C134  C138  A    
C130  H30   S    
N25   H101  S    
C79   C111  S    
C7    C127  A    
N27   H109  S    
C73   N13   A    
Cu7   O43   S    
C160  H96   S    
C119  O15   A    
Cu8   O44   S    
N19   C147  S    
C102  C106  S    
C68   C156  S    
C164  H100  S    
C97   C101  A    
C115  O47   A    
C106  C110  S    
Cu9   O16   S    
Cu9   Cu10  S    
Cu1   O1    S    
C110  C158  S    
C52   C56   A    
C58   C73   S    
C45   O25   A    
C117  O13   A    
