data_mof_unit_30994.cif
_audit_creation_date              2013-03-05T16:07:57-0500
_audit_creation_method            fapswitch 2.2
_symmetry_space_group_name_H-M    P1
_symmetry_Int_Tables_number       1
_space_group_crystal_system       triclinic
_cell_length_a                    6.941055
_cell_length_b                    14.536444
_cell_length_c                    16.018584
_cell_angle_alpha                 90.178054
_cell_angle_beta                  90.05863
_cell_angle_gamma                 89.931585
_cell_volume                      1616.23741353

loop_
_atom_site_label
_atom_site_type_symbol
_atom_site_description
_atom_site_fract_x
_atom_site_fract_y
_atom_site_fract_z
_atom_type_partial_charge
O1    O     O_R   0.494380 0.415640 0.412830 -0.590057
O2    O     O_R   0.823960 0.405540 0.586560 -0.602195
O3    O     O_R   0.994270 0.584360 0.587170 -0.597525
C1    C     C_R   0.655329 0.383591 0.615370 0.947991
O4    O     O_R   0.824090 0.404620 0.413450 -0.600299
O5    O     O_R   0.994400 0.583430 0.412820 -0.598107
C2    C     C_R   0.655351 0.382932 0.384358 0.934482
O6    O     O_R   0.494250 0.416570 0.587180 -0.592436
O7    O     O_3   0.660800 0.558670 0.500000 -0.276252
V1    V     V_3+5 0.935650 0.489120 0.500000 1.152970
O8    O     O_R   0.324110 0.594460 0.413440 -0.593294
C3    C     C_R   0.154794 0.616214 0.384427 0.991163
O9    O     O_R   0.323980 0.595380 0.586550 -0.598979
C4    C     C_R   0.155018 0.616504 0.616420 0.883855
V2    V     V_3+5 0.435660 0.510880 0.500000 1.157630
O10   O     O_3   0.160640 0.441330 0.500000 -0.274786
C5    C     C_3   0.940530 0.685558 0.729054 -0.338134
H1    H     H_    0.828141 0.703685 0.682252 0.178541
H2    H     H_    0.907083 0.615317 0.752358 0.152302
C6    C     C_3   0.929991 0.754845 0.802490 -0.421223
H3    H     H_    0.897903 0.717377 0.861353 0.168804
H4    H     H_    0.808385 0.803099 0.791480 0.214110
H5    H     H_    0.079345 0.800863 0.603201 0.141763
H6    H     H_    0.029718 0.899124 0.711159 0.076473
C7    C     C_3   0.182523 0.784610 0.654328 -0.456853
C8    C     C_3   0.294739 0.664853 0.756178 -0.344142
C9    C     C_3   0.143437 0.686213 0.687332 0.060721
H7    H     H_    0.442570 0.666570 0.729386 0.168482
H8    H     H_    0.271103 0.594291 0.780879 0.139461
C10   C     C_3   0.122464 0.808859 0.811479 -0.057980
C11   C     C_3   0.160088 0.857164 0.725665 0.283261
C12   C     C_3   0.281734 0.735681 0.828706 -0.313599
H9    H     H_    0.248606 0.698856 0.887784 0.135361
H10   H     H_    0.424334 0.768591 0.838180 0.195249
H11   H     H_    0.329180 0.787374 0.626489 0.198589
C13   C     C_R   0.261995 0.820940 0.244999 0.115514
C14   C     C_R   0.118069 0.815748 0.183685 -0.247120
C15   C     C_R   0.971235 0.750071 0.195863 -0.092981
H12   H     H_    0.853102 0.745001 0.151984 0.117121
C16   C     C_R   0.981744 0.686227 0.261933 -0.133516
H13   H     H_    0.871328 0.633984 0.266740 0.124018
C17   C     C_R   0.139712 0.686049 0.317595 -0.213481
C18   C     C_R   0.273073 0.757548 0.309661 0.133439
C19   C     C_3   0.487828 0.757301 0.309807 -0.581725
C20   C     C_3   0.476637 0.827105 0.238896 0.195076
H14   H     H_    0.548088 0.689878 0.290158 0.177744
H15   H     H_    0.548035 0.785082 0.369074 0.234267
H16   H     H_    0.534688 0.801990 0.178299 0.066784
C21   C     C_R   0.498720 0.319571 0.744281 0.150105
C22   C     C_R   0.648167 0.317694 0.685544 -0.225801
C23   C     C_R   0.797145 0.253240 0.698158 -0.137299
H17   H     H_    0.917430 0.250014 0.655410 0.142977
C24   C     C_R   0.785531 0.187789 0.762621 -0.119335
H18   H     H_    0.897643 0.136319 0.767697 0.147394
C25   C     C_R   0.624652 0.184947 0.816277 -0.211370
C26   C     C_R   0.487232 0.254960 0.807978 0.231528
C27   C     C_3   0.273269 0.249726 0.801540 -0.432523
C28   C     C_3   0.285879 0.320474 0.731981 -0.477890
H19   H     H_    0.200601 0.276278 0.858553 0.226866
H20   H     H_    0.223707 0.181169 0.779760 0.220209
H21   H     H_    0.220802 0.387908 0.748913 0.188436
H22   H     H_    0.243681 0.293043 0.669787 0.209165
C29   C     C_R   0.491024 0.310235 0.260433 -0.115137
C30   C     C_R   0.646396 0.315022 0.315653 -0.177551
C31   C     C_R   0.796418 0.250650 0.301584 -0.136548
H23   H     H_    0.921273 0.249611 0.342116 0.126227
C32   C     C_R   0.784955 0.185334 0.235640 -0.066082
H24   H     H_    0.901618 0.136568 0.227854 0.142236
C33   C     C_R   0.622939 0.182043 0.181741 -0.137930
C34   C     C_R   0.478853 0.246441 0.197822 -0.014552
C35   C     C_3   0.286758 0.279406 0.167968 0.140966
C36   C     C_3   0.299716 0.352983 0.238176 0.288445
H25   H     H_    0.171198 0.227654 0.176671 0.034740
H26   H     H_    0.191243 0.342451 0.288117 0.069059
O11   O     O_R   0.771490 0.080820 0.910070 -0.606632
O12   O     O_R   0.441590 0.092730 0.083780 -0.595030
O13   O     O_R   0.271350 0.913900 0.084390 -0.613225
C37   C     C_R   0.610596 0.114725 0.112644 1.047271
O14   O     O_R   0.441780 0.091820 0.910670 -0.575227
O15   O     O_R   0.271540 0.912980 0.910040 -0.571227
C38   C     C_R   0.610751 0.114027 0.882069 1.027067
O16   O     O_R   0.771300 0.081740 0.084420 -0.592982
O17   O     O_3   0.604960 0.938700 0.997240 -0.285326
V3    V     V_3+5 0.330090 0.008230 0.997220 1.228963
O18   O     O_R   0.941820 0.901930 0.910640 -0.603270
C39   C     C_R   0.110897 0.879014 0.882197 0.886514
O19   O     O_R   0.941630 0.902840 0.083750 -0.570173
C40   C     C_R   0.110542 0.881022 0.112787 0.962402
V4    V     V_3+5 0.830090 0.986410 0.997190 1.210837
O20   O     O_3   0.105080 0.055990 0.997200 -0.268717
N1    N     N_R   0.325810 0.919814 0.728207 0.237528
O21   O     O_R   0.298982 0.007794 0.719059 -0.438569
O22   O     O_R   0.500886 0.888545 0.734426 -0.448184
N2    N     N_R   0.549954 0.917550 0.263593 0.251518
O23   O     O_R   0.464293 0.965951 0.321193 -0.392844
O24   O     O_R   0.713053 0.946127 0.233591 -0.420344
N3    N     N_R   0.290322 0.317807 0.083490 0.267556
O25   O     O_R   0.439221 0.307031 0.035026 -0.443420
O26   O     O_R   0.135688 0.356408 0.053781 -0.375453
O27   O     O_3   0.293950 0.445125 0.207247 -0.597683
C41   C     C_3   0.476325 0.484523 0.190897 0.388043
H27   H     H_    0.570174 0.437609 0.153894 0.133726
H28   H     H_    0.548285 0.503104 0.250592 0.055443
C42   C     C_3   0.448739 0.571598 0.139823 -0.918174
H29   H     H_    0.349601 0.619494 0.172432 0.254715
H30   H     H_    0.589640 0.606213 0.130661 0.197716
H31   H     H_    0.386659 0.554136 0.077849 0.280364

loop_
_geom_bond_atom_site_label_1
_geom_bond_atom_site_label_2
_geom_bond_distance
_ccdc_geom_bond_type
C28   H22   1.111089 S    
C10   C12   1.558280 S    
O19   C40   1.300168 A    
C8    C12   1.552588 S    
C41   H27   1.112637 S    
C14   C40   1.482996 S    
O15   V3    2.005155 S    
O12   V3    2.004948 S    
C42   H30   1.110474 S    
N3    O25   1.302259 A    
C6    C10   1.556735 S    
C24   H18   1.082045 S    
C35   N3    1.465672 S    
C8    C9    1.553860 S    
O16   V4    2.006757 S    
C13   C14   1.402150 A    
O12   C37   1.300379 A    
O5    C3    1.295019 A    
C10   C11   1.567808 S    
C27   H19   1.111633 S    
V2    O10   2.161194 S    
C5    C6    1.547966 S    
C26   C27   1.490619 S    
C3    C17   1.481152 S    
O8    V2    2.001057 S    
O13   C40   1.298024 A    
C31   C32   1.420363 A    
O15   C39   1.298044 A    
C34   C35   1.494895 S    
O1    V2    2.005093 S    
C4    C9    1.521983 S    
C25   C38   1.479866 S    
O7    V1    2.158018 S    
C19   H15   1.111877 S    
C1    O6    1.297235 A    
C28   H21   1.111764 S    
C16   C17   1.412527 A    
C41   H28   1.111098 S    
O9    C4    1.303077 A    
C33   C37   1.477600 S    
N2    O23   1.302283 A    
V3    O20   1.708405 S    
C20   N2    1.463566 S    
C42   H29   1.108350 S    
N3    O26   1.300982 A    
C19   H14   1.109940 S    
C22   C23   1.409396 A    
C24   C25   1.410563 A    
C15   H12   1.081883 S    
O17   V4    1.710389 S    
C32   H24   1.082624 S    
C5    C9    1.559577 S    
C36   H26   1.110215 S    
N1    O21   1.300886 A    
C35   H25   1.109541 S    
O18   V4    2.005242 S    
O11   C38   1.295382 A    
C27   H20   1.109788 S    
O13   V3    2.002661 S    
O18   C39   1.301938 A    
C21   C28   1.490268 S    
C23   H17   1.081225 S    
C1    C22   1.480058 S    
C23   C24   1.408703 A    
C12   H10   1.109931 S    
O2    C1    1.299113 A    
C18   C19   1.490622 S    
C14   C15   1.411441 A    
N1    O22   1.300762 A    
C37   O16   1.294975 A    
O17   V3    2.158005 S    
C29   C34   1.366465 A    
C25   C26   1.400541 A    
C5    H1    1.113363 S    
C13   C20   1.495954 S    
C29   C36   1.508298 S    
N2    O24   1.299459 A    
O3    C4    1.296767 A    
C7    H11   1.112584 S    
C16   H13   1.082546 S    
C6    H4    1.111137 S    
C31   H23   1.082447 S    
O6    V2    2.001114 S    
C11   N1    1.468460 S    
O19   V4    2.000940 S    
C10   C39   1.523983 S    
C17   C18   1.398788 A    
O2    V1    2.003651 S    
C19   C20   1.527307 S    
O4    C2    1.298920 A    
C36   O27   1.430048 S    
C20   H16   1.111804 S    
O1    C2    1.296486 A    
C8    H7    1.112977 S    
C7    C11   1.560400 S    
O5    V1    2.002590 S    
O8    C3    1.302334 A    
C7    C9    1.550778 S    
C21   C26   1.391355 A    
O14   C38   1.300989 A    
C30   C31   1.416885 A    
O9    V2    2.005283 S    
O7    V2    1.710922 S    
H6    C11   1.115353 S    
C35   C36   1.552209 S    
O3    V1    2.005043 S    
V1    O10   1.708454 S    
C12   H9    1.113053 S    
C15   C16   1.411560 A    
C27   C28   1.521320 S    
O14   V3    2.003629 S    
O27   C41   1.415056 S    
C5    H2    1.113076 S    
H5    C7    1.113117 S    
C33   C34   1.392720 A    
C2    C30   1.477444 S    
O11   V4    2.001455 S    
C29   C30   1.395762 A    
O4    V1    2.004998 S    
C6    H3    1.113196 S    
C8    H8    1.112941 S    
C21   C22   1.401354 A    
C13   C18   1.390519 A    
C41   C42   1.521075 S    
C32   C33   1.417831 A    
V4    O20   2.161213 S    
C42   H31   1.110613 S    
