data_mof_unit_14271.cif
_audit_creation_date              2012-12-10T18:15:19-0500
_audit_creation_method            fapswitch 2.2
_symmetry_space_group_name_H-M    P1
_symmetry_Int_Tables_number       1
_space_group_crystal_system       triclinic
_cell_length_a                    12.595495
_cell_length_b                    13.108298
_cell_length_c                    23.388775
_cell_angle_alpha                 90.991844
_cell_angle_beta                  103.189404
_cell_angle_gamma                 81.699037
_cell_volume                      3719.87105926

loop_
_atom_site_label
_atom_site_type_symbol
_atom_type_description
_atom_site_fract_x
_atom_site_fract_y
_atom_site_fract_z
_atom_type_partial_charge
C1    C     C_R   0.438262 0.691286 0.489078 0.902790
C2    C     C_R   0.494304 0.700410 0.031443 0.507373
C3    C     C_R   0.505302 0.698086 0.973548 -0.249548
C4    C     C_R   0.497850 0.607753 0.941053 -0.069026
C5    C     C_R   0.479818 0.517311 0.966909 -0.090243
C6    C     C_R   0.468840 0.427060 0.933500 -0.183839
C7    C     C_R   0.454901 0.335667 0.960298 0.377073
C8    C     C_R   0.440428 0.337900 0.018297 0.381231
C9    C     C_R   0.506937 0.606138 0.882681 0.631022
C10   C     C_R   0.471626 0.431704 0.873876 0.582450
C11   C     C_R   0.581062 0.453377 0.771938 -0.299207
C12   C     C_R   0.501158 0.500849 0.610217 1.012222
C13   C     C_R   0.582059 0.447621 0.712811 0.555531
C14   C     C_R   0.501625 0.510298 0.671926 -0.390531
C15   C     C_R   0.421526 0.581550 0.690447 0.248704
C16   C     C_R   0.418766 0.583642 0.749636 0.582888
C17   C     C_R   0.498697 0.520163 0.790312 0.024018
C18   C     C_R   0.583153 0.515111 0.246240 -0.089992
C19   C     C_R   0.588668 0.511344 0.306169 -0.226480
C20   C     C_R   0.493784 0.501873 0.326423 -0.025743
C21   C     C_R   0.393616 0.495891 0.286006 -0.203033
C22   C     C_R   0.388321 0.500062 0.226164 -0.120866
C23   C     C_R   0.561802 0.308175 0.507107 0.972242
C24   C     C_R   0.482946 0.509826 0.206299 0.303667
C25   C     C_R   0.717801 0.056258 0.474010 -0.298689
C26   C     C_R   0.599320 0.197797 0.505198 -0.303107
C27   C     C_R   0.289135 0.842984 0.475971 0.497154
C28   C     C_R   0.258132 0.949353 0.472890 0.557279
C29   C     C_R   0.337193 0.014133 0.475140 -0.312115
C30   C     C_R   0.447828 0.972927 0.476376 0.037736
C31   C     C_R   0.472729 0.867039 0.466616 0.007207
C32   C     C_R   0.533680 0.033841 0.484320 0.007129
C33   C     C_R   0.634569 0.994314 0.469283 -0.007507
C34   C     C_R   0.498510 0.499923 0.389342 0.825732
C35   C     C_R   0.650331 0.893922 0.449220 -0.176420
C36   C     C_R   0.570481 0.830782 0.447954 -0.079480
C37   C     C_R   0.523461 0.131862 0.508469 0.482729
C38   C     C_R   0.699342 0.158689 0.490472 0.560917
C39   C     C_R   0.398446 0.800965 0.475446 -0.352787
C40   C     C_R   0.091256 0.339342 0.422316 -0.274965
C41   C     C_R   0.800446 0.628029 0.571487 0.469760
C42   C     C_R   0.910431 0.647621 0.590341 0.193696
C43   C     C_R   0.994446 0.582306 0.572143 0.345020
C44   C     C_R   0.966739 0.518946 0.522976 -0.165174
C45   C     C_R   0.462266 0.425963 0.113189 0.547408
C46   C     C_R   0.855915 0.500849 0.505338 0.022143
C47   C     C_R   0.044580 0.469709 0.492117 0.049944
C48   C     C_R   0.014345 0.392109 0.451021 0.144718
C49   C     C_R   0.907121 0.369455 0.438137 -0.188577
C50   C     C_R   0.828665 0.424836 0.463931 -0.033957
C51   C     C_R   0.149782 0.498165 0.497744 0.011281
C52   C     C_R   0.196429 0.366139 0.433189 0.032074
C53   C     C_R   0.488655 0.603079 0.119770 0.506756
C54   C     C_R   0.485840 0.607968 0.059553 -0.103315
C55   C     C_R   0.474886 0.516988 0.026461 -0.136439
C56   C     C_R   0.458581 0.426035 0.052753 -0.157195
H1    H     H_    0.666925 0.515730 0.336468 0.160393
H2    H     H_    0.319215 0.488818 0.300501 0.166129
H3    H     H_    0.310839 0.495886 0.195128 0.133629
H4    H     H_    0.725276 0.863495 0.435625 0.145515
H5    H     H_    0.795223 0.026635 0.462764 0.193085
H6    H     H_    0.309186 0.096132 0.472735 0.242023
H7    H     H_    0.516876 0.768588 0.953749 0.198541
H8    H     H_    0.585008 0.754253 0.430695 0.160357
H9    H     H_    0.257682 0.325141 0.412156 0.138108
H10   H     H_    0.882914 0.310452 0.406771 0.174061
H11   H     H_    0.070146 0.278410 0.391745 0.164106
H12   H     H_    0.176022 0.563183 0.522992 0.221430
H13   H     H_    0.747606 0.404736 0.451541 0.225410
H14   H     H_    0.642520 0.404089 0.803508 0.198204
H15   H     H_    0.656534 0.522002 0.230711 0.144219
N1    N     N_R   0.477452 0.513201 0.144817 -0.364962
N2    N     N_R   0.492886 0.519324 0.850487 -0.314393
N3    N     N_R   0.222200 0.444670 0.469780 -0.127025
N4    N     N_R   0.776960 0.554790 0.529910 -0.176778
O1    O     O_R   0.366740 0.627150 0.485570 -0.559298
O2    O     O_2   0.504113 0.686490 0.153597 -0.526231
O3    O     O_2   0.529618 0.690500 0.858090 -0.560556
O4    O     O_2   0.451163 0.350536 0.838894 -0.516461
O5    O     O_R   0.544830 0.662520 0.504870 -0.576572
O6    O     O_R   0.410930 0.482340 0.574190 -0.599872
O7    O     O_R   0.589010 0.517710 0.593490 -0.584827
O8    O     O_R   0.455170 0.337480 0.495130 -0.580313
O9    O     O_R   0.633260 0.372850 0.514430 -0.582291
O10   O     O_R   0.410990 0.482290 0.406510 -0.629729
O11   O     O_R   0.589070 0.517660 0.425810 -0.663446
O12   O     O_2   0.454297 0.338966 0.140963 -0.515653
Zn1   Zn    Zn3+2 0.381090 0.476380 0.487110 1.000544
Zn2   Zn    Zn3+2 0.618910 0.523620 0.512890 0.988077
O13   O     O_3   0.495202 0.793695 0.060107 -0.603092
C57   C     C_3   0.385508 0.838534 0.059530 0.165662
H16   H     H_    0.388030 0.886415 0.099353 0.195032
H17   H     H_    0.330035 0.780480 0.062368 0.119952
C58   C     C_3   0.336868 0.908655 0.005350 -0.410021
H18   H     H_    0.389797 0.969353 0.004741 0.237366
H19   H     H_    0.334057 0.862968 0.964757 0.232574
C59   C     C_3   0.219988 0.959312 0.005604 -0.948336
H20   H     H_    0.164959 0.899691 0.003641 0.274052
H21   H     H_    0.187678 0.011531 0.966730 0.271493
H22   H     H_    0.219486 0.005050 0.045991 0.262261
F1    F     F_    0.777985 0.219090 0.490681 -0.666347
F2    F     F_    0.442746 0.163246 0.537575 -0.657574
F3    F     F_    0.212437 0.781891 0.479537 -0.650156
F4    F     F_    0.151704 0.990272 0.469602 -0.646765
O14   O     O_3   0.712172 0.683565 0.590431 -0.605398
C60   C     C_3   0.730344 0.705445 0.651322 0.125552
H23   H     H_    0.647895 0.733110 0.659759 0.147164
H24   H     H_    0.775987 0.771886 0.662493 0.174702
C61   C     C_3   0.781878 0.612016 0.692555 -0.390931
H25   H     H_    0.744266 0.543031 0.675968 0.278833
H26   H     H_    0.871270 0.594304 0.694764 0.221493
C62   C     C_3   0.766389 0.633132 0.754754 -0.877618
H27   H     H_    0.806702 0.700384 0.772949 0.270657
H28   H     H_    0.804177 0.564656 0.783398 0.273334
H29   H     H_    0.677327 0.649034 0.754761 0.261690
O15   O     O_3   0.102667 0.578145 0.603721 -0.603661
C63   C     C_3   0.116796 0.529642 0.659341 0.221630
H30   H     H_    0.048093 0.555242 0.681116 0.108207
H31   H     H_    0.190414 0.553528 0.689230 0.226086
C64   C     C_3   0.132884 0.411430 0.655776 -0.499078
H32   H     H_    0.128068 0.378899 0.698530 0.211064
H33   H     H_    0.065847 0.385748 0.621490 0.238851
C65   C     C_3   0.244364 0.368134 0.643401 -0.644110
H34   H     H_    0.251780 0.397573 0.600662 0.287072
H35   H     H_    0.252345 0.282734 0.641693 0.252431
H36   H     H_    0.312291 0.389653 0.678724 0.242842
O16   O     O_3   0.938571 0.723994 0.629948 -0.643325
C66   C     C_3   0.935768 0.817026 0.599459 0.099010
H37   H     H_    0.896537 0.880568 0.623132 0.163448
H38   H     H_    0.885323 0.820949 0.553299 0.120835
C67   C     C_3   0.053319 0.835537 0.600303 -0.329969
H39   H     H_    0.104401 0.825012 0.645862 0.250620
H40   H     H_    0.089924 0.778690 0.571861 0.278000
C68   C     C_3   0.055127 0.944104 0.578559 -0.798654
H41   H     H_    0.005590 0.955990 0.532761 0.303071
H42   H     H_    0.141393 0.954906 0.579800 0.285536
H43   H     H_    0.021208 0.002466 0.607167 0.251793
O17   O     O_3   0.448205 0.245165 0.928838 -0.597489
C69   C     C_3   0.543869 0.172552 0.949634 0.136129
H44   H     H_    0.519694 0.094325 0.942135 0.165770
H45   H     H_    0.579382 0.177026 0.997715 0.151031
C70   C     C_3   0.632080 0.183584 0.915491 -0.339747
H46   H     H_    0.597713 0.174367 0.867826 0.271450
H47   H     H_    0.657276 0.261513 0.922388 0.212665
C71   C     C_3   0.733609 0.102809 0.935468 -0.941721
H48   H     H_    0.770785 0.111740 0.982817 0.267939
H49   H     H_    0.795739 0.112751 0.909890 0.275087
H50   H     H_    0.711082 0.023975 0.928136 0.274629
O18   O     O_3   0.414890 0.250953 0.042111 -0.597918
C72   C     C_3   0.303306 0.239612 0.018159 0.129478
H51   H     H_    0.298192 0.155908 0.016255 0.171894
H52   H     H_    0.271104 0.270143 0.972279 0.146806
C73   C     C_3   0.229602 0.289890 0.057692 -0.338220
H53   H     H_    0.259288 0.255912 0.102708 0.263315
H54   H     H_    0.233738 0.374008 0.060097 0.216133
C74   C     C_3   0.109927 0.273714 0.034250 -0.968612
H55   H     H_    0.077783 0.308694 0.989617 0.271087
H56   H     H_    0.058749 0.310992 0.063806 0.274271
H57   H     H_    0.103098 0.190133 0.032366 0.269816
F5    F     F_    0.659077 0.378635 0.695207 -0.649896
O19   O     O_3   0.338641 0.641955 0.650874 -0.580013
C75   C     C_3   0.379660 0.726185 0.630696 0.109089
H58   H     H_    0.320620 0.755392 0.589610 0.199339
H59   H     H_    0.460701 0.703857 0.619200 0.106593
C76   C     C_3   0.386403 0.813987 0.674933 -0.366709
H60   H     H_    0.305779 0.834200 0.687102 0.262163
H61   H     H_    0.450294 0.788856 0.715291 0.242734
C77   C     C_3   0.416115 0.909412 0.649161 -0.899190
H62   H     H_    0.496843 0.891126 0.636895 0.262477
H63   H     H_    0.421706 0.971383 0.682217 0.287136
H64   H     H_    0.352012 0.938034 0.609579 0.267370
F6    F     F_    0.337212 0.646226 0.767521 -0.649247

loop_
_geom_bond_atom_site_label_1
_geom_bond_atom_site_label_2
_ccdc_geom_bond_type
C55   C56   A    
C15   O19   S    
C76   H60   S    
C69   H45   S    
C41   C42   A    
C36   H8    S    
C35   C36   A    
C51   N3    A    
C67   C68   S    
C66   H37   S    
C8    C56   A    
C68   H43   S    
C62   H28   S    
C59   H20   S    
C11   H14   S    
C7    C8    A    
C53   C54   A    
C19   H1    S    
C24   N1    S    
O7    Zn2   S    
C41   O14   S    
C18   C24   A    
C28   C29   A    
C45   O12   S    
C50   H13   S    
C38   F1    S    
C52   N3    A    
C63   H31   S    
C5    C6    A    
C43   O15   S    
C69   C70   S    
C65   H35   S    
C41   N4    A    
C60   H23   S    
C15   C16   A    
O15   C63   S    
C18   C19   A    
C34   O11   A    
C23   C26   S    
C27   F3    S    
O5    Zn2   S    
C2    O13   S    
C16   F6    S    
C62   H27   S    
C59   H21   S    
C29   H6    S    
C77   H64   S    
C11   C17   A    
C19   C20   A    
C45   C56   A    
C27   C39   A    
C16   C17   A    
C72   C73   S    
C73   H54   S    
O1    Zn1   S    
C13   F5    S    
C64   C65   S    
C51   H12   S    
C20   C34   S    
C77   H63   S    
O8    Zn1   S    
C76   H61   S    
C13   C14   A    
C45   N1    A    
C17   N2    S    
C70   C71   S    
C9    N2    A    
C46   N4    A    
C71   H49   S    
C44   C46   A    
C71   H48   S    
C75   H59   S    
C31   C36   A    
C49   H10   S    
C65   H34   S    
C23   O9    A    
C61   C62   S    
C57   H16   S    
N4    Zn2   S    
C26   C38   A    
C65   H36   S    
C68   H42   S    
C58   C59   S    
C40   C52   A    
C40   H11   S    
C37   F2    S    
C35   H4    S    
C34   O10   A    
C53   O2    S    
C43   C44   A    
C29   C30   A    
C25   C38   A    
C57   H17   S    
C75   C76   S    
C28   F4    S    
C47   C48   A    
C69   H44   S    
C12   O7    A    
C25   H5    S    
C32   C37   A    
C73   C74   S    
C58   H19   S    
C68   H41   S    
C23   O8    A    
C42   O16   S    
C77   H62   S    
C12   C14   S    
C67   H39   S    
C76   C77   S    
C2    C54   A    
C22   C24   A    
C63   C64   S    
C42   C43   A    
C3    C4    A    
C66   C67   S    
C22   H3    S    
C59   H22   S    
C71   H50   S    
C64   H33   S    
C75   H58   S    
O10   Zn1   S    
C18   H15   S    
C40   C48   A    
C54   C55   A    
C74   H55   S    
C14   C15   A    
C1    O1    A    
C5    C55   A    
C74   H57   S    
C4    C5    A    
C67   H40   S    
O11   Zn2   S    
C66   H38   S    
C6    C10   A    
C7    O17   S    
C47   C51   A    
C10   O4    S    
C44   C47   A    
C26   C37   A    
C6    C7    A    
C3    H7    S    
O14   C60   S    
C46   C50   A    
C63   H30   S    
C72   H51   S    
C32   C33   A    
C61   H26   S    
C8    O18   S    
C73   H53   S    
C21   H2    S    
O19   C75   S    
O18   C72   S    
C57   C58   S    
C30   C32   A    
C11   C13   A    
C33   C35   A    
O13   C57   S    
C30   C31   A    
C60   H24   S    
C48   C49   A    
C74   H56   S    
C10   N2    A    
C31   C39   A    
C12   O6    A    
C2    C3    A    
C72   H52   S    
C9    O3    S    
C58   H18   S    
O6    Zn1   S    
O17   C69   S    
C1    C39   S    
C20   C21   A    
C49   C50   A    
O9    Zn2   S    
C61   H25   S    
C27   C28   A    
C70   H46   S    
C1    O5    A    
C64   H32   S    
N3    Zn1   S    
C4    C9    A    
C21   C22   A    
C53   N1    A    
C62   H29   S    
C70   H47   S    
C52   H9    S    
O16   C66   S    
C25   C33   A    
C60   C61   S    
