data_mof_unit_35922.cif
_audit_creation_date              2012-12-10T18:58:42-0500
_audit_creation_method            fapswitch 2.2
_symmetry_space_group_name_H-M    P1
_symmetry_Int_Tables_number       1
_space_group_crystal_system       triclinic
_cell_length_a                    13.002304
_cell_length_b                    10.825884
_cell_length_c                    9.539828
_cell_angle_alpha                 89.871131
_cell_angle_beta                  96.005884
_cell_angle_gamma                 90.12931
_cell_volume                      1335.46310119

loop_
_atom_site_label
_atom_site_type_symbol
_atom_type_description
_atom_site_fract_x
_atom_site_fract_y
_atom_site_fract_z
_atom_type_partial_charge
C1    C     C_R   0.501563 0.262358 0.500347 0.800763
C2    C     C_R   0.027932 0.500541 0.567626 0.177434
C3    C     C_R   0.972052 0.499659 0.432408 0.176588
C4    C     C_R   0.864649 0.499411 0.420193 -0.268923
C5    C     C_R   0.868074 0.501008 0.675406 -0.198441
C6    C     C_R   0.975562 0.501210 0.688515 -0.216977
C7    C     C_R   0.505150 0.063492 0.626879 0.134540
C8    C     C_R   0.510907 0.129334 0.502044 -0.098190
C9    C     C_R   0.529781 0.064910 0.379638 -0.215095
C10   C     C_R   0.529267 0.936210 0.379477 -0.214108
C11   C     C_R   0.510198 0.870995 0.501706 -0.097525
C12   C     C_R   0.300518 0.499923 0.473827 0.804994
C13   C     C_R   0.504774 0.936262 0.626781 0.118157
C14   C     C_3   0.425446 0.930016 0.729276 -0.465492
C15   C     C_3   0.426179 0.070200 0.729555 -0.469574
C16   C     C_R   0.585714 0.536803 0.085614 0.260403
C17   C     C_R   0.419779 0.451043 0.063142 -0.085735
C18   C     C_R   0.419808 0.450934 0.914308 -0.085607
C19   C     C_R   0.585810 0.536469 0.938310 0.256835
C20   C     C_3   0.637873 0.659185 0.938667 -0.503782
C21   C     C_3   0.637054 0.660152 0.097738 -0.507783
C22   C     C_R   0.501296 0.737739 0.500105 0.803686
C23   C     C_R   0.699480 0.500089 0.526178 0.804695
C24   C     C_R   0.812237 0.500189 0.541264 -0.049110
C25   C     C_R   0.187749 0.499886 0.458757 -0.051826
C26   C     C_R   0.024411 0.498968 0.311513 -0.216746
C27   C     C_R   0.131903 0.499074 0.324614 -0.196577
C28   C     C_R   0.135343 0.500643 0.579843 -0.271100
Cu1   Cu    Cu3+1 0.499990 0.499980 0.640670 0.939459
Cu2   Cu    Cu3+1 0.500010 0.500020 0.359330 0.939327
H1    H     H_    0.822143 0.498418 0.316169 0.147204
H2    H     H_    0.456647 0.889578 0.832102 0.193980
H3    H     H_    0.352029 0.111538 0.683189 0.194725
H4    H     H_    0.458407 0.110245 0.832115 0.199434
H5    H     H_    0.354160 0.413011 0.109404 0.137513
H6    H     H_    0.354230 0.412606 0.849738 0.137192
H7    H     H_    0.588305 0.731759 0.884270 0.215481
H8    H     H_    0.715693 0.655523 0.155623 0.191561
H9    H     H_    0.586144 0.732676 0.134494 0.208351
H10   H     H_    0.828844 0.501381 0.770099 0.150265
H11   H     H_    0.982345 0.498330 0.207236 0.130693
H12   H     H_    0.017611 0.501832 0.792799 0.130562
H13   H     H_    0.171148 0.498474 0.229912 0.150423
H14   H     H_    0.177870 0.501308 0.683885 0.146816
H15   H     H_    0.540251 0.113308 0.282630 0.165922
H16   H     H_    0.539149 0.888647 0.282361 0.155254
H17   H     H_    0.350912 0.889672 0.682547 0.200467
N1    N     N_R   0.500660 0.500930 0.148010 -0.184463
N2    N     N_R   0.500660 0.500890 0.852110 -0.183705
O1    O     O_R   0.500000 0.319640 0.618810 -0.577983
O2    O     O_R   0.500010 0.319680 0.381230 -0.585125
O3    O     O_R   0.348990 0.499960 0.599490 -0.592659
O4    O     O_R   0.349000 0.500000 0.361910 -0.590745
O5    O     O_R   0.499990 0.680320 0.618770 -0.578333
O6    O     O_R   0.500000 0.680360 0.381190 -0.582509
O7    O     O_R   0.651000 0.500000 0.638090 -0.587564
O8    O     O_R   0.651010 0.500040 0.400510 -0.586750
H18   H     H_    0.716963 0.652806 0.904998 0.189701

loop_
_geom_bond_atom_site_label_1
_geom_bond_atom_site_label_2
_ccdc_geom_bond_type
C10   H16   S    
C23   C24   S    
C16   C21   S    
C9    H15   S    
C14   H17   S    
Cu1   O7    S    
C25   C27   A    
C1    C8    S    
C11   C13   A    
C9    C10   A    
C19   N2    A    
C15   H4    S    
C12   O4    A    
C21   H9    S    
C17   N1    A    
C12   C25   S    
Cu2   O2    S    
C10   C11   A    
C16   N1    A    
C7    C15   S    
C17   C18   A    
C22   O6    A    
C7    C8    A    
C22   O5    A    
Cu1   N2    S    
C13   C14   S    
C25   C28   A    
C20   H7    S    
C1    O2    A    
C23   O7    A    
C26   C27   A    
C2    C6    A    
C5    C24   A    
C16   C19   A    
Cu2   N1    S    
C12   O3    A    
C28   H14   S    
C2    C3    A    
Cu1   O1    S    
C6    H12   S    
C5    C6    A    
C4    C24   A    
Cu2   O4    S    
C4    H1    S    
Cu1   O5    S    
Cu1   Cu2   S    
C3    C4    A    
Cu2   O8    S    
C27   H13   S    
C7    C13   A    
C20   H18   S    
C17   H5    S    
C20   C21   S    
C26   H11   S    
C1    O1    A    
C5    H10   S    
C23   O8    A    
C14   C15   S    
C2    C28   A    
C11   C22   S    
C18   H6    S    
Cu2   O6    S    
C15   H3    S    
C3    C26   A    
C21   H8    S    
C19   C20   S    
C18   N2    A    
C14   H2    S    
C8    C9    A    
Cu1   O3    S    
