data_mof_unit_32044.cif
_audit_creation_date              2012-10-26T17:11:13-0400
_audit_creation_method            fapswitch 2.2
_symmetry_space_group_name_H-M    P1
_symmetry_Int_Tables_number       1
_space_group_crystal_system       triclinic
_cell_length_a                    27.876927
_cell_length_b                    18.837726
_cell_length_c                    16.771062
_cell_angle_alpha                 90.096616
_cell_angle_beta                  62.74895
_cell_angle_gamma                 90.096206
_cell_volume                      7829.59197451

loop_
_atom_site_label
_atom_site_type_symbol
_atom_type_description
_atom_site_fract_x
_atom_site_fract_y
_atom_site_fract_z
_atom_type_partial_charge
C1    C     C_R   0.295924 0.729697 0.328877 0.836845
C2    C     C_R   0.704061 0.270296 0.671128 0.816843
C3    C     C_R   0.705799 0.726884 0.670411 0.800898
C4    C     C_R   0.295975 0.270229 0.328810 0.836441
C5    C     C_R   0.795954 0.229732 0.328856 0.823335
C6    C     C_R   0.204057 0.770285 0.671132 0.799058
C7    C     C_R   0.204054 0.229725 0.671165 0.802981
C8    C     C_R   0.795154 0.771653 0.329192 0.836440
C9    C     C_R   0.525401 0.872826 0.596507 -0.204838
C10   C     C_R   0.426396 0.127998 0.575964 -0.212407
C11   C     C_R   0.425526 0.872267 0.577369 -0.211757
C12   C     C_R   0.525506 0.127069 0.597369 -0.203740
C13   C     C_R   0.034348 0.373097 0.550417 -0.217814
C14   C     C_R   0.921788 0.624091 0.582288 -0.207369
C15   C     C_R   0.958556 0.381537 0.474822 -0.209678
C16   C     C_R   0.026215 0.625922 0.589005 -0.204423
C17   C     C_R   0.221526 0.767188 0.952035 0.124094
C18   C     C_R   0.778944 0.233481 0.047430 0.124721
C19   C     C_R   0.766650 0.786441 0.058248 0.124004
C20   C     C_R   0.221703 0.232785 0.951801 0.124729
C21   C     C_R   0.721267 0.266768 0.952318 0.124520
C22   C     C_R   0.279070 0.733790 0.047311 0.124391
C23   C     C_R   0.279180 0.265939 0.047269 0.124824
C24   C     C_R   0.705275 0.757712 0.966546 0.126705
C25   C     C_R   0.235536 0.696617 0.957512 -0.193566
C26   C     C_R   0.764825 0.304023 0.042065 -0.192093
C27   C     C_R   0.754875 0.840898 0.012387 -0.169414
C28   C     C_R   0.235713 0.303344 0.957715 -0.194392
C29   C     C_R   0.735401 0.196227 0.957659 -0.192643
C30   C     C_R   0.265092 0.804374 0.041786 -0.191645
C31   C     C_R   0.265211 0.195365 0.041296 -0.192781
C32   C     C_R   0.716306 0.703916 0.013952 -0.163902
C33   C     C_R   0.263888 0.679955 0.005305 -0.172319
C34   C     C_R   0.736404 0.320630 0.994357 -0.170991
C35   C     C_R   0.724829 0.826489 0.966124 -0.197021
C36   C     C_R   0.264050 0.319889 0.005613 -0.172539
C37   C     C_R   0.763823 0.179620 0.005365 -0.171520
C38   C     C_R   0.236727 0.821037 0.994000 -0.172015
C39   C     C_R   0.236866 0.178817 0.993393 -0.172058
C40   C     C_R   0.746339 0.718173 0.059624 -0.193031
C41   C     C_R   0.138066 0.817795 0.951872 0.115247
C42   C     C_R   0.862258 0.182646 0.047881 0.116863
C43   C     C_R   0.854801 0.828154 0.052442 0.121567
C44   C     C_R   0.138104 0.182425 0.951851 0.116804
C45   C     C_R   0.637899 0.317557 0.951985 0.116022
C46   C     C_R   0.362279 0.682731 0.047887 0.117369
C47   C     C_R   0.362483 0.316767 0.047736 0.118453
C48   C     C_R   0.628748 0.696310 0.953981 0.100037
C49   C     C_R   0.111055 0.840862 0.902242 -0.094305
C50   C     C_R   0.889095 0.159315 0.097668 -0.092139
C51   C     C_R   0.885365 0.844982 0.098947 -0.088671
C52   C     C_R   0.111036 0.159254 0.902307 -0.093616
C53   C     C_R   0.611000 0.340806 0.902256 -0.090908
C54   C     C_R   0.389051 0.659269 0.097730 -0.092957
C55   C     C_R   0.389234 0.340439 0.097551 -0.092239
C56   C     C_R   0.616513 0.650981 0.897770 -0.079434
C57   C     C_R   0.127136 0.812799 0.815680 0.092316
C58   C     C_R   0.872963 0.187285 0.184295 0.091727
C59   C     C_R   0.870410 0.814568 0.183705 0.082628
C60   C     C_R   0.127124 0.187184 0.815731 0.091531
C61   C     C_R   0.627102 0.312806 0.815658 0.090539
C62   C     C_R   0.372847 0.687111 0.184439 0.084125
C63   C     C_R   0.373038 0.312712 0.184258 0.086541
C64   C     C_R   0.648988 0.653687 0.804608 0.094434
C65   C     C_R   0.179285 0.783341 0.768698 -0.067125
C66   C     C_R   0.820857 0.216902 0.231180 -0.078144
C67   C     C_R   0.817574 0.788073 0.232825 -0.077495
C68   C     C_R   0.179311 0.216663 0.768697 -0.068145
C69   C     C_R   0.679208 0.283208 0.768753 -0.075256
C70   C     C_R   0.320803 0.716865 0.231222 -0.080097
C71   C     C_R   0.320918 0.282978 0.231128 -0.080364
C72   C     C_R   0.683012 0.712252 0.767331 -0.066436
C73   C     C_R   0.209678 0.770056 0.814549 -0.303108
C74   C     C_R   0.790643 0.230554 0.185098 -0.299366
C75   C     C_R   0.783982 0.781737 0.191136 -0.299377
C76   C     C_R   0.209772 0.229971 0.814467 -0.303349
C77   C     C_R   0.709480 0.269649 0.814751 -0.298640
C78   C     C_R   0.290667 0.730714 0.185063 -0.298155
C79   C     C_R   0.290749 0.269072 0.184983 -0.299212
C80   C     C_R   0.699129 0.751952 0.822215 -0.294660
C81   C     C_R   0.188712 0.784380 0.906087 0.064170
C82   C     C_R   0.811687 0.216274 0.093517 0.062891
C83   C     C_R   0.802534 0.799191 0.100779 0.062788
C84   C     C_R   0.188814 0.215719 0.905967 0.064096
C85   C     C_R   0.688481 0.283963 0.906305 0.062050
C86   C     C_R   0.311751 0.716479 0.093468 0.063901
C87   C     C_R   0.311889 0.283144 0.093385 0.063831
C88   C     C_R   0.675631 0.738850 0.914767 0.069376
C89   C     C_R   0.197221 0.631576 0.524810 0.815234
C90   C     C_R   0.801198 0.369135 0.480427 0.818497
C91   C     C_R   0.796466 0.631811 0.494639 0.824756
C92   C     C_R   0.197620 0.368492 0.523077 0.819683
C93   C     C_R   0.697180 0.131609 0.525010 0.813459
C94   C     C_R   0.296655 0.868474 0.495142 0.826988
C95   C     C_R   0.296700 0.131521 0.495035 0.827840
C96   C     C_R   0.697171 0.868414 0.525037 0.817796
C97   C     C_R   0.928366 0.900043 0.064337 0.810394
C98   C     C_R   0.070527 0.101081 0.936269 0.810984
C99   C     C_R   0.070539 0.898960 0.936202 0.813028
C100  C     C_R   0.929500 0.101081 0.063771 0.809704
C101  C     C_R   0.429554 0.398840 0.063676 0.811438
C102  C     C_R   0.572877 0.597895 0.934393 0.816045
C103  C     C_R   0.570540 0.398965 0.936194 0.800315
C104  C     C_R   0.429489 0.601068 0.063783 0.816794
C105  C     C_R   0.034369 0.500909 0.553644 0.035251
C106  C     C_R   0.940264 0.502419 0.530110 0.032308
C107  C     C_R   0.528869 0.999972 0.578188 0.032076
C108  C     C_R   0.431106 0.000083 0.564653 0.030865
C109  C     C_R   0.005173 0.564848 0.567389 0.040821
C110  C     C_R   0.970243 0.439363 0.516097 0.039599
C111  C     C_R   0.955934 0.564613 0.560493 0.040680
C112  C     C_R   0.013315 0.437236 0.538235 0.041846
C113  C     C_R   0.502302 0.064885 0.583010 0.041813
C114  C     C_R   0.453259 0.935097 0.575105 0.043896
C115  C     C_R   0.453580 0.065034 0.574729 0.043925
C116  C     C_R   0.502150 0.935109 0.582879 0.041732
C117  C     C_R   0.111295 0.434861 0.550243 0.018610
C118  C     C_R   0.863024 0.564920 0.530643 0.019236
C119  C     C_R   0.878376 0.440647 0.484512 0.015622
C120  C     C_R   0.109940 0.564162 0.559387 0.015438
C121  C     C_R   0.608825 0.935284 0.566002 0.015562
C122  C     C_R   0.362145 0.065140 0.539052 0.024168
C123  C     C_R   0.361824 0.935090 0.539618 0.023485
C124  C     C_R   0.608855 0.064595 0.566344 0.016275
C125  C     C_R   0.166940 0.434986 0.531117 -0.134105
C126  C     C_R   0.818317 0.565154 0.511765 -0.147888
C127  C     C_R   0.826221 0.437537 0.487229 -0.137726
C128  C     C_R   0.166469 0.564629 0.534463 -0.133843
C129  C     C_R   0.665871 0.935134 0.536724 -0.132337
C130  C     C_R   0.317598 0.064968 0.518032 -0.144659
C131  C     C_R   0.317462 0.935145 0.518287 -0.144460
C132  C     C_R   0.665890 0.064821 0.536792 -0.131415
C133  C     C_R   0.195364 0.500000 0.508132 0.074330
C134  C     C_R   0.794302 0.500028 0.509756 0.080387
C135  C     C_R   0.694354 0.999991 0.509684 0.075036
C136  C     C_R   0.290783 0.000034 0.523807 0.075079
C137  C     C_R   0.085407 0.500078 0.553949 0.076982
C138  C     C_R   0.893814 0.502647 0.515225 0.076256
C139  C     C_R   0.582417 0.999943 0.569302 0.079550
C140  C     C_R   0.385306 0.000110 0.546694 0.075814
C141  C     C_R   0.576652 0.873538 0.591425 -0.178649
C142  C     C_R   0.381069 0.127600 0.562009 -0.179313
C143  C     C_R   0.380182 0.872762 0.563499 -0.178507
C144  C     C_R   0.576729 0.126290 0.592361 -0.181184
C145  C     C_R   0.080166 0.372535 0.563093 -0.178065
C146  C     C_R   0.875982 0.623639 0.569306 -0.170389
C147  C     C_R   0.914853 0.383352 0.456182 -0.173013
C148  C     C_R   0.076912 0.625146 0.586719 -0.178417
Cu1   Cu    Cu3+1 0.209920 0.785290 0.495070 0.919352
Cu2   Cu    Cu3+1 0.790080 0.214710 0.504930 0.923089
Cu3   Cu    Cu3+1 0.790080 0.785290 0.504930 0.919315
Cu4   Cu    Cu3+1 0.209920 0.214710 0.495070 0.914888
Cu5   Cu    Cu3+1 0.709920 0.285290 0.495070 0.916495
Cu6   Cu    Cu3+1 0.290080 0.714710 0.504930 0.913819
Cu7   Cu    Cu3+1 0.290080 0.285290 0.504930 0.914284
Cu8   Cu    Cu3+1 0.709920 0.714710 0.495070 0.918977
Cu9   Cu    Cu3+1 0.495240 0.500000 0.924150 0.916408
Cu10  Cu    Cu3+1 0.504760 0.500000 0.075850 0.918153
Cu11  Cu    Cu3+1 0.995240 1.000000 0.924150 0.914900
Cu12  Cu    Cu3+1 0.004760 0.000000 0.075850 0.919400
H1    H     H_    0.589699 0.824531 0.608133 0.174890
H2    H     H_    0.360030 0.177363 0.575750 0.179652
H3    H     H_    0.358614 0.823288 0.578008 0.179163
H4    H     H_    0.589840 0.175174 0.609529 0.168240
H5    H     H_    0.089519 0.322157 0.582430 0.176571
H6    H     H_    0.849602 0.669006 0.594430 0.169822
H7    H     H_    0.911124 0.339489 0.418015 0.166163
H8    H     H_    0.088927 0.673267 0.607534 0.166905
H9    H     H_    0.505037 0.822305 0.611672 0.133730
H10   H     H_    0.438635 0.179201 0.588868 0.133754
H11   H     H_    0.437241 0.821158 0.591244 0.133721
H12   H     H_    0.505063 0.177490 0.613221 0.133125
H13   H     H_    0.014238 0.323078 0.554299 0.139884
H14   H     H_    0.928554 0.671408 0.611930 0.133978
H15   H     H_    0.984399 0.335316 0.453085 0.140334
H16   H     H_    0.005175 0.675941 0.605696 0.134029
H17   H     H_    0.226345 0.875847 0.990001 0.138250
H18   H     H_    0.774275 0.124828 0.009278 0.137228
H19   H     H_    0.755207 0.675287 0.093765 0.138062
H20   H     H_    0.226448 0.124021 0.989045 0.138282
H21   H     H_    0.725947 0.375419 0.990448 0.138848
H22   H     H_    0.274239 0.625137 0.009333 0.137855
H23   H     H_    0.274435 0.374695 0.009995 0.137847
H24   H     H_    0.716971 0.868759 0.930013 0.132480
H25   H     H_    0.223742 0.654475 0.926051 0.138290
H26   H     H_    0.776554 0.346180 0.073597 0.138620
H27   H     H_    0.769790 0.894210 0.011144 0.137191
H28   H     H_    0.223920 0.345550 0.926538 0.138357
H29   H     H_    0.723670 0.154069 0.926132 0.137701
H30   H     H_    0.276876 0.846510 0.073270 0.138894
H31   H     H_    0.276986 0.153169 0.072511 0.138966
H32   H     H_    0.702687 0.650060 0.013796 0.140403
H33   H     H_    0.249845 0.747683 0.779393 0.169789
H34   H     H_    0.750534 0.253109 0.220132 0.173802
H35   H     H_    0.743081 0.762132 0.228721 0.172641
H36   H     H_    0.249985 0.252301 0.779286 0.169805
H37   H     H_    0.749597 0.247122 0.779679 0.173588
H38   H     H_    0.250592 0.753378 0.220045 0.173372
H39   H     H_    0.250615 0.246487 0.219967 0.172831
H40   H     H_    0.732173 0.789406 0.792417 0.165230
O1    O     O_R   0.255040 0.869590 0.478480 -0.575877
O2    O     O_R   0.744960 0.130410 0.521520 -0.574985
O3    O     O_R   0.744960 0.869590 0.521520 -0.575119
O4    O     O_R   0.255040 0.130410 0.478480 -0.575907
O5    O     O_R   0.755040 0.369590 0.478480 -0.581626
O6    O     O_R   0.244960 0.630410 0.521520 -0.575310
O7    O     O_R   0.244960 0.369590 0.521520 -0.574642
O8    O     O_R   0.755040 0.630410 0.478480 -0.580453
O9    O     O_R   0.182050 0.796550 0.624440 -0.595415
O10   O     O_R   0.817950 0.203450 0.375560 -0.585124
O11   O     O_R   0.817950 0.796550 0.375560 -0.579449
O12   O     O_R   0.182050 0.203450 0.624440 -0.595029
O13   O     O_R   0.682050 0.296550 0.624440 -0.591436
O14   O     O_R   0.317950 0.703450 0.375560 -0.580812
O15   O     O_R   0.317950 0.296550 0.375560 -0.581227
O16   O     O_R   0.682050 0.703450 0.624440 -0.592117
O17   O     O_R   0.250530 0.763330 0.367210 -0.584699
O18   O     O_R   0.749470 0.236670 0.632790 -0.589137
O19   O     O_R   0.749470 0.763330 0.632790 -0.606018
O20   O     O_R   0.250530 0.236670 0.367210 -0.585715
O21   O     O_R   0.750530 0.263330 0.367210 -0.587312
O22   O     O_R   0.249470 0.736670 0.632790 -0.604373
O23   O     O_R   0.249470 0.263330 0.632790 -0.603778
O24   O     O_R   0.750530 0.736670 0.367210 -0.586142
O25   O     O_R   0.177260 0.690030 0.513710 -0.596926
O26   O     O_R   0.822740 0.309970 0.486290 -0.597943
O27   O     O_R   0.822740 0.690030 0.486290 -0.596643
O28   O     O_R   0.177260 0.309970 0.513710 -0.603831
O29   O     O_R   0.677260 0.190030 0.513710 -0.597462
O30   O     O_R   0.322740 0.809970 0.486290 -0.603059
O31   O     O_R   0.322740 0.190030 0.486290 -0.603793
O32   O     O_R   0.677260 0.809970 0.513710 -0.598045
O33   O     O_R   0.051640 0.926880 0.885090 -0.579282
O34   O     O_R   0.948360 0.073120 0.114910 -0.579274
O35   O     O_R   0.948360 0.926880 0.114910 -0.577732
O36   O     O_R   0.051640 0.073120 0.885090 -0.579803
O37   O     O_R   0.551640 0.426880 0.885090 -0.584730
O38   O     O_R   0.448360 0.573120 0.114910 -0.578142
O39   O     O_R   0.448360 0.426880 0.114910 -0.579146
O40   O     O_R   0.551640 0.573120 0.885090 -0.578541
O41   O     O_R   0.940620 0.926560 0.986760 -0.587002
O42   O     O_R   0.059380 0.073440 0.013240 -0.585235
O43   O     O_R   0.059380 0.926560 0.013240 -0.584627
O44   O     O_R   0.940620 0.073440 0.986760 -0.586253
O45   O     O_R   0.440620 0.426560 0.986760 -0.585041
O46   O     O_R   0.559380 0.573440 0.013240 -0.588241
O47   O     O_R   0.559380 0.426560 0.013240 -0.586260
O48   O     O_R   0.440620 0.573440 0.986760 -0.582908
C149  C     C_3   0.255291 0.500420 0.442133 -0.734557
H41   H     H_    0.265895 0.546609 0.396077 0.214615
H42   H     H_    0.279954 0.501143 0.478622 0.247779
H43   H     H_    0.266560 0.453800 0.396547 0.213601
C150  C     C_3   0.733413 0.496550 0.542588 -0.749156
H44   H     H_    0.711438 0.544101 0.577867 0.223027
H45   H     H_    0.724231 0.488453 0.485393 0.248548
H46   H     H_    0.715146 0.454583 0.594363 0.228149
C151  C     C_3   0.753715 0.999989 0.440914 -0.736655
H47   H     H_    0.763741 0.046438 0.395361 0.214267
H48   H     H_    0.779695 0.000069 0.475067 0.248172
H49   H     H_    0.763698 0.953445 0.395376 0.212831
C152  C     C_3   0.230119 0.000020 0.556400 -0.742102
H50   H     H_    0.210770 0.046372 0.600443 0.221085
H51   H     H_    0.220814 0.999987 0.498724 0.247960
H52   H     H_    0.210693 0.953697 0.600377 0.221301
C153  C     C_3   0.111458 0.823003 0.053435 -0.820863
H53   H     H_    0.125690 0.780816 0.083608 0.228887
H54   H     H_    0.120105 0.875439 0.074346 0.239256
H55   H     H_    0.067224 0.814627 0.082022 0.230545
C154  C     C_3   0.888989 0.177486 0.946307 -0.824889
H56   H     H_    0.880277 0.125136 0.925287 0.238964
H57   H     H_    0.874915 0.219808 0.916069 0.228662
H58   H     H_    0.933232 0.185675 0.917899 0.229398
C155  C     C_3   0.879435 0.834107 0.951125 -0.829388
H59   H     H_    0.922995 0.820428 0.919676 0.232305
H60   H     H_    0.861406 0.795617 0.922365 0.227112
H61   H     H_    0.873753 0.888524 0.931631 0.238238
C156  C     C_3   0.111537 0.177374 0.053414 -0.825002
H62   H     H_    0.120200 0.125041 0.074293 0.239687
H63   H     H_    0.125800 0.219727 0.083537 0.228278
H64   H     H_    0.067300 0.185607 0.082063 0.229020
C157  C     C_3   0.611217 0.322742 0.053552 -0.820668
H65   H     H_    0.625376 0.280506 0.083773 0.228608
H66   H     H_    0.619874 0.375145 0.074525 0.239352
H67   H     H_    0.566984 0.314432 0.082025 0.230033
C158  C     C_3   0.389020 0.677548 0.946316 -0.824380
H68   H     H_    0.380286 0.625202 0.925315 0.238392
H69   H     H_    0.374979 0.719874 0.916032 0.227170
H70   H     H_    0.433264 0.685705 0.917930 0.235162
C159  C     C_3   0.389285 0.321662 0.946149 -0.827515
H71   H     H_    0.375341 0.278996 0.915948 0.227888
H72   H     H_    0.380465 0.373792 0.925018 0.239284
H73   H     H_    0.433546 0.313836 0.917837 0.229163
C160  C     C_3   0.593059 0.700029 0.054272 -0.835455
H74   H     H_    0.598550 0.652054 0.087506 0.244140
H75   H     H_    0.602319 0.747310 0.084418 0.231345
H76   H     H_    0.550237 0.705060 0.068531 0.222704
C161  C     C_3   0.086810 0.807359 0.778594 -0.782329
H77   H     H_    0.091858 0.756437 0.742129 0.213534
H78   H     H_    0.044723 0.806217 0.833347 0.214148
H79   H     H_    0.091713 0.852642 0.733188 0.251030
C162  C     C_3   0.913225 0.192499 0.221528 -0.779636
H80   H     H_    0.908180 0.243324 0.258187 0.215030
H81   H     H_    0.908278 0.147088 0.266780 0.252683
H82   H     H_    0.955324 0.193691 0.166826 0.212334
C163  C     C_3   0.912165 0.804419 0.217035 -0.774442
H83   H     H_    0.906332 0.752517 0.251605 0.223240
H84   H     H_    0.953624 0.802416 0.160436 0.210534
H85   H     H_    0.909589 0.848109 0.263339 0.252956
C164  C     C_3   0.086796 0.192434 0.778666 -0.780424
H86   H     H_    0.091868 0.243296 0.742230 0.216319
H87   H     H_    0.091664 0.147073 0.733229 0.250681
H88   H     H_    0.044720 0.193560 0.833438 0.212998
C165  C     C_3   0.586814 0.307513 0.778484 -0.781943
H89   H     H_    0.591844 0.256639 0.741941 0.212593
H90   H     H_    0.544723 0.306344 0.833200 0.214179
H91   H     H_    0.591754 0.352868 0.733155 0.250888
C166  C     C_3   0.412946 0.691987 0.222005 -0.766298
H92   H     H_    0.408048 0.742815 0.258581 0.224295
H93   H     H_    0.407803 0.646514 0.267271 0.251518
H94   H     H_    0.455019 0.693022 0.167528 0.211727
C167  C     C_3   0.413252 0.307857 0.221584 -0.768865
H95   H     H_    0.408231 0.257091 0.258166 0.224083
H96   H     H_    0.455371 0.306773 0.166947 0.211729
H97   H     H_    0.408222 0.353350 0.266920 0.251256
C168  C     C_3   0.657351 0.588119 0.747828 -0.810472
H98   H     H_    0.701313 0.581853 0.704685 0.203593
H99   H     H_    0.645279 0.538575 0.787969 0.228921
H100  H     H_    0.635030 0.592308 0.707675 0.251476

loop_
_geom_bond_atom_site_label_1
_geom_bond_atom_site_label_2
_ccdc_geom_bond_type
C51   C97   S    
Cu3   O27   S    
C74   H34   S    
C11   H11   S    
Cu9   Cu10  S    
Cu11  O36   S    
C100  O34   A    
C102  O46   A    
Cu5   O13   S    
C91   O8    A    
C12   H12   S    
C162  H80   S    
C157  H67   S    
C104  O38   A    
C5    O10   A    
C13   C112  A    
Cu7   O7    S    
C99   O33   A    
C97   O35   A    
C155  H61   S    
C62   C70   A    
C107  C113  A    
C7    C68   S    
C9    H9    S    
Cu8   O16   S    
C8    O11   A    
C123  C131  A    
Cu12  O34   S    
C79   C87   A    
C144  H4    S    
C143  H3    S    
C16   C109  A    
C39   H20   S    
C121  C129  A    
C20   C28   A    
C27   C35   A    
C64   C168  S    
C21   C29   A    
C103  O47   A    
C23   C31   A    
Cu6   O22   S    
C166  H94   S    
C13   H13   S    
C24   C32   A    
C37   H18   S    
C90   O5    A    
C7    O23   A    
C94   O1    A    
C27   H27   S    
C147  H7    S    
Cu10  O38   S    
C105  C112  A    
C63   C71   A    
C120  C148  A    
C154  H57   S    
Cu3   O19   S    
C47   C159  S    
Cu11  O44   S    
C150  H45   S    
C162  H82   S    
C26   C34   A    
C136  C152  S    
C9    C116  A    
C90   O26   A    
C95   O31   A    
C50   C100  S    
C1    C70   S    
C60   C68   A    
C17   C25   A    
C3    C72   S    
C157  H65   S    
C80   C88   A    
C52   C98   S    
C18   C82   S    
Cu8   O8    S    
Cu9   O48   S    
C98   O42   A    
C58   C162  S    
C89   O25   A    
C126  C134  A    
C158  H69   S    
C167  H95   S    
C33   H22   S    
C2    O18   A    
C78   H38   S    
Cu12  O42   S    
C118  C138  A    
C119  C147  A    
C4    C71   S    
C96   C129  S    
C6    O22   A    
C43   C83   A    
C124  C139  A    
Cu7   O23   S    
C127  C134  A    
C13   C145  A    
C75   C83   A    
C92   C125  S    
C71   C79   A    
C30   C38   A    
C149  H41   S    
Cu2   O10   S    
C108  C115  A    
C57   C161  S    
C109  C111  A    
C152  H50   S    
C165  H90   S    
C66   C74   A    
C49   C57   A    
C124  C132  A    
C151  H47   S    
C168  H99   S    
C52   C60   A    
C59   C67   A    
C129  C135  A    
C53   C61   A    
C163  H84   S    
C55   C63   A    
C95   C130  S    
C56   C64   A    
C93   C132  S    
C152  H51   S    
C100  O44   A    
C44   C52   A    
C77   C85   A    
C38   H17   S    
C156  H62   S    
C161  H78   S    
Cu5   O29   S    
C19   C83   S    
C106  C111  A    
C164  H87   S    
C131  C136  A    
C104  O48   A    
C97   O41   A    
C47   C87   A    
C160  H74   S    
C49   C99   S    
Cu8   O32   S    
Cu9   O40   S    
C167  H97   S    
C159  H71   S    
C98   O36   A    
C36   H23   S    
C153  H54   S    
C28   C36   A    
C42   C50   A    
Cu5   O5    S    
C23   C36   A    
C62   C166  S    
C20   C84   S    
C1    O14   A    
C67   C75   A    
Cu10  O47   S    
C133  C149  S    
C59   C163  S    
C94   O30   A    
C105  C109  A    
C149  H43   S    
C22   C30   A    
C119  C138  A    
C134  C150  S    
C5    C66   S    
C152  H52   S    
C114  C116  A    
C68   C76   A    
Cu8   O24   S    
C151  H49   S    
C121  C139  A    
C56   C102  S    
C72   C80   A    
C92   O7    A    
C26   H26   S    
C11   C143  A    
C155  H60   S    
C17   C38   A    
C30   H30   S    
C107  C139  A    
C110  C112  A    
C107  C116  A    
C19   C40   A    
C105  C137  A    
C8    C67   S    
C156  H64   S    
C113  C115  A    
Cu9   O45   S    
C25   C33   A    
C119  C127  A    
Cu2   O26   S    
C73   H33   S    
C101  O39   A    
C18   C26   A    
Cu6   O14   S    
C101  O45   A    
C76   C84   A    
C6    O9    A    
C145  H5    S    
C54   C104  S    
Cu1   O9    S    
C160  H76   S    
C28   H28   S    
C61   C69   A    
C31   H31   S    
C159  H73   S    
C32   H32   S    
C34   H21   S    
C117  C145  A    
C10   C142  A    
C108  C114  A    
C166  H93   S    
C76   H36   S    
C69   C77   A    
C6    C65   S    
C4    O20   A    
Cu2   Cu5   S    
C90   C127  S    
C48   C88   A    
C8    O24   A    
Cu10  O39   S    
C16   H16   S    
C61   C165  S    
Cu4   O12   S    
C154  H56   S    
Cu11  O33   S    
C15   C110  A    
C74   C82   A    
C162  H81   S    
C7    O12   A    
C21   C85   S    
C135  C151  S    
C79   H39   S    
C50   C58   A    
C121  C141  A    
C60   C164  S    
C20   C39   A    
C21   C34   A    
C54   C62   A    
C35   H24   S    
Cu1   Cu6   S    
C63   C167  S    
Cu5   O21   S    
C158  H68   S    
C150  H46   S    
C40   H19   S    
Cu11  Cu12  S    
Cu4   Cu7   S    
C41   C81   A    
C46   C54   A    
Cu3   Cu8   S    
Cu7   O15   S    
C93   O2    A    
C24   C88   S    
C73   C81   A    
Cu9   O37   S    
C148  H8    S    
C157  H66   S    
Cu2   O2    S    
C55   C101  S    
C91   O27   A    
C46   C158  S    
C57   C65   A    
C44   C84   A    
C142  H2    S    
C120  C128  A    
C43   C155  S    
C10   H10   S    
C102  O40   A    
C94   C131  S    
C3    O16   A    
C14   H14   S    
C15   C147  A    
C43   C51   A    
C165  H89   S    
C150  H44   S    
C53   C103  S    
C17   C81   S    
C22   C86   S    
C99   O43   A    
C168  H98   S    
C122  C140  A    
C92   O28   A    
C2    O13   A    
C3    O19   A    
C163  H83   S    
C154  H58   S    
C29   C37   A    
Cu4   O4    S    
C1    O17   A    
C120  C137  A    
C77   H37   S    
Cu11  O41   S    
C48   C160  S    
C89   C128  S    
C75   H35   S    
C5    O21   A    
C141  H1    S    
C91   C126  S    
C70   C78   A    
Cu1   O25   S    
C161  H77   S    
C42   C82   A    
C164  H86   S    
Cu3   O11   S    
C18   C37   A    
C158  H70   S    
C106  C138  A    
C80   H40   S    
C65   C73   A    
C11   C114  A    
Cu4   O28   S    
C41   C49   A    
C89   O6    A    
C167  H96   S    
Cu12  O35   S    
C19   C27   A    
C153  H53   S    
C78   C86   A    
C64   C72   A    
C146  H6    S    
C4    O15   A    
C23   C87   S    
Cu6   O30   S    
C58   C66   A    
C14   C111  A    
C149  H42   S    
C24   C35   A    
C45   C157  S    
C118  C146  A    
C96   O32   A    
C108  C140  A    
C9    C141  A    
C165  H91   S    
Cu1   O17   S    
C95   O4    A    
C117  C137  A    
C123  C140  A    
C12   C144  A    
C151  H48   S    
C168  H100  S    
C45   C85   A    
C44   C156  S    
C103  O37   A    
C163  H85   S    
C125  C133  A    
C155  H59   S    
Cu2   O18   S    
Cu6   O6    S    
C25   H25   S    
C156  H63   S    
C161  H79   S    
C51   C59   A    
C122  C142  A    
C2    C69   S    
Cu1   O1    S    
C96   O3    A    
C47   C55   A    
C12   C113  A    
C106  C110  A    
C164  H88   S    
C93   O29   A    
C48   C56   A    
C22   C33   A    
C130  C136  A    
Cu3   O3    S    
C118  C126  A    
C14   C146  A    
C15   H15   S    
C16   C148  A    
C42   C154  S    
C160  H75   S    
C128  C133  A    
C117  C125  A    
C132  C135  A    
Cu4   O20   S    
Cu7   O31   S    
C159  H72   S    
C31   C39   A    
C41   C153  S    
C29   H29   S    
C32   C40   A    
Cu12  O43   S    
C166  H92   S    
C153  H55   S    
C45   C53   A    
C123  C143  A    
C124  C144  A    
Cu10  O46   S    
C122  C130  A    
C10   C115  A    
C46   C86   A    
