data_mof_unit_30549.cif
_audit_creation_date              2012-12-10T19:44:40-0500
_audit_creation_method            fapswitch 2.2
_symmetry_space_group_name_H-M    P1
_symmetry_Int_Tables_number       1
_space_group_crystal_system       triclinic
_cell_length_a                    8.586795
_cell_length_b                    14.960869
_cell_length_c                    14.266337
_cell_angle_alpha                 90.491406
_cell_angle_beta                  98.949296
_cell_angle_gamma                 90.792119
_cell_volume                      1810.1472278

loop_
_atom_site_label
_atom_site_type_symbol
_atom_type_description
_atom_site_fract_x
_atom_site_fract_y
_atom_site_fract_z
_atom_type_partial_charge
C1    C     C_R   0.505977 0.327834 0.500360 0.865455
C2    C     C_R   0.430757 0.427682 0.886784 -0.393234
C3    C     C_R   0.509172 0.494762 0.054076 0.097422
C4    C     C_R   0.508388 0.494765 0.947507 0.080783
C5    C     C_R   0.201171 0.500505 0.475027 0.953925
C6    C     C_R   0.798852 0.501142 0.524955 0.957406
C7    C     C_2   0.035761 0.500833 0.461693 -0.364058
C8    C     C_2   0.964266 0.504015 0.538127 -0.414400
C9    C     C_R   0.605029 0.093157 0.576229 -0.172142
C10   C     C_R   0.384431 0.907249 0.458211 -0.166577
C11   C     C_R   0.600698 0.185926 0.580171 0.195568
C12   C     C_R   0.500003 0.671520 0.500374 0.876145
C13   C     C_R   0.372054 0.814742 0.460102 0.190150
C14   C     C_R   0.521117 0.231695 0.500615 -0.036392
C15   C     C_R   0.504107 0.766671 0.501224 -0.026508
C16   C     C_R   0.458198 0.184851 0.417640 -0.243038
C17   C     C_R   0.645394 0.809408 0.539504 -0.272685
C18   C     C_R   0.466826 0.093050 0.414216 -0.184546
C19   C     C_R   0.657757 0.901293 0.535224 -0.174650
C20   C     C_R   0.536167 0.046986 0.494304 0.077403
C21   C     C_R   0.527190 0.950313 0.494736 0.074474
C22   C     C_3   0.684190 0.233170 0.668187 -0.878693
C23   C     C_R   0.387523 0.452914 0.092831 -0.273867
C24   C     C_3   0.218614 0.768701 0.420179 -0.953998
C25   C     C_3   0.249167 0.407702 0.225952 -0.826671
C26   C     C_3   0.664507 0.641701 0.766713 -0.826322
C27   C     C_3   0.766549 0.676708 0.243513 0.061734
C28   C     C_3   0.803401 0.743735 0.324776 -0.799770
C29   C     C_3   0.188588 0.352865 0.739926 0.097344
C30   C     C_3   0.163876 0.257244 0.770854 -0.870092
C31   C     C_R   0.581279 0.564152 0.904538 -0.271864
C32   C     C_R   0.385162 0.454288 0.191363 0.245065
C33   C     C_R   0.579658 0.565400 0.805656 0.246428
C34   C     C_R   0.616512 0.545672 0.216832 0.603261
C35   C     C_R   0.421949 0.432915 0.786617 0.591902
C36   C     C_R   0.626672 0.539669 0.118178 -0.423125
H1    H     H_    0.973354 0.497105 0.389298 0.207437
H2    H     H_    0.637777 0.618982 0.947396 0.147295
H3    H     H_    0.726557 0.570003 0.092378 0.142591
H4    H     H_    0.378087 0.370617 0.916338 0.161049
H5    H     H_    0.765262 0.285820 0.648454 0.232629
H6    H     H_    0.597005 0.263127 0.708399 0.290364
H7    H     H_    0.756074 0.186393 0.716511 0.216403
H8    H     H_    0.175613 0.728307 0.476175 0.236992
H9    H     H_    0.126701 0.817752 0.393761 0.239325
H10   H     H_    0.235595 0.724218 0.360028 0.258383
H11   H     H_    0.289479 0.366902 0.288817 0.261059
H12   H     H_    0.026725 0.508615 0.610443 0.167966
H13   H     H_    0.162176 0.457724 0.241218 0.243975
H14   H     H_    0.186437 0.361092 0.171270 0.197876
H15   H     H_    0.735585 0.618142 0.713561 0.262979
H16   H     H_    0.578295 0.692303 0.736543 0.249052
H17   H     H_    0.748260 0.675986 0.823320 0.194561
H18   H     H_    0.669407 0.704970 0.191565 0.127722
H19   H     H_    0.873293 0.669076 0.209122 0.146366
H20   H     H_    0.887997 0.715062 0.383161 0.264592
H21   H     H_    0.854536 0.805871 0.299362 0.199683
H22   H     H_    0.693318 0.760713 0.351993 0.261851
H23   H     H_    0.658382 0.056616 0.638002 0.133609
H24   H     H_    0.113271 0.362103 0.670211 0.172009
H25   H     H_    0.145525 0.400509 0.790457 0.110409
H26   H     H_    0.238565 0.244289 0.839955 0.246377
H27   H     H_    0.038393 0.246231 0.778503 0.216796
H28   H     H_    0.195138 0.209554 0.716895 0.267997
H29   H     H_    0.282530 0.945888 0.429390 0.133915
H30   H     H_    0.399649 0.219112 0.355668 0.158400
H31   H     H_    0.746940 0.771317 0.570177 0.147244
H32   H     H_    0.416202 0.057801 0.349742 0.139298
H33   H     H_    0.768934 0.933998 0.562945 0.141709
H34   H     H_    0.291156 0.420503 0.046467 0.149589
N1    N     N_R   0.500000 0.499980 0.252470 -0.124840
N2    N     N_R   0.500000 0.500020 0.747530 -0.132116
O1    O     O_R   0.500010 0.369070 0.579480 -0.560158
O2    O     O_3   0.347740 0.366062 0.727478 -0.593922
O3    O     O_R   0.499990 0.630930 0.420520 -0.587817
O4    O     O_R   0.500010 0.369060 0.420520 -0.644089
O5    O     O_R   0.499990 0.630940 0.579480 -0.632861
O6    O     O_R   0.271750 0.500000 0.560890 -0.597419
O7    O     O_R   0.728250 0.500000 0.439110 -0.556772
O8    O     O_R   0.271750 0.499990 0.401930 -0.635224
O9    O     O_R   0.728250 0.500010 0.598070 -0.651285
O10   O     O_3   0.726705 0.593337 0.280189 -0.590623
Zn1   Zn    Zn3+2 0.500000 0.500010 0.606140 0.962036
Zn2   Zn    Zn3+2 0.500000 0.499990 0.393860 0.975751

loop_
_geom_bond_atom_site_label_1
_geom_bond_atom_site_label_2
_ccdc_geom_bond_type
C2    C35   A    
C35   O2    S    
C30   H28   S    
C3    C23   A    
O8    Zn2   S    
O4    Zn2   S    
C28   H20   S    
C27   H18   S    
C7    C8    D    
C28   H21   S    
C24   H9    S    
C19   C21   A    
O7    Zn2   S    
C11   C14   A    
C27   H19   S    
O3    Zn2   S    
C22   H5    S    
O5    Zn1   S    
C18   H32   S    
C25   H14   S    
C26   C33   S    
C33   N2    A    
O6    Zn1   S    
C31   C33   A    
C25   H11   S    
C34   C36   A    
C25   C32   S    
C6    O9    A    
C30   H27   S    
C23   H34   S    
O9    Zn1   S    
C32   N1    A    
C27   O10   S    
C10   C21   A    
C29   H25   S    
C17   H31   S    
N2    Zn1   S    
C5    C7    S    
C6    C8    S    
C29   O2    S    
C13   C24   S    
C9    H23   S    
C2    C4    A    
C8    H12   S    
C29   C30   S    
C26   H16   S    
C9    C20   A    
C22   H7    S    
C29   H24   S    
C12   O5    A    
C7    H1    S    
C5    O8    A    
C9    C11   A    
C35   N2    A    
C12   C15   S    
C13   C15   A    
C24   H8    S    
C14   C16   A    
C19   H33   S    
C16   H30   S    
C3    C4    S    
C26   H17   S    
N1    Zn2   S    
C10   H29   S    
C15   C17   A    
C1    O4    A    
C36   H3    S    
C10   C13   A    
C28   H22   S    
C11   C22   S    
C31   H2    S    
C1    O1    A    
C23   C32   A    
C30   H26   S    
C24   H10   S    
C26   H15   S    
C6    O7    A    
C22   H6    S    
C3    C36   A    
C17   C19   A    
C18   C20   A    
C25   H13   S    
C4    C31   A    
C2    H4    S    
C20   C21   S    
C16   C18   A    
C12   O3    A    
C27   C28   S    
C1    C14   S    
C34   O10   S    
C5    O6    A    
C34   N1    A    
O1    Zn1   S    
