data_mof_unit_56614.cif
_audit_creation_date              2012-12-10T16:50:05-0500
_audit_creation_method            fapswitch 2.2
_symmetry_space_group_name_H-M    P1
_symmetry_Int_Tables_number       1
_space_group_crystal_system       triclinic
_cell_length_a                    7.762834
_cell_length_b                    8.568267
_cell_length_c                    10.667735
_cell_angle_alpha                 89.888122
_cell_angle_beta                  85.824793
_cell_angle_gamma                 93.455709
_cell_volume                      706.369895871

loop_
_atom_site_label
_atom_site_type_symbol
_atom_type_description
_atom_site_fract_x
_atom_site_fract_y
_atom_site_fract_z
_atom_type_partial_charge
C1    C     C_R   0.546104 0.793323 0.508755 0.865545
C2    C     C_R   0.454694 0.656500 0.929441 0.086740
C3    C     C_R   0.509111 0.519072 0.870301 -0.067564
C4    C     C_R   0.565087 0.394717 0.935811 -0.235377
C5    C     C_R   0.560180 0.400696 0.063652 -0.176876
C6    C     C_R   0.500573 0.531442 0.127245 -0.092620
C7    C     C_2   0.571463 0.955615 0.527335 -0.077698
C8    C     C_2   0.433775 0.041843 0.517547 -0.386082
C9    C     C_R   0.502207 0.500440 0.739335 0.846327
C10   C     C_R   0.455211 0.205523 0.509651 0.989098
C11   C     C_R   0.500729 0.517317 0.260754 0.868173
C12   C     C_R   0.409535 0.785145 0.857941 -0.215941
C13   C     C_R   0.356311 0.920610 0.914750 -0.233478
C14   C     C_R   0.351887 0.934664 0.044626 0.192549
C15   C     C_R   0.403204 0.811353 0.117854 0.054015
C16   C     C_R   0.450576 0.666213 0.061582 0.009229
H1    H     H_    0.607143 0.290493 0.887951 0.155412
H2    H     H_    0.985715 0.617046 0.593488 0.191881
H3    H     H_    0.416354 0.783833 0.756777 0.162180
H4    H     H_    0.321237 0.015943 0.856722 0.145971
H5    H     H_    0.600284 0.300330 0.113903 0.171350
H6    H     H_    0.304777 0.991417 0.503223 0.158533
H7    H     H_    0.014296 0.383012 0.406472 0.197433
N1    N     N_2   0.950330 0.457950 0.466250 -0.169779
N2    N     N_2   0.049670 0.542050 0.533750 -0.175952
O1    O     O_R   0.389250 0.738570 0.508280 -0.645199
O2    O     O_R   0.678390 0.711630 0.486650 -0.635518
O3    O     O_R   0.355400 0.513470 0.694050 -0.618681
O4    O     O_R   0.644540 0.486530 0.672420 -0.622574
O5    O     O_R   0.321610 0.288370 0.513350 -0.631683
O6    O     O_R   0.610750 0.261430 0.491720 -0.574536
O7    O     O_R   0.355460 0.513470 0.327580 -0.629492
O8    O     O_R   0.644600 0.486530 0.305950 -0.610586
Zn1   Zn    Zn3+2 0.306930 0.517990 0.514440 0.927538
Zn2   Zn    Zn3+2 0.693070 0.482010 0.485560 0.949028
N3    N     N_3   0.299187 0.076196 0.104348 -0.450398
H8    H     H_    0.269352 0.157655 0.037320 0.181289
H9    H     H_    0.184400 0.048533 0.159431 0.187078
N4    N     N_3   0.414992 0.843902 0.247307 -0.458852
H10   H     H_    0.313808 0.780855 0.297521 0.230755
H11   H     H_    0.537902 0.817986 0.271278 0.179830
N5    N     N_3   0.738615 0.018930 0.559640 -0.410114
H12   H     H_    0.770201 0.962157 0.641000 0.172774
H13   H     H_    0.830323 0.993968 0.486875 0.196271

loop_
_geom_bond_atom_site_label_1
_geom_bond_atom_site_label_2
_ccdc_geom_bond_type
C8    H6    S    
H7    N1    S    
C3    C9    S    
C2    C16   A    
O4    Zn2   S    
C9    O4    A    
N2    Zn1   S    
C2    C12   A    
N3    H9    S    
C2    C3    A    
O3    Zn1   S    
C7    C8    D    
N4    H11   S    
C13   C14   A    
N1    N2    D    
C15   N4    S    
C5    C6    A    
H2    N2    S    
N5    H13   S    
C4    H1    S    
C12   H3    S    
N3    H8    S    
O8    Zn2   S    
C11   O7    A    
C6    C11   S    
C14   N3    S    
C1    O1    A    
O6    Zn2   S    
N1    Zn2   S    
N5    H12   S    
O5    Zn1   S    
C6    C16   A    
C3    C4    A    
C11   O8    A    
C5    H5    S    
C12   C13   A    
C8    C10   S    
C7    N5    S    
N4    H10   S    
C1    O2    A    
C10   O5    A    
C14   C15   A    
C13   H4    S    
O2    Zn2   S    
C1    C7    S    
C10   O6    A    
O1    Zn1   S    
C15   C16   A    
C9    O3    A    
C4    C5    A    
O7    Zn1   S    
