data_mof_unit_60898.cif
_audit_creation_date              2012-12-10T19:52:19-0500
_audit_creation_method            fapswitch 2.2
_symmetry_space_group_name_H-M    P1
_symmetry_Int_Tables_number       1
_space_group_crystal_system       triclinic
_cell_length_a                    18.276493
_cell_length_b                    18.277019
_cell_length_c                    31.900192
_cell_angle_alpha                 89.99981
_cell_angle_beta                  89.996915
_cell_angle_gamma                 89.996018
_cell_volume                      10655.9340275

loop_
_atom_site_label
_atom_site_type_symbol
_atom_type_description
_atom_site_fract_x
_atom_site_fract_y
_atom_site_fract_z
_atom_type_partial_charge
C1    C     C_R   0.641228 0.500019 0.000000 0.934837
C2    C     C_1   0.500013 0.499710 0.163173 0.129556
C3    C     C_1   0.999982 0.999711 0.336827 0.129487
C4    C     C_1   0.999940 0.999706 0.663173 0.129650
C5    C     C_1   0.499971 0.500125 0.663197 0.026716
C6    C     C_1   0.500031 0.500115 0.336803 0.027041
C7    C     C_1   0.999969 0.000121 0.163197 0.026884
C8    C     C_1   0.000038 0.000097 0.836803 0.027199
C9    C     C_1   0.717654 0.500052 0.000002 -0.147813
C10   C     C_1   0.282346 0.500063 0.999998 -0.148902
C11   C     C_1   0.217653 0.000051 0.500003 -0.147726
C12   C     C_R   0.358772 0.500023 1.000000 0.933866
C13   C     C_1   0.782346 0.000063 0.499997 -0.149064
C14   C     C_1   0.782399 0.500045 0.000002 -0.149045
C15   C     C_1   0.217601 0.500055 0.999998 -0.150052
C16   C     C_1   0.282399 0.000045 0.500003 -0.149147
C17   C     C_1   0.717601 0.000055 0.499997 -0.150383
C18   C     C_R   0.500002 0.358649 0.500000 0.928361
C19   C     C_R   0.000002 0.858649 1.000000 0.928507
C20   C     C_R   0.499998 0.499911 0.581360 0.899975
C21   C     C_R   0.500003 0.499911 0.418640 0.899930
C22   C     C_R   0.999997 0.999911 0.081360 0.899968
C23   C     C_R   0.141228 0.000018 0.500001 0.934875
C24   C     C_R   0.000003 0.999909 0.918640 0.899904
C25   C     C_R   0.499998 0.641071 0.500000 0.928732
C26   C     C_R   0.999998 0.141071 1.000000 0.928587
C27   C     C_R   0.000001 0.641140 1.000000 0.922696
C28   C     C_R   0.500001 0.141140 0.500000 0.922912
C29   C     C_R   0.858826 0.500018 0.000001 0.920312
C30   C     C_R   0.141174 0.500021 0.999999 0.920213
C31   C     C_R   0.358826 0.000017 0.500001 0.920578
C32   C     C_R   0.641174 0.000021 0.499999 0.920439
C33   C     C_R   0.499995 0.499991 0.918644 0.897912
C34   C     C_R   0.858772 0.000023 0.499999 0.933699
C35   C     C_R   0.500000 0.499990 0.081355 0.897918
C36   C     C_R   0.999999 0.999990 0.418644 0.897875
C37   C     C_R   0.999994 0.999990 0.581355 0.897779
C38   C     C_R   0.999998 0.358808 0.000000 0.918925
C39   C     C_R   0.499998 0.858808 0.500000 0.919202
C40   C     C_1   0.500006 0.282257 0.500000 -0.163165
C41   C     C_1   0.000006 0.782257 1.000000 -0.163039
C42   C     C_1   0.000005 0.717532 1.000000 -0.156711
C43   C     C_1   0.500005 0.217532 0.500000 -0.156973
C44   C     C_1   0.499994 0.717550 0.500000 -0.164849
C45   C     C_3   0.506182 0.569716 0.735955 -0.278848
C46   C     C_1   0.999994 0.217550 0.000000 -0.165002
C47   C     C_1   0.999995 0.282327 0.000000 -0.159793
C48   C     C_1   0.499995 0.782327 0.500000 -0.159827
C49   C     C_3   0.556100 0.460226 0.736184 -0.070747
C50   C     C_3   0.559830 0.465927 0.263807 -0.071262
C51   C     C_3   0.437585 0.470884 0.736188 -0.071430
C52   C     C_3   0.440853 0.464881 0.263822 -0.070498
C53   C     C_3   0.058875 0.964426 0.236177 -0.070662
C54   C     C_3   0.056554 0.960739 0.763799 -0.071017
C55   C     C_3   0.939908 0.966398 0.236192 -0.071204
C56   C     C_3   0.499436 0.569972 0.264043 -0.278521
C57   C     C_3   0.937947 0.970247 0.763829 -0.070191
C58   C     C_3   0.562138 0.528794 0.763836 0.357478
C59   C     C_3   0.559093 0.534721 0.236149 0.442308
C60   C     C_3   0.443862 0.539402 0.763845 0.441588
C61   C     C_3   0.440358 0.533707 0.236169 0.356958
C62   C     C_3   0.059896 0.033245 0.263832 0.356567
C63   C     C_3   0.061908 0.029333 0.736142 0.442877
C64   C     C_3   0.941171 0.035184 0.263851 0.442336
C65   C     C_3   0.943544 0.038851 0.736177 0.355960
C66   C     C_1   0.499955 0.499909 0.874259 -0.096552
C67   C     C_3   0.001097 0.069972 0.235958 -0.278716
C68   C     C_1   0.500007 0.499904 0.125741 -0.096472
C69   C     C_1   0.999990 0.999904 0.374259 -0.096448
C70   C     C_1   0.999964 0.999903 0.625741 -0.096407
C71   C     C_1   0.499990 0.500043 0.625757 -0.150953
C72   C     C_1   0.500013 0.500039 0.374243 -0.150891
C73   C     C_1   0.999987 0.000042 0.125757 -0.150950
C74   C     C_1   0.000018 0.000028 0.874243 -0.150857
C75   C     C_3   0.493641 0.429993 0.764089 -0.318720
C76   C     C_3   0.500656 0.429702 0.235912 -0.318218
C77   C     C_3   0.998804 0.929711 0.264087 -0.318128
C78   C     C_3   0.005619 0.069735 0.764044 -0.278823
C79   C     C_3   0.994387 0.929905 0.735911 -0.317752
C80   C     C_3   0.499904 0.499619 0.791450 -0.062649
C81   C     C_3   0.500022 0.499599 0.208550 -0.063076
C82   C     C_3   0.999973 0.999602 0.291450 -0.062880
C83   C     C_3   0.999941 0.999589 0.708550 -0.063267
C84   C     C_3   0.499941 0.500087 0.708601 -0.024123
C85   C     C_3   0.500047 0.500073 0.291398 -0.024366
C86   C     C_3   0.999952 0.000079 0.208601 -0.024354
C87   C     C_3   0.000041 0.000051 0.791399 -0.024431
C88   C     C_1   0.617865 0.416721 0.720605 0.244334
C89   C     C_1   0.499921 0.499723 0.836827 0.129259
C90   C     C_1   0.625721 0.428965 0.279370 0.305227
C91   C     C_1   0.368928 0.439366 0.720618 0.305933
C92   C     C_1   0.375795 0.426510 0.279410 0.245512
C93   C     C_1   0.123638 0.925548 0.220589 0.245438
C94   C     C_1   0.118922 0.918078 0.779350 0.305593
C95   C     C_1   0.873736 0.929952 0.220628 0.305148
C96   C     C_1   0.869746 0.937793 0.779427 0.246301
H1    H     H_    0.511297 0.626723 0.724303 0.209705
H2    H     H_    0.730718 0.635433 0.245605 0.393805
H3    H     H_    0.282156 0.655434 0.754371 0.394749
H4    H     H_    0.300251 0.571770 0.275203 0.351464
H5    H     H_    0.199851 0.070425 0.224640 0.351242
H6    H     H_    0.241786 0.114473 0.745579 0.393303
H7    H     H_    0.770257 0.137127 0.254398 0.393862
H8    H     H_    0.807731 0.089314 0.775353 0.350786
H9    H     H_    0.498940 0.627202 0.275694 0.209932
H10   H     H_    0.002031 0.127197 0.224307 0.209922
H11   H     H_    0.010205 0.126785 0.775696 0.209910
H12   H     H_    0.488523 0.373063 0.775885 0.193811
H13   H     H_    0.501162 0.372548 0.224117 0.194358
H14   H     H_    0.997860 0.872562 0.275882 0.194286
H15   H     H_    0.989818 0.872930 0.724115 0.194924
H16   H     H_    0.704735 0.555506 0.724764 0.352105
N1    N     N_1   0.666589 0.382453 0.708318 -0.132756
N2    N     N_1   0.677694 0.399857 0.291644 -0.141425
N3    N     N_1   0.314776 0.414550 0.708338 -0.140648
N4    N     N_1   0.324478 0.396290 0.291705 -0.136200
N5    N     N_1   0.174723 0.894928 0.208294 -0.135721
N6    N     N_1   0.168120 0.884474 0.791612 -0.143027
N7    N     N_1   0.821541 0.901250 0.208354 -0.141418
N8    N     N_1   0.815955 0.912239 0.791729 -0.140188
O1    O     O_R   0.607370 0.439420 0.000000 -0.617553
O2    O     O_R   0.392710 0.560580 0.000000 -0.607739
O3    O     O_R   0.107290 0.060580 0.500000 -0.608103
O4    O     O_R   0.892710 0.060580 0.500000 -0.607730
O5    O     O_R   0.500000 0.439420 0.938390 -0.620881
O6    O     O_R   0.500000 0.439420 0.061610 -0.620867
O7    O     O_R   0.000000 0.939420 0.438390 -0.620862
O8    O     O_R   0.000000 0.939420 0.561610 -0.620715
O9    O     O_R   0.500000 0.560580 0.938390 -0.592906
O10   O     O_R   0.500000 0.560580 0.061610 -0.592897
O11   O     O_R   0.000000 0.060580 0.438390 -0.592889
O12   O     O_R   0.392630 0.439420 0.000000 -0.618213
O13   O     O_R   0.000000 0.060580 0.561610 -0.592906
O14   O     O_R   0.560550 0.392540 0.500000 -0.613028
O15   O     O_R   0.439450 0.392540 0.500000 -0.613178
O16   O     O_R   0.060550 0.892540 0.000000 -0.612966
O17   O     O_R   0.939450 0.892540 0.000000 -0.613157
O18   O     O_R   0.560580 0.499860 0.561610 -0.611982
O19   O     O_R   0.560580 0.499860 0.438390 -0.608677
O20   O     O_R   0.439420 0.499860 0.561610 -0.608857
O21   O     O_R   0.439420 0.499860 0.438390 -0.612105
O22   O     O_R   0.060580 0.999860 0.061610 -0.612136
O23   O     O_R   0.107370 0.939420 0.500000 -0.617426
O24   O     O_R   0.060580 0.999860 0.938390 -0.608458
O25   O     O_R   0.939420 0.999860 0.061610 -0.608693
O26   O     O_R   0.939420 0.999860 0.938390 -0.612265
O27   O     O_R   0.560630 0.607160 0.500000 -0.614256
O28   O     O_R   0.439370 0.607160 0.500000 -0.613977
O29   O     O_R   0.060630 0.107160 0.000000 -0.614334
O30   O     O_R   0.939370 0.107160 0.000000 -0.614091
O31   O     O_R   0.000000 0.607310 0.965210 -0.611763
O32   O     O_R   0.000000 0.607310 0.034790 -0.612092
O33   O     O_R   0.500000 0.107310 0.465210 -0.611917
O34   O     O_R   0.892630 0.939420 0.500000 -0.618212
O35   O     O_R   0.500000 0.107310 0.534790 -0.612277
O36   O     O_R   0.892680 0.500000 0.965220 -0.607576
O37   O     O_R   0.892680 0.500000 0.034780 -0.610823
O38   O     O_R   0.107320 0.500000 0.965220 -0.611072
O39   O     O_R   0.107320 0.500000 0.034780 -0.608327
O40   O     O_R   0.392680 0.000000 0.465220 -0.608456
O41   O     O_R   0.392680 0.000000 0.534780 -0.610132
O42   O     O_R   0.607320 0.000000 0.465220 -0.610382
O43   O     O_R   0.607320 0.000000 0.534780 -0.609401
O44   O     O_2   0.627261 0.630567 0.811559 -0.219313
O45   O     O_R   1.000000 0.392690 0.965220 -0.612793
O46   O     O_2   0.687974 0.511322 0.806556 -0.277089
O47   O     O_3   0.695119 0.599109 0.742359 -0.495782
O48   O     O_2   0.682814 0.530102 0.190878 -0.291162
O49   O     O_2   0.614467 0.645837 0.191251 -0.258667
O50   O     O_3   0.687924 0.610528 0.258232 -0.535686
O51   O     O_2   0.320194 0.544899 0.809164 -0.289560
O52   O     O_2   0.397693 0.654720 0.808671 -0.259031
O53   O     O_3   0.321505 0.625306 0.741748 -0.535005
O54   O     O_2   0.383645 0.640421 0.188464 -0.217940
O55   O     O_2   0.313542 0.526461 0.193442 -0.278555
O56   O     O_R   0.000000 0.392690 0.034780 -0.612936
O57   O     O_3   0.313474 0.614491 0.257657 -0.495171
O58   O     O_2   0.117431 0.139441 0.311586 -0.218131
O59   O     O_2   0.186711 0.024981 0.306503 -0.278134
O60   O     O_3   0.187340 0.113146 0.242351 -0.495050
O61   O     O_2   0.184708 0.013779 0.690840 -0.290860
O62   O     O_2   0.126905 0.135132 0.691257 -0.260130
O63   O     O_3   0.196984 0.093382 0.758212 -0.535840
O64   O     O_2   0.817408 0.031517 0.309112 -0.291251
O65   O     O_2   0.886642 0.146717 0.308758 -0.258404
O66   O     O_3   0.812931 0.112010 0.241768 -0.535641
O67   O     O_R   0.500000 0.892690 0.465220 -0.612844
O68   O     O_2   0.896479 0.150130 0.688448 -0.216847
O69   O     O_2   0.816517 0.042861 0.693509 -0.279299
O70   O     O_3   0.824367 0.130640 0.757679 -0.494158
O71   O     O_R   0.500000 0.892690 0.534780 -0.612987
O72   O     O_R   0.607290 0.560580 0.000000 -0.608083
S1    S     S_3+6 0.645101 0.567941 0.782816 0.069836
S2    S     S_3+6 0.638004 0.581435 0.217243 0.045899
S3    S     S_3+6 0.368980 0.592370 0.782741 0.046743
S4    S     S_3+6 0.360824 0.579422 0.217195 0.070016
S5    S     S_3+6 0.139782 0.078338 0.282805 0.070079
S6    S     S_3+6 0.144648 0.068870 0.717227 0.045232
S7    S     S_3+6 0.862617 0.082510 0.282757 0.045995
S8    S     S_3+6 0.868359 0.091440 0.717216 0.070478
Zn1   Zn    Zn3+2 0.500000 0.419100 0.000000 1.016926
Zn2   Zn    Zn3+2 1.000000 0.500000 0.046450 1.042776
Zn3   Zn    Zn3+2 0.500000 0.000000 0.453550 1.042959
Zn4   Zn    Zn3+2 0.500000 0.000000 0.546450 1.041516
Zn5   Zn    Zn3+2 0.000000 0.919100 0.500000 1.017324
Zn6   Zn    Zn3+2 0.500000 0.580900 0.000000 1.064889
Zn7   Zn    Zn3+2 0.000000 0.080900 0.500000 1.065057
Zn8   Zn    Zn3+2 0.580910 0.499830 0.500000 1.022064
Zn9   Zn    Zn3+2 0.419090 0.499830 0.500000 1.021921
Zn10  Zn    Zn3+2 0.080910 0.999830 0.000000 1.021957
Zn11  Zn    Zn3+2 0.919090 0.999830 0.000000 1.021723
Zn12  Zn    Zn3+2 0.000000 0.500000 0.953550 1.044013

loop_
_geom_bond_atom_site_label_1
_geom_bond_atom_site_label_2
_ccdc_geom_bond_type
C78   C87   S    
C38   O45   A    
C31   O41   A    
C45   C60   S    
O54   S4    D    
C27   O32   A    
O57   S4    S    
O36   Zn12  S    
C41   C42   T    
O2    Zn6   S    
O41   Zn4   S    
O62   S6    D    
O46   S1    D    
O11   Zn7   S    
O40   Zn3   S    
O24   Zn10  S    
O26   Zn11  S    
O70   S8    S    
C7    C73   T    
C16   C31   S    
C6    C72   T    
C58   S1    S    
O5    Zn1   S    
O12   Zn1   S    
C6    C85   S    
C62   C67   S    
O17   Zn11  S    
C50   C59   S    
C77   C82   S    
C49   C84   S    
C52   C85   S    
C3    C69   T    
C51   C75   S    
C2    C68   T    
C52   C61   S    
C54   C87   S    
C55   C77   S    
C65   C83   S    
C7    C86   S    
C54   C63   S    
O61   S6    D    
C32   O43   A    
O67   Zn3   S    
C80   C89   S    
C11   C16   T    
C20   O18   A    
C88   N1    T    
C57   C79   S    
C18   C40   S    
O60   S5    S    
C50   C85   S    
C51   C91   S    
C38   O56   A    
C50   C90   S    
C40   C43   T    
C76   H13   S    
C57   C96   S    
C32   O42   A    
O45   Zn12  S    
O53   S3    S    
C28   O35   A    
C34   O4    A    
C49   C75   S    
C20   C71   S    
C53   C86   S    
C12   O12   A    
C75   C80   S    
C31   O40   A    
C58   C80   S    
C37   O8    A    
C39   O67   A    
C62   C82   S    
C75   H12   S    
C59   S2    S    
O48   S2    D    
C37   C70   S    
O47   S1    S    
C49   C88   S    
C23   O23   A    
C77   H14   S    
H7    O66   S    
C93   N5    T    
H4    O57   S    
C25   C44   S    
C4    C70   T    
O20   Zn9   S    
C66   C89   T    
C34   O34   A    
O6    Zn1   S    
O38   Zn12  S    
C30   O39   A    
O43   Zn4   S    
C45   C58   S    
O63   S6    S    
O31   Zn12  S    
C21   C72   S    
C53   C93   S    
C64   C67   S    
O56   Zn2   S    
C26   O30   A    
C1    C9    S    
O29   Zn10  S    
C55   C95   S    
C36   O11   A    
O50   S2    S    
C5    C84   S    
O18   Zn8   S    
O44   S1    D    
O39   Zn2   S    
C29   O37   A    
O59   S5    D    
C95   N7    T    
C19   O16   A    
H16   O47   S    
C49   C58   S    
C57   C87   S    
C63   C83   S    
C78   H11   S    
O22   Zn10  S    
H2    O50   S    
C35   O6    A    
C53   C77   S    
C9    C14   T    
O10   Zn6   S    
C50   C76   S    
C65   S8    S    
C39   O71   A    
C53   C62   S    
O14   Zn8   S    
H3    O53   S    
C22   O25   A    
C19   O17   A    
O64   S7    D    
H8    O70   S    
C55   C64   S    
C22   O22   A    
C3    C82   S    
C33   O5    A    
O3    Zn7   S    
C18   O15   A    
C25   O27   A    
O65   S7    D    
C92   N4    T    
C61   S4    S    
C64   C82   S    
C38   C47   S    
C10   C12   S    
C29   O36   A    
O16   Zn10  S    
O69   S8    D    
O51   S3    D    
O15   Zn9   S    
O58   S5    D    
C35   O10   A    
O4    Zn7   S    
O52   S3    D    
C28   O33   A    
C37   O13   A    
O66   S7    S    
C52   C92   S    
C36   O7    A    
O71   Zn4   S    
C21   O19   A    
C14   C29   S    
O35   Zn4   S    
O21   Zn9   S    
O55   S4    D    
C36   C69   S    
C15   C30   S    
C54   C79   S    
C33   O9    A    
C30   O38   A    
C46   C47   T    
C60   C80   S    
C67   C86   S    
C27   O31   A    
C65   C78   S    
O32   Zn2   S    
O72   Zn6   S    
C96   N8    T    
C26   O29   A    
C59   C81   S    
C62   S5    S    
C57   C65   S    
C52   C76   S    
C76   C81   S    
C23   O3    A    
C56   C59   S    
C67   H10   S    
O49   S2    D    
C51   C60   S    
C79   H15   S    
O13   Zn7   S    
C28   C43   S    
C63   S6    S    
C13   C17   T    
O42   Zn3   S    
C10   C15   T    
C8    C87   S    
O30   Zn11  S    
C20   O20   A    
C55   C86   S    
O7    Zn5   S    
O1    Zn1   S    
C13   C34   S    
C5    C71   T    
H5    O60   S    
C61   C81   S    
O28   Zn9   S    
C79   C83   S    
O9    Zn6   S    
C94   N6    T    
C27   C42   S    
C24   C74   S    
C56   C85   S    
O23   Zn5   S    
C4    C83   S    
C35   C68   S    
C24   O24   A    
C11   C23   S    
C91   N3    T    
C18   O14   A    
C25   O28   A    
C90   N2    T    
O27   Zn8   S    
C1    O1    A    
C56   H9    S    
C54   C94   S    
O34   Zn5   S    
O19   Zn8   S    
C33   C66   S    
C21   O21   A    
C45   C84   S    
C1    O72   A    
C19   C41   S    
C12   O2    A    
O8    Zn5   S    
C64   S7    S    
C8    C74   T    
C17   C32   S    
O68   S8    D    
C56   C61   S    
C2    C81   S    
C24   O26   A    
O37   Zn2   S    
C22   C73   S    
O33   Zn3   S    
C26   C46   S    
C51   C84   S    
H6    O63   S    
C45   H1    S    
C44   C48   T    
C60   S3    S    
C39   C48   S    
O25   Zn11  S    
C63   C78   S    
