data_mof_unit_11916.cif
_audit_creation_date              2012-12-10T16:43:25-0500
_audit_creation_method            fapswitch 2.2
_symmetry_space_group_name_H-M    P1
_symmetry_Int_Tables_number       1
_space_group_crystal_system       triclinic
_cell_length_a                    12.290587
_cell_length_b                    12.320017
_cell_length_c                    23.787144
_cell_angle_alpha                 90.399522
_cell_angle_beta                  89.796096
_cell_angle_gamma                 89.873811
_cell_volume                      3601.73576486

loop_
_atom_site_label
_atom_site_type_symbol
_atom_type_description
_atom_site_fract_x
_atom_site_fract_y
_atom_site_fract_z
_atom_type_partial_charge
C1    C     C_3   0.001824 0.001546 0.250718 0.177392
C2    C     C_R   0.906782 0.002749 0.296174 -0.031945
C3    C     C_3   0.442864 0.570150 0.117699 -0.992441
C4    C     C_3   0.155123 0.168054 0.452596 0.086160
C5    C     C_3   0.050271 0.099303 0.451525 -0.438023
C6    C     C_3   0.996877 0.096169 0.509625 -0.927658
C7    C     C_3   0.632277 0.754927 0.665560 0.126309
C8    C     C_3   0.654133 0.632221 0.667652 -0.346083
C9    C     C_3   0.555359 0.568639 0.686843 -0.994449
C10   C     C_R   0.000362 0.649354 0.921592 0.870691
C11   C     C_R   0.999554 0.349965 0.078043 0.849147
C12   C     C_R   0.346904 0.999667 0.423581 0.849175
C13   C     C_R   0.648468 0.999797 0.578940 0.839954
C14   C     C_R   0.999739 0.343180 0.925046 0.829852
C15   C     C_R   0.000502 0.650131 0.078324 0.860899
C16   C     C_R   0.654702 0.000135 0.424444 0.851172
C17   C     C_R   0.349315 0.001097 0.577904 0.872641
C18   C     C_R   0.087754 0.121933 0.172613 0.091688
C19   C     C_3   0.996632 0.992811 0.750400 0.180053
C20   C     C_R   0.903690 0.865854 0.822466 0.041482
C21   C     C_R   0.868545 0.085922 0.680072 0.067675
C22   C     C_R   0.131142 0.903432 0.322141 0.039346
C23   C     C_R   0.911680 0.866673 0.180674 0.074580
C24   C     C_R   0.088593 0.106139 0.831012 0.065366
C25   C     C_R   0.109454 0.914984 0.664842 0.055004
C26   C     C_R   0.874564 0.102023 0.326302 0.034880
C27   C     C_R   0.095855 0.831062 0.802473 0.070244
C28   C     C_R   0.894621 0.160366 0.191101 0.050050
C29   C     C_R   0.857912 0.904117 0.316599 0.091515
C30   C     C_R   0.993084 0.098209 0.205700 -0.024570
C31   C     C_R   0.164103 0.094127 0.698500 0.074642
C32   C     C_R   0.896784 0.142951 0.815548 0.070434
C33   C     C_R   0.109007 0.843573 0.190306 0.112685
C34   C     C_R   0.149727 0.098943 0.315052 0.063061
C35   C     C_R   0.833333 0.891282 0.693208 0.114248
C36   C     C_R   0.089520 0.202750 0.131314 0.344315
C37   C     C_R   0.902886 0.777507 0.858769 0.320790
C38   C     C_R   0.777971 0.092530 0.644539 0.361337
C39   C     C_R   0.222686 0.901754 0.357216 0.313519
C40   C     C_R   0.907621 0.774053 0.146509 0.359157
C41   C     C_R   0.999966 0.893461 0.791183 -0.017177
C42   C     C_R   0.091285 0.188600 0.872563 0.334880
C43   C     C_R   0.190176 0.917341 0.622922 0.337036
C44   C     C_R   0.790508 0.100375 0.366329 0.351660
C45   C     C_R   0.098639 0.759154 0.848323 0.303917
C46   C     C_R   0.901872 0.249019 0.153399 0.372635
C47   C     C_R   0.791929 0.904711 0.364706 0.293648
C48   C     C_R   0.247496 0.094619 0.656817 0.330381
C49   C     C_R   0.897627 0.209169 0.864291 0.328575
C50   C     C_R   0.104347 0.767997 0.145546 0.320313
C51   C     C_R   0.207148 0.095505 0.365808 0.380941
C52   C     C_R   0.894314 0.988542 0.709786 0.055303
C53   C     C_R   0.752003 0.898283 0.651952 0.313942
C54   C     C_R   0.997194 0.265538 0.121935 -0.272546
C55   C     C_R   0.001159 0.730539 0.876090 -0.290583
C56   C     C_R   0.727099 0.997348 0.626036 -0.287739
C57   C     C_R   0.258701 0.998837 0.381662 -0.306178
C58   C     C_R   0.003907 0.731361 0.124476 -0.290051
C59   C     C_R   0.996941 0.247128 0.886303 -0.295794
C60   C     C_R   0.261870 0.004189 0.620782 -0.269807
C61   C     C_R   0.746837 0.001746 0.384561 -0.293925
C62   C     C_3   0.276106 0.249966 0.118484 0.098479
C63   C     C_R   0.099528 0.002350 0.293779 -0.008477
C64   C     C_3   0.266186 0.335474 0.166034 -0.387941
C65   C     C_3   0.372576 0.344947 0.198816 -0.950043
C66   C     C_3   0.768641 0.652340 0.845785 0.095037
C67   C     C_3   0.668786 0.601366 0.873389 -0.308384
C68   C     C_3   0.637514 0.494773 0.844730 -0.939516
C69   C     C_3   0.679917 0.251856 0.660762 0.073265
C70   C     C_3   0.586982 0.187181 0.688991 -0.375796
C71   C     C_3   0.520704 0.258727 0.729082 -0.867372
C72   C     C_3   0.355921 0.779700 0.335492 0.079871
C73   C     C_3   0.419158 0.682248 0.357824 -0.292020
C74   C     C_R   0.008942 0.898377 0.209638 0.080611
C75   C     C_3   0.516440 0.654713 0.320197 -0.941503
C76   C     C_3   0.755055 0.669815 0.168084 0.085097
C77   C     C_3   0.828266 0.587153 0.198819 -0.393214
C78   C     C_3   0.763805 0.524406 0.242921 -0.849701
C79   C     C_3   0.194988 0.145398 0.948984 0.074878
C80   C     C_3   0.314495 0.116997 0.959410 -0.322874
C81   C     C_3   0.326761 0.031482 0.005041 -0.929381
C82   C     C_3   0.211854 0.734216 0.590364 0.141995
C83   C     C_3   0.297635 0.712883 0.636586 -0.383778
C84   C     C_3   0.277421 0.604224 0.665467 -0.977278
C85   C     C_R   0.994097 0.088118 0.796541 0.072823
C86   C     C_3   0.796006 0.242782 0.429408 0.099405
C87   C     C_3   0.728304 0.336771 0.453150 -0.298200
C88   C     C_3   0.782963 0.388101 0.504301 -0.964135
C89   C     C_3   0.257351 0.764606 0.898402 0.101181
C90   C     C_3   0.354667 0.695758 0.916438 -0.302674
C91   C     C_3   0.434515 0.761133 0.952089 -0.972871
C92   C     C_3   0.719152 0.317968 0.141794 0.134030
C93   C     C_3   0.700329 0.252554 0.087403 -0.389902
C94   C     C_3   0.578942 0.232025 0.078722 -0.989970
C95   C     C_3   0.836774 0.794262 0.436768 0.091415
C96   C     C_R   0.095617 0.000182 0.706088 0.092656
C97   C     C_3   0.800442 0.696860 0.471450 -0.298461
C98   C     C_3   0.872292 0.683094 0.523220 -0.912147
C99   C     C_3   0.286379 0.279879 0.636925 0.097631
C100  C     C_3   0.202208 0.277652 0.589115 -0.395261
C101  C     C_3   0.158324 0.390723 0.576323 -0.959711
C102  C     C_3   0.785845 0.188295 0.942260 0.098263
C103  C     C_3   0.769523 0.065350 0.938670 -0.423490
C104  C     C_3   0.756101 0.013816 0.996408 -0.893364
C105  C     C_3   0.263564 0.667282 0.136221 0.092197
C106  C     C_3   0.368701 0.663820 0.101613 -0.305636
Cu1   Cu    Cu3+1 0.889520 0.500000 0.000000 0.944793
Cu2   Cu    Cu3+1 0.110480 0.500000 0.000000 0.948935
Cu3   Cu    Cu3+1 0.500000 0.889520 0.500000 0.944284
Cu4   Cu    Cu3+1 0.500000 0.110480 0.500000 0.946449
H1    H     H_    0.323218 0.288518 0.084083 0.159412
H2    H     H_    0.685770 0.585345 0.918448 0.241730
H3    H     H_    0.212328 0.129527 0.482103 0.160171
H4    H     H_    0.993550 0.133730 0.420688 0.229949
H5    H     H_    0.068184 0.014226 0.438872 0.219714
H6    H     H_    0.053564 0.060386 0.540732 0.267979
H7    H     H_    0.922544 0.045187 0.508004 0.246711
H8    H     H_    0.973812 0.179288 0.523674 0.257430
H9    H     H_    0.550765 0.770263 0.647366 0.155984
H10   H     H_    0.631659 0.788265 0.709331 0.110325
H11   H     H_    0.678922 0.601883 0.625342 0.230373
H12   H     H_    0.721343 0.615099 0.697304 0.207543
H13   H     H_    0.599562 0.659168 0.870899 0.208651
H14   H     H_    0.518647 0.606452 0.724971 0.267554
H15   H     H_    0.580676 0.484643 0.696854 0.254055
H16   H     H_    0.495428 0.564783 0.652279 0.274230
H17   H     H_    0.210209 0.031622 0.139591 0.241116
H18   H     H_    0.243871 0.104880 0.198787 0.224328
H19   H     H_    0.765203 0.935582 0.850629 0.229922
H20   H     H_    0.747839 0.862932 0.793552 0.239145
H21   H     H_    0.960614 0.201322 0.643375 0.227084
H22   H     H_    0.897760 0.243597 0.702900 0.226835
H23   H     H_    0.135046 0.747445 0.293167 0.245654
H24   H     H_    0.621448 0.508043 0.799484 0.257448
H25   H     H_    0.058371 0.768783 0.350353 0.225154
H26   H     H_    0.794316 0.952023 0.141795 0.234126
H27   H     H_    0.751639 0.890493 0.201169 0.222913
H28   H     H_    0.199212 0.999132 0.859153 0.195851
H29   H     H_    0.252100 0.094195 0.816999 0.248532
H30   H     H_    0.005898 0.813455 0.624661 0.239870
H31   H     H_    0.080766 0.755383 0.678035 0.229682
H32   H     H_    0.850471 0.259489 0.303600 0.269613
H33   H     H_    0.967270 0.215033 0.282607 0.253624
H34   H     H_    0.257630 0.862494 0.789260 0.232037
H35   H     H_    0.562801 0.461898 0.864647 0.261383
H36   H     H_    0.207088 0.756990 0.753181 0.242233
H37   H     H_    0.736841 0.120990 0.179930 0.211705
H38   H     H_    0.773665 0.080093 0.240382 0.250891
H39   H     H_    0.789249 0.779909 0.275932 0.214754
H40   H     H_    0.890825 0.741531 0.316111 0.249162
H41   H     H_    0.222437 0.216444 0.747989 0.238247
H42   H     H_    0.116717 0.252384 0.706352 0.229280
H43   H     H_    0.771356 0.210698 0.775039 0.219924
H44   H     H_    0.734774 0.107557 0.815194 0.251997
H45   H     H_    0.273168 0.872729 0.179020 0.245354
H46   H     H_    0.703996 0.434219 0.849068 0.291626
H47   H     H_    0.235346 0.922605 0.238286 0.232533
H48   H     H_    0.126989 0.261957 0.311804 0.261315
H49   H     H_    0.233591 0.215329 0.276321 0.221857
H50   H     H_    0.860996 0.729648 0.677902 0.244841
H51   H     H_    0.920800 0.763128 0.734567 0.230472
H52   H     H_    0.641801 0.318365 0.636382 0.167450
H53   H     H_    0.730106 0.293089 0.692864 0.118389
H54   H     H_    0.532677 0.153244 0.656230 0.265261
H55   H     H_    0.619881 0.118830 0.713934 0.203412
H56   H     H_    0.574090 0.294906 0.761770 0.248805
H57   H     H_    0.328042 0.180527 0.130657 0.131324
H58   H     H_    0.457603 0.209018 0.750241 0.270707
H59   H     H_    0.479555 0.324466 0.705662 0.254802
H60   H     H_    0.412902 0.849831 0.332268 0.133976
H61   H     H_    0.325561 0.759065 0.292821 0.140932
H62   H     H_    0.448800 0.700604 0.400944 0.236929
H63   H     H_    0.364345 0.610727 0.359949 0.210318
H64   H     H_    0.488861 0.634484 0.276946 0.244409
H65   H     H_    0.560179 0.583470 0.337483 0.261471
H66   H     H_    0.573704 0.724302 0.318484 0.274815
H67   H     H_    0.692008 0.622612 0.145359 0.162029
H68   H     H_    0.245425 0.414441 0.147267 0.210722
H69   H     H_    0.709041 0.720454 0.198440 0.121922
H70   H     H_    0.864286 0.530749 0.167443 0.260609
H71   H     H_    0.896359 0.627833 0.220963 0.207504
H72   H     H_    0.739913 0.579450 0.278008 0.247931
H73   H     H_    0.815032 0.458235 0.260138 0.271815
H74   H     H_    0.689126 0.488621 0.224519 0.247295
H75   H     H_    0.147316 0.068379 0.946182 0.105323
H76   H     H_    0.162937 0.192565 0.985371 0.202191
H77   H     H_    0.351457 0.084777 0.919951 0.212828
H78   H     H_    0.359451 0.191486 0.971944 0.218565
H79   H     H_    0.200898 0.316563 0.196409 0.225911
H80   H     H_    0.283133 0.956189 0.992839 0.254624
H81   H     H_    0.293159 0.061629 0.045442 0.281465
H82   H     H_    0.414262 0.012123 0.010897 0.254164
H83   H     H_    0.243624 0.695728 0.551231 0.152899
H84   H     H_    0.134842 0.689827 0.597578 0.127731
H85   H     H_    0.379681 0.711902 0.617025 0.210073
H86   H     H_    0.298931 0.776513 0.669526 0.218583
H87   H     H_    0.190921 0.595502 0.678166 0.254398
H88   H     H_    0.327062 0.598788 0.704166 0.271556
H89   H     H_    0.300232 0.536467 0.636921 0.258997
H90   H     H_    0.388651 0.268857 0.222119 0.255001
H91   H     H_    0.876716 0.275405 0.417011 0.159076
H92   H     H_    0.805846 0.181255 0.463057 0.155684
H93   H     H_    0.717583 0.399568 0.420270 0.209206
H94   H     H_    0.646596 0.306733 0.465656 0.238817
H95   H     H_    0.795827 0.326556 0.537487 0.296360
H96   H     H_    0.730142 0.453597 0.521573 0.252247
H97   H     H_    0.862732 0.423420 0.492260 0.257448
H98   H     H_    0.209198 0.787523 0.936504 0.143216
H99   H     H_    0.288691 0.839795 0.878933 0.114774
H100  H     H_    0.325418 0.625055 0.940971 0.226231
H101  H     H_    0.366753 0.413199 0.229428 0.265173
H102  H     H_    0.397784 0.664661 0.878442 0.218091
H103  H     H_    0.468704 0.829326 0.927388 0.265635
H104  H     H_    0.502369 0.707845 0.965642 0.261956
H105  H     H_    0.393327 0.794033 0.990109 0.264526
H106  H     H_    0.682564 0.399157 0.134476 0.148069
H107  H     H_    0.671880 0.286834 0.177965 0.161016
H108  H     H_    0.730470 0.299632 0.051149 0.237135
H109  H     H_    0.743782 0.173735 0.088289 0.205771
H110  H     H_    0.546211 0.180959 0.113142 0.260914
H111  H     H_    0.565366 0.189629 0.038075 0.260800
H112  H     H_    0.442378 0.359338 0.170217 0.258722
H113  H     H_    0.533817 0.310192 0.077764 0.254074
H114  H     H_    0.835294 0.867320 0.464795 0.133843
H115  H     H_    0.921757 0.780321 0.422101 0.126945
H116  H     H_    0.714768 0.708934 0.485317 0.241507
H117  H     H_    0.804738 0.622027 0.445153 0.209722
H118  H     H_    0.957632 0.665935 0.510373 0.249101
H119  H     H_    0.842248 0.614536 0.548923 0.253653
H120  H     H_    0.870273 0.757858 0.549554 0.279568
H121  H     H_    0.358176 0.324591 0.620656 0.157896
H122  H     H_    0.258808 0.329985 0.673049 0.133890
H123  H     H_    0.833353 0.589135 0.841604 0.144219
H124  H     H_    0.243270 0.245814 0.551176 0.228988
H125  H     H_    0.132057 0.225077 0.599431 0.208123
H126  H     H_    0.122494 0.428210 0.614760 0.262531
H127  H     H_    0.093592 0.384885 0.544012 0.256361
H128  H     H_    0.224315 0.443022 0.559733 0.257288
H129  H     H_    0.712160 0.224286 0.961971 0.168286
H130  H     H_    0.855083 0.205415 0.970870 0.135693
H131  H     H_    0.695391 0.048502 0.913579 0.219987
H132  H     H_    0.842584 0.028166 0.918825 0.221495
H133  H     H_    0.826406 0.033979 0.023765 0.242776
H134  H     H_    0.745994 0.679353 0.802905 0.131468
H135  H     H_    0.752038 0.924184 0.991567 0.286375
H136  H     H_    0.679558 0.041770 0.016579 0.258271
H137  H     H_    0.221293 0.588411 0.133037 0.151419
H138  H     H_    0.284341 0.680618 0.181129 0.137231
H139  H     H_    0.347894 0.655002 0.056406 0.235227
H140  H     H_    0.413165 0.741553 0.107498 0.212553
H141  H     H_    0.458205 0.570384 0.163691 0.260121
H142  H     H_    0.521753 0.577932 0.095247 0.254531
H143  H     H_    0.405330 0.492495 0.104383 0.264576
H144  H     H_    0.133763 0.248803 0.470356 0.170242
N1    N     N_3   0.183611 0.059630 0.178924 -0.610915
N2    N     N_3   0.786515 0.143292 0.213483 -0.576212
N3    N     N_3   0.867630 0.801926 0.287992 -0.562184
N4    N     N_3   0.148134 0.190840 0.731347 -0.568377
N5    N     N_3   0.794770 0.132814 0.787046 -0.568064
N6    N     N_3   0.218783 0.858467 0.212001 -0.628493
N7    N     N_3   0.151964 0.198983 0.284981 -0.611908
N8    N     N_3   0.851043 0.780770 0.712811 -0.614118
N9    N     N_3   0.801342 0.917813 0.812209 -0.570400
N10   N     N_3   0.938102 0.178505 0.684022 -0.590816
N11   N     N_3   0.079613 0.801592 0.311426 -0.561736
N12   N     N_3   0.816185 0.932035 0.182935 -0.613337
N13   N     N_3   0.185311 0.043044 0.822561 -0.575364
N14   N     N_3   0.039392 0.824340 0.664671 -0.618004
N15   N     N_3   0.915224 0.209652 0.315631 -0.588805
N16   N     N_3   0.190005 0.835939 0.766852 -0.579287
O1    O     O_R   0.907020 0.615090 0.941240 -0.558185
O2    O     O_R   0.092980 0.615090 0.941240 -0.566405
O3    O     O_R   0.384910 0.092980 0.558760 -0.594276
O4    O     O_R   0.615090 0.907020 0.441240 -0.562167
O5    O     O_R   0.092980 0.615090 0.058760 -0.582844
O6    O     O_R   0.907020 0.384910 0.941240 -0.583854
O7    O     O_R   0.615090 0.907020 0.558760 -0.564645
O8    O     O_R   0.384910 0.092980 0.441240 -0.577141
O9    O     O_3   0.177015 0.212623 0.094179 -0.622704
O10   O     O_3   0.803561 0.741466 0.879118 -0.585916
O11   O     O_3   0.746544 0.191690 0.622473 -0.601934
O12   O     O_R   0.092980 0.384910 0.058760 -0.576105
O13   O     O_3   0.267656 0.802829 0.372114 -0.580732
O14   O     O_3   0.808279 0.735483 0.127356 -0.584798
O15   O     O_3   0.188182 0.209847 0.900006 -0.587041
O16   O     O_3   0.189756 0.844867 0.577372 -0.597955
O17   O     O_3   0.742255 0.198298 0.382146 -0.577512
O18   O     O_3   0.194462 0.703965 0.859595 -0.584968
O19   O     O_3   0.829624 0.336798 0.156472 -0.603278
O20   O     O_3   0.766773 0.806987 0.390091 -0.595678
O21   O     O_3   0.325266 0.176773 0.655063 -0.609849
O22   O     O_3   0.798216 0.237420 0.888482 -0.601979
O23   O     O_R   0.384910 0.907020 0.441240 -0.549979
O24   O     O_3   0.198070 0.750984 0.113862 -0.591144
O25   O     O_3   0.206498 0.187505 0.399641 -0.593384
O26   O     O_3   0.710595 0.802444 0.629655 -0.589310
O27   O     O_R   0.615090 0.092980 0.558760 -0.562590
O28   O     O_R   0.092980 0.384910 0.941240 -0.545763
O29   O     O_R   0.907020 0.615090 0.058760 -0.542979
O30   O     O_R   0.615090 0.092980 0.441240 -0.561701
O31   O     O_R   0.384910 0.907020 0.558760 -0.576531
O32   O     O_R   0.907020 0.384910 0.058760 -0.600826

loop_
_geom_bond_atom_site_label_1
_geom_bond_atom_site_label_2
_ccdc_geom_bond_type
C79   O15   S    
C87   C88   S    
C18   C36   A    
C93   C94   S    
C20   C37   A    
C79   H76   S    
C5    H4    S    
C35   C53   A    
C92   H106  S    
C24   C42   A    
C86   O17   S    
C100  H124  S    
C105  O24   S    
C4    O25   S    
C4    H144  S    
C88   H95   S    
C76   H69   S    
C8    H12   S    
H18   N1    S    
C65   H101  S    
C3    H143  S    
C99   H122  S    
C49   O22   S    
C13   O7    A    
C7    C8    S    
C81   H82   S    
C81   H81   S    
C77   C78   S    
H25   N11   S    
C14   C59   S    
C28   C46   A    
C34   C51   A    
C45   O18   S    
Cu3   O23   S    
C29   C47   A    
C2    C29   A    
H17   N1    S    
C1    C74   S    
C106  H139  S    
C1    C30   S    
C3    H141  S    
H31   N14   S    
C78   H73   S    
C91   H104  S    
C69   C70   S    
H40   N3    S    
H20   N9    S    
C5    C6    S    
C8    H11   S    
C89   H98   S    
H28   N13   S    
C22   C39   A    
C31   C96   A    
Cu4   O3    S    
Cu4   O27   S    
C1    C63   S    
H37   N2    S    
C23   C74   A    
C9    H14   S    
H26   N12   S    
C1    C2    S    
C95   O20   S    
C83   H86   S    
C64   H79   S    
C105  H137  S    
C82   H83   S    
C62   C64   S    
C38   O11   S    
H32   N15   S    
C22   C63   A    
C98   H120  S    
H51   N8    S    
C69   O11   S    
C62   H1    S    
C101  H127  S    
C39   O13   S    
C8    C9    S    
C71   H56   S    
Cu4   O30   S    
C92   O19   S    
C94   H111  S    
C77   H71   S    
Cu1   Cu2   S    
C71   H59   S    
C66   O10   S    
C70   C71   S    
C51   C57   A    
C31   N4    S    
C24   C85   A    
C86   H92   S    
C6    H7    S    
C51   O25   S    
Cu3   O4    S    
H22   N10   S    
C43   O16   S    
C27   C45   A    
C53   O26   S    
C62   H57   S    
C75   H66   S    
C15   O29   A    
C84   H89   S    
C10   O2    A    
C5    H5    S    
C75   H64   S    
H50   N8    S    
C73   C75   S    
C25   C43   A    
C92   H107  S    
C48   C60   A    
C99   O21   S    
C19   C52   S    
C87   H93   S    
C65   H112  S    
C10   C55   S    
C97   C98   S    
C98   H118  S    
C76   C77   S    
C3    C106  S    
C81   H80   S    
C44   C61   A    
Cu3   O31   S    
C34   C63   A    
C77   H70   S    
C40   C58   A    
C21   C38   A    
C66   H123  S    
C75   H65   S    
C67   C68   S    
C50   C58   A    
C72   H61   S    
C7    H9    S    
C4    H3    S    
H36   N16   S    
C65   H90   S    
C3    H142  S    
C16   O4    A    
C76   H67   S    
C70   H55   S    
C90   H100  S    
C83   H85   S    
C86   C87   S    
C72   C73   S    
C11   O32   A    
C89   H99   S    
C37   O10   S    
C84   H88   S    
C33   C50   A    
C26   N15   S    
Cu1   O1    S    
C82   C83   S    
C9    H15   S    
C70   H54   S    
C93   H108  S    
C78   H72   S    
C46   O19   S    
C72   H60   S    
H30   N14   S    
C50   O24   S    
H34   N16   S    
C95   H115  S    
C36   O9    S    
C48   O21   S    
Cu1   O6    S    
Cu1   O32   S    
C14   O6    A    
C98   H119  S    
C64   H68   S    
H27   N12   S    
C27   C41   A    
C21   N10   S    
Cu3   O7    S    
C83   C84   S    
Cu2   O2    S    
H49   N7    S    
H48   N7    S    
C6    H6    S    
C46   C54   A    
C101  H126  S    
C13   O27   A    
C80   H78   S    
C19   C41   S    
C67   H2    S    
C2    C26   A    
C72   O13   S    
C69   H52   S    
C73   H62   S    
C15   O5    A    
C91   H105  S    
C86   H91   S    
H39   N3    S    
C11   C54   S    
C43   C60   A    
C25   C96   A    
C18   C30   A    
C12   C57   S    
C97   H117  S    
C17   O31   A    
H38   N2    S    
C104  H136  S    
C71   H58   S    
C24   N13   S    
C94   H113  S    
C18   N1    S    
C15   C58   S    
C10   O1    A    
C94   H110  S    
C88   H97   S    
H43   N5    S    
C12   O8    A    
C87   H94   S    
C103  C104  S    
C25   N14   S    
Cu2   O12   S    
C35   N8    S    
C102  O22   S    
H21   N10   S    
C53   C56   A    
C12   O23   A    
C44   O17   S    
H29   N13   S    
C40   O14   S    
C99   H121  S    
C79   H75   S    
C34   N7    S    
C101  H128  S    
H33   N15   S    
C28   N2    S    
C7    H10   S    
C76   O14   S    
C32   N5    S    
C69   H53   S    
C88   H96   S    
C80   C81   S    
C19   C85   S    
C67   H13   S    
C42   C59   A    
C47   C61   A    
C17   O3    A    
C7    O26   S    
C95   C97   S    
H23   N11   S    
C103  H132  S    
Cu2   O28   S    
C84   H87   S    
C104  H133  S    
C105  C106  S    
C16   O30   A    
C23   N12   S    
C102  H130  S    
C9    H16   S    
C49   C59   A    
C99   C100  S    
C93   H109  S    
C31   C48   A    
C64   C65   S    
C13   C56   S    
C28   C30   A    
Cu2   O5    S    
C20   N9    S    
C14   O28   A    
Cu1   O29   S    
Cu3   Cu4   S    
C90   H102  S    
H45   N6    S    
C22   N11   S    
C106  H140  S    
C90   C91   S    
C66   H134  S    
C102  H129  S    
C32   C85   A    
C33   N6    S    
C68   H24   S    
C92   C93   S    
C103  H131  S    
C80   H77   S    
C66   C67   S    
C105  H138  S    
C78   H74   S    
C68   H35   S    
C73   H63   S    
C102  C103  S    
C82   O16   S    
C29   N3    S    
C32   C49   A    
C82   H84   S    
C42   O15   S    
C36   C54   A    
C26   C44   A    
C19   C96   S    
C17   C60   S    
C79   C80   S    
C37   C55   A    
H42   N4    S    
C33   C74   A    
C4    C5    S    
C27   N16   S    
C38   C56   A    
C97   H116  S    
C45   C55   A    
C89   O18   S    
C91   H103  S    
C104  H135  S    
C16   C61   S    
C35   C52   A    
C95   H114  S    
C100  H125  S    
C100  C101  S    
H47   N6    S    
C62   O9    S    
C11   O12   A    
C89   C90   S    
H19   N9    S    
C47   O20   S    
C68   H46   S    
C6    H8    S    
C21   C52   A    
H44   N5    S    
C23   C40   A    
H41   N4    S    
C20   C41   A    
Cu4   O8    S    
C39   C57   A    
