data_mof_unit_40739.cif
_audit_creation_date              2012-12-10T17:56:21-0500
_audit_creation_method            fapswitch 2.2
_symmetry_space_group_name_H-M    P1
_symmetry_Int_Tables_number       1
_space_group_crystal_system       triclinic
_cell_length_a                    13.028651
_cell_length_b                    10.827373
_cell_length_c                    9.504551
_cell_angle_alpha                 89.650657
_cell_angle_beta                  95.335433
_cell_angle_gamma                 90.601931
_cell_volume                      1334.86923821

loop_
_atom_site_label
_atom_site_type_symbol
_atom_type_description
_atom_site_fract_x
_atom_site_fract_y
_atom_site_fract_z
_atom_type_partial_charge
C1    C     C_R   0.501784 0.262237 0.500666 0.819525
C2    C     C_R   0.498157 0.737829 0.499147 0.816701
C3    C     C_R   0.496733 0.871707 0.497688 -0.088179
C4    C     C_R   0.503856 0.128472 0.501474 -0.080454
C5    C     C_R   0.437363 0.421204 0.067477 -0.241896
C6    C     C_R   0.563673 0.577741 0.932620 -0.253358
C7    C     C_R   0.434881 0.422704 0.917234 0.583593
C8    C     C_R   0.562072 0.581245 0.082925 0.565523
C9    C     C_R   0.300916 0.501126 0.474847 0.814164
C10   C     C_R   0.699105 0.498334 0.525211 0.822654
C11   C     C_R   0.811060 0.503038 0.538070 -0.074690
C12   C     C_R   0.188991 0.496159 0.462625 -0.079193
C13   C     C_R   0.033184 0.409279 0.345441 -0.214835
C14   C     C_R   0.967144 0.587078 0.658184 -0.222784
C15   C     C_R   0.138541 0.428224 0.352185 -0.269543
C16   C     C_R   0.861277 0.571852 0.648066 -0.261564
C17   C     C_R   0.133363 0.549780 0.566549 0.179219
C18   C     C_R   0.867387 0.445004 0.438016 0.181081
C19   C     C_R   0.025593 0.533082 0.558321 0.071297
C20   C     C_R   0.975149 0.461333 0.446928 0.080343
C21   C     C_R   0.465360 0.066652 0.378558 -0.317317
C22   C     C_R   0.535499 0.933657 0.620529 -0.321582
C23   C     C_R   0.461023 0.938610 0.375120 0.252690
C24   C     C_R   0.541466 0.061733 0.623004 0.273966
Cu1   Cu    Cu3+1 0.500000 0.500020 0.640660 0.989656
Cu2   Cu    Cu3+1 0.500000 0.499980 0.359340 0.984575
H1    H     H_    0.817988 0.617207 0.724647 0.160754
H2    H     H_    0.181462 0.385394 0.273460 0.161971
H3    H     H_    0.998374 0.353184 0.260016 0.158829
H4    H     H_    0.001607 0.643941 0.743287 0.154538
H5    H     H_    0.436179 0.117955 0.285205 0.158672
H6    H     H_    0.564781 0.882320 0.713750 0.153911
H7    H     H_    0.389626 0.356813 0.120018 0.152874
H8    H     H_    0.615712 0.636201 0.879545 0.157522
N1    N     N_R   0.500030 0.500030 0.852080 -0.201636
N2    N     N_R   0.499970 0.499970 0.147920 -0.205964
O1    O     O_R   0.499990 0.319660 0.618740 -0.504291
O2    O     O_R   0.500010 0.680340 0.381260 -0.515576
O3    O     O_R   0.499990 0.319630 0.381170 -0.604746
O4    O     O_R   0.500010 0.680370 0.618830 -0.599461
O5    O     O_R   0.349000 0.499990 0.599490 -0.529123
O6    O     O_R   0.651000 0.500010 0.400510 -0.511813
O7    O     O_R   0.348990 0.499960 0.361920 -0.602846
O8    O     O_R   0.651010 0.500040 0.638080 -0.606103
N3    N     N_2   0.815684 0.365348 0.334540 -0.441831
H9    H     H_    0.842696 0.276123 0.335522 0.235219
C25   C     C_3   0.792894 0.417076 0.194126 -0.600226
H10   H     H_    0.844667 0.377821 0.119838 0.180738
H11   H     H_    0.801592 0.519318 0.193957 0.246820
H12   H     H_    0.712467 0.392515 0.155038 0.240869
N4    N     N_2   0.187074 0.617282 0.679711 -0.424566
H13   H     H_    0.165626 0.597424 0.779098 0.231932
C26   C     C_3   0.200758 0.747636 0.652508 -0.672493
H14   H     H_    0.124880 0.794171 0.638161 0.217002
H15   H     H_    0.241967 0.761566 0.556612 0.218878
H16   H     H_    0.247799 0.790299 0.743220 0.223665
N5    N     N_2   0.421409 0.878837 0.247963 -0.414131
H17   H     H_    0.435628 0.926629 0.157399 0.231438
C27   C     C_3   0.314837 0.839479 0.245285 -0.658802
H18   H     H_    0.264276 0.920556 0.254397 0.210534
H19   H     H_    0.304554 0.773489 0.332601 0.222570
H20   H     H_    0.291503 0.791834 0.144012 0.219515
N6    N     N_2   0.586941 0.122011 0.746759 -0.396094
H21   H     H_    0.578446 0.074287 0.839339 0.241891
C28   C     C_3   0.692052 0.163877 0.737699 -0.661575
H22   H     H_    0.743089 0.083877 0.725255 0.210214
H23   H     H_    0.719758 0.213957 0.835809 0.225678
H24   H     H_    0.696935 0.227872 0.646797 0.223256
O9    O     O_3   0.375027 0.338585 0.835311 -0.577178
C29   C     C_3   0.270418 0.339136 0.865139 0.045476
H25   H     H_    0.222523 0.354986 0.763908 0.179467
H26   H     H_    0.250594 0.414209 0.937669 0.105880
C30   C     C_3   0.240712 0.212880 0.923243 -0.359704
H27   H     H_    0.254008 0.140310 0.844876 0.229582
H28   H     H_    0.289614 0.192038 0.022353 0.203633
C31   C     C_3   0.127648 0.209001 0.953282 -0.933436
H29   H     H_    0.076994 0.226898 0.854821 0.259203
H30   H     H_    0.112958 0.279329 0.033422 0.250344
H31   H     H_    0.108381 0.116339 0.994728 0.255398
O10   O     O_3   0.628511 0.656147 0.168906 -0.581860
C32   C     C_3   0.645248 0.774604 0.110915 0.045620
H32   H     H_    0.638001 0.843387 0.195595 0.177859
H33   H     H_    0.586805 0.801590 0.023200 0.112227
C33   C     C_3   0.755208 0.783891 0.066782 -0.379900
H34   H     H_    0.810951 0.776605 0.162328 0.225967
H35   H     H_    0.770087 0.706584 0.995416 0.206273
C34   C     C_3   0.773210 0.905835 0.991475 -0.933421
H36   H     H_    0.721675 0.911191 0.891973 0.253761
H37   H     H_    0.854373 0.911631 0.965072 0.257381
H38   H     H_    0.758078 0.985040 0.060111 0.259821

loop_
_geom_bond_atom_site_label_1
_geom_bond_atom_site_label_2
_ccdc_geom_bond_type
C34   H36   S    
N6    C28   S    
C11   C18   A    
C10   O6    A    
C30   H27   S    
C3    C23   A    
C19   C20   A    
C33   C34   S    
C17   N4    S    
C32   H32   S    
C15   H2    S    
C25   H11   S    
C26   H14   S    
C21   H5    S    
C22   H6    S    
C13   H3    S    
C33   H35   S    
Cu1   O4    S    
C4    C24   A    
Cu2   O3    S    
N5    C27   S    
C5    N2    A    
C6    N1    A    
C8    N2    A    
Cu1   O1    S    
C28   H23   S    
C5    H7    S    
C12   C17   A    
C31   H31   S    
C29   H25   S    
C18   C20   A    
C1    O1    A    
C16   H1    S    
C26   H15   S    
C27   H18   S    
C30   H28   S    
C14   H4    S    
Cu1   O8    S    
C32   H33   S    
Cu2   O7    S    
C25   H12   S    
N3    C25   S    
C21   C23   A    
C9    O7    A    
C27   H19   S    
C10   O8    A    
N4    H13   S    
C31   H29   S    
Cu1   O5    S    
C5    C7    A    
Cu2   O2    S    
C6    C8    A    
Cu1   Cu2   S    
N3    H9    S    
C6    H8    S    
N4    C26   S    
C11   C16   A    
C2    O2    A    
C25   H10   S    
C12   C15   A    
C28   H24   S    
C29   C30   S    
C33   H34   S    
Cu1   N1    S    
Cu2   N2    S    
C24   N6    S    
C13   C15   A    
C30   C31   S    
C14   C16   A    
C18   N3    S    
C32   C33   S    
Cu2   O6    S    
C26   H16   S    
C23   N5    S    
C27   H20   S    
C13   C20   A    
C7    N1    A    
C14   C19   A    
C31   H30   S    
O10   C32   S    
C7    O9    S    
C9    O5    A    
C1    C4    S    
C34   H37   S    
C2    C3    S    
C4    C21   A    
N5    H17   S    
C17   C19   A    
C22   C24   A    
O9    C29   S    
C9    C12   S    
C10   C11   S    
C1    O3    A    
N6    H21   S    
C2    O4    A    
C28   H22   S    
C34   H38   S    
C8    O10   S    
C3    C22   A    
C29   H26   S    
