data_mof_unit_49007.cif
_audit_creation_date              2012-12-11T16:26:34-0500
_audit_creation_method            fapswitch 2.2
_symmetry_space_group_name_H-M    P1
_symmetry_Int_Tables_number       1
_space_group_crystal_system       triclinic
_cell_length_a                    6.934886
_cell_length_b                    17.705069
_cell_length_c                    19.352764
_cell_angle_alpha                 108.606477
_cell_angle_beta                  89.122784
_cell_angle_gamma                 91.032031
_cell_volume                      2251.50585891

loop_
_atom_site_label
_atom_site_type_symbol
_atom_type_description
_atom_site_fract_x
_atom_site_fract_y
_atom_site_fract_z
_atom_type_partial_charge
O1    O     O_R   0.494330 0.415720 0.413720 -0.537045
O2    O     O_R   0.819330 0.430070 0.560210 -0.546590
O3    O     O_R   0.994320 0.584280 0.586280 -0.535566
C1    C     C_R   0.649020 0.415450 0.582093 0.704608
O4    O     O_R   0.823730 0.406300 0.412670 -0.537577
O5    O     O_R   0.998760 0.560340 0.437690 -0.542602
C2    C     C_R   0.654925 0.383398 0.385069 0.694802
O6    O     O_R   0.489890 0.439660 0.562310 -0.541848
O7    O     O_3   0.662340 0.550560 0.508380 -0.368330
V1    V     V_3+5 0.935370 0.490620 0.498450 1.416933
O8    O     O_R   0.328750 0.569930 0.439790 -0.544297
C3    C     C_R   0.161382 0.585249 0.418313 0.701306
O9    O     O_R   0.324340 0.593700 0.587330 -0.540111
C4    C     C_R   0.155451 0.615830 0.615415 0.691464
V2    V     V_3+5 0.435940 0.509380 0.501550 1.417072
O10   O     O_3   0.159100 0.449440 0.491620 -0.369136
H1    H     H_    0.414803 0.852349 0.569166 0.154173
C5    C     C_R   0.011348 0.597034 0.749886 -0.226995
C6    C     C_R   0.942129 0.585555 0.813762 -0.158923
C7    C     C_R   0.932455 0.649484 0.877921 0.454602
C8    C     C_R   0.991305 0.725341 0.878357 -0.197034
C9    C     C_R   0.059485 0.739295 0.813930 -0.001612
C10   C     C_R   0.070582 0.673576 0.748504 0.082543
C11   C     C_R   0.119776 0.816766 0.814589 -0.154108
C12   C     C_R   0.193972 0.828450 0.749054 -0.017464
C13   C     C_R   0.210216 0.761116 0.684347 0.030304
C14   C     C_R   0.145458 0.684555 0.683845 -0.138704
C15   C     C_R   0.250862 0.904832 0.744035 0.360235
C16   C     C_R   0.335274 0.911590 0.680265 -0.065030
C17   C     C_R   0.353527 0.845767 0.618765 -0.194140
C18   C     C_R   0.287601 0.771916 0.619892 -0.148554
H2    H     H_    0.019820 0.544870 0.701987 0.126250
H3    H     H_    0.897725 0.526456 0.813369 0.150347
H4    H     H_    0.984192 0.772593 0.930027 0.126922
H5    H     H_    0.382600 0.969154 0.677465 0.206012
H6    H     H_    0.298373 0.723646 0.569089 0.126874
C19   C     C_R   0.306506 0.634858 0.320601 -0.220267
C20   C     C_R   0.154480 0.635403 0.369767 -0.088221
C21   C     C_R   0.993435 0.683252 0.371596 -0.190754
C22   C     C_R   0.984127 0.730568 0.325641 0.030895
C23   C     C_R   0.134711 0.728589 0.275469 0.099466
C24   C     C_R   0.296388 0.680157 0.272796 0.117682
C25   C     C_R   0.827231 0.780454 0.329786 -0.249913
C26   C     C_R   0.816686 0.828237 0.284595 0.444382
C27   C     C_R   0.963580 0.825015 0.231711 -0.113632
C28   C     C_R   0.124050 0.775085 0.228071 -0.065740
C29   C     C_R   0.275496 0.771863 0.177519 0.155959
C30   C     C_R   0.434162 0.722738 0.174777 -0.071829
C31   C     C_R   0.444901 0.677629 0.222150 -0.188620
C32   C     C_R   0.956966 0.869995 0.182795 0.626042
C33   C     C_R   0.108595 0.866749 0.132431 -0.213020
C34   C     C_R   0.267425 0.818112 0.130807 -0.211152
H7    H     H_    0.430746 0.597813 0.318433 0.122970
H8    H     H_    0.876282 0.684614 0.409721 0.130361
H9    H     H_    0.712355 0.783039 0.369089 0.165673
H10   H     H_    0.384461 0.815538 0.092341 0.170360
H11   H     H_    0.551557 0.719929 0.136455 0.154306
H12   H     H_    0.569948 0.640867 0.219276 0.129707
C35   C     C_R   0.472705 0.188728 0.871028 -0.115446
C36   C     C_R   0.625376 0.137181 0.870745 -0.103726
C37   C     C_R   0.781979 0.132788 0.822572 -0.157380
C38   C     C_R   0.786386 0.177851 0.774096 -0.001369
C39   C     C_R   0.631811 0.229503 0.775371 0.007015
C40   C     C_R   0.475299 0.235106 0.824141 0.148208
C41   C     C_R   0.939392 0.172395 0.723545 0.400870
C42   C     C_R   0.940347 0.218766 0.677277 -0.224881
C43   C     C_R   0.788862 0.270014 0.678684 0.023088
C44   C     C_R   0.632630 0.275144 0.727197 0.064012
C45   C     C_R   0.477206 0.325691 0.727310 0.116435
C46   C     C_R   0.322909 0.330858 0.776292 -0.172808
C47   C     C_R   0.322312 0.286222 0.824426 -0.129637
C48   C     C_R   0.791519 0.315762 0.631686 -0.191093
C49   C     C_R   0.638061 0.366134 0.631111 -0.086813
C50   C     C_R   0.479789 0.370328 0.678673 -0.210665
H13   H     H_    0.351069 0.192755 0.907844 0.130292
H14   H     H_    0.897661 0.092880 0.822152 0.227210
H15   H     H_    0.059986 0.214140 0.639457 0.166965
H16   H     H_    0.913323 0.311531 0.594874 0.130774
H17   H     H_    0.361090 0.409457 0.678940 0.122463
H18   H     H_    0.202237 0.369240 0.777234 0.127882
H19   H     H_    0.200678 0.290915 0.861315 0.121586
H20   H     H_    0.344690 0.152341 0.431172 0.135334
C51   C     C_R   0.804624 0.395883 0.248559 -0.150910
C52   C     C_R   0.876738 0.404114 0.183723 -0.115704
C53   C     C_R   0.864566 0.340757 0.119211 -0.110575
C54   C     C_R   0.780265 0.268667 0.119036 -0.141967
C55   C     C_R   0.707592 0.258122 0.184173 0.069179
C56   C     C_R   0.719960 0.323111 0.250345 0.070100
C57   C     C_R   0.620031 0.184945 0.183840 -0.177225
C58   C     C_R   0.544700 0.176838 0.249751 0.048607
C59   C     C_R   0.557028 0.241837 0.315924 0.067165
C60   C     C_R   0.644619 0.315021 0.316264 -0.178626
C61   C     C_R   0.459998 0.104063 0.251520 -0.090363
C62   C     C_R   0.387597 0.095870 0.316329 -0.043066
C63   C     C_R   0.399810 0.159216 0.380846 -0.117046
C64   C     C_R   0.484263 0.231293 0.381046 -0.140487
H21   H     H_    0.814937 0.447468 0.296926 0.110108
H22   H     H_    0.941205 0.460196 0.183495 0.126245
H23   H     H_    0.919530 0.347642 0.068867 0.121758
H24   H     H_    0.771411 0.221774 0.067139 0.095229
H25   H     H_    0.449770 0.052466 0.203156 0.142384
H26   H     H_    0.322825 0.039836 0.316533 0.166445
H27   H     H_    0.493084 0.278195 0.432940 0.110470
O11   O     O_R   0.775200 0.060470 0.937800 -0.541543
O12   O     O_R   0.441110 0.093720 0.087350 -0.552380
O13   O     O_R   0.266330 0.939630 0.062280 -0.550928
C65   C     C_R   0.609838 0.116593 0.115039 0.692625
O14   O     O_R   0.445750 0.069950 0.939820 -0.511493
O15   O     O_R   0.271000 0.915700 0.913700 -0.521363
C66   C     C_R   0.615831 0.086059 0.918870 0.735431
O16   O     O_R   0.770530 0.084400 0.086380 -0.533538
O17   O     O_3   0.602830 0.949510 0.991680 -0.366719
V3    V     V_3+5 0.329710 0.009370 0.001550 1.514522
O18   O     O_R   0.940990 0.906170 0.912570 -0.541185
C67   C     C_R   0.110039 0.883579 0.884614 0.784601
O19   O     O_R   0.936350 0.929940 0.060100 -0.508294
C68   C     C_R   0.103428 0.915306 0.082239 0.748995
V4    V     V_3+5 0.829160 0.990450 0.998310 1.543949
O20   O     O_3   0.105910 0.050480 0.008320 -0.368197
Cl1   Cl    Cl    0.617355 0.892245 0.299366 -0.606090
F1    F     F_    0.806255 0.918384 0.184291 -0.650606
Cl2   Cl    Cl    0.132678 0.107319 0.713374 -0.648208
Cl3   Cl    Cl    0.848158 0.634595 0.958665 -0.673711
Cl4   Cl    Cl    0.207064 0.996831 0.810733 -0.649345

loop_
_geom_bond_atom_site_label_1
_geom_bond_atom_site_label_2
_ccdc_geom_bond_type
O11   C66   A    
C55   C56   A    
C61   C62   A    
C23   C24   A    
C63   C64   A    
C1    O6    A    
O18   C67   A    
C30   H11   S    
C53   C54   A    
C12   C15   A    
O12   C65   A    
C35   C40   A    
C38   C39   A    
O16   V4    S    
O12   V3    S    
C15   C16   A    
C19   C20   A    
C5    C6    A    
C45   C46   A    
C18   H6    S    
O5    C3    A    
C17   C18   A    
C21   H8    S    
C26   Cl1   S    
V2    O10   S    
O19   C68   A    
C43   C48   A    
C49   C50   A    
C40   C47   A    
C19   C24   A    
V4    O20   S    
C7    Cl3   S    
C48   H16   S    
C59   C64   A    
V3    O20   S    
O8    V2    S    
C22   C25   A    
C29   C30   A    
O19   V4    S    
C44   C45   A    
C23   C28   A    
C46   C47   A    
O1    V2    S    
C10   C14   A    
C4    C14   S    
C54   H24   S    
O7    V1    S    
O15   V3    S    
C19   H7    S    
C42   C43   A    
C13   C18   A    
O9    C4    A    
H1    C17   S    
C62   C63   A    
C32   F1    S    
O17   V3    S    
O11   V4    S    
C37   H14   S    
O13   V3    S    
C46   H18   S    
C5    C10   A    
C56   C60   A    
C52   C53   A    
C6    H3    S    
C61   H25   S    
C59   C60   A    
O4    C2    A    
C54   C55   A    
C8    H4    S    
C12   C13   A    
C27   C28   A    
C31   H12   S    
C43   C44   A    
C36   C37   A    
O14   V3    S    
O2    C1    A    
C25   C26   A    
C35   C36   A    
C16   C17   A    
C53   H23   S    
C51   C52   A    
C57   C65   S    
C32   C33   A    
C13   C14   A    
C45   C50   A    
C41   Cl2   S    
C11   C12   A    
C1    C49   S    
O18   V4    S    
O3    C4    A    
C25   H9    S    
C22   C23   A    
O6    V2    S    
C50   H17   S    
O9    V2    S    
O13   C68   A    
C9    C11   A    
C5    H2    S    
O2    V1    S    
C35   H13   S    
C21   C22   A    
C26   C27   A    
C58   C61   A    
C42   H15   S    
C16   H5    S    
C28   C29   A    
C30   C31   A    
H20   C63   S    
C38   C41   A    
O1    C2    A    
C65   O16   A    
C48   C49   A    
O5    V1    S    
O8    C3    A    
C15   Cl4   S    
C29   C34   A    
C39   C44   A    
C52   H22   S    
C6    C7    A    
C55   C57   A    
O7    V2    S    
C33   C34   A    
O3    V1    S    
V1    O10   S    
O17   V4    S    
C58   C59   A    
C20   C21   A    
C27   C32   A    
C2    C60   S    
C33   C68   S    
O14   C66   A    
C51   C56   A    
C3    C20   S    
C37   C38   A    
C36   C66   S    
O15   C67   A    
C24   C31   A    
C39   C40   A    
O4    V1    S    
C7    C8    A    
C62   H26   S    
C11   C67   S    
C41   C42   A    
C51   H21   S    
C64   H27   S    
C9    C10   A    
C57   C58   A    
C8    C9    A    
C34   H10   S    
C47   H19   S    
