data_mof_unit_22438.cif
_audit_creation_date              2012-12-11T14:36:05-0500
_audit_creation_method            fapswitch 2.2
_symmetry_space_group_name_H-M    P1
_symmetry_Int_Tables_number       1
_space_group_crystal_system       triclinic
_cell_length_a                    13.533377
_cell_length_b                    13.563525
_cell_length_c                    27.488057
_cell_angle_alpha                 90.829029
_cell_angle_beta                  90.008243
_cell_angle_gamma                 60.206684
_cell_volume                      4378.18777934

loop_
_atom_site_label
_atom_site_type_symbol
_atom_type_description
_atom_site_fract_x
_atom_site_fract_y
_atom_site_fract_z
_atom_type_partial_charge
C1    C     C_R   0.618620 0.099456 0.571201 0.556142
C2    C     C_1   0.636665 0.722650 0.613793 0.016315
C3    C     C_3   0.703885 0.547601 0.765327 0.085451
C4    C     C_3   0.702166 0.634119 0.803326 0.010150
C5    C     C_3   0.600312 0.643893 0.740194 0.138295
C6    C     C_3   0.680783 0.662205 0.706474 -0.009612
C7    C     C_3   0.599582 0.730429 0.777163 0.131679
C8    C     C_3   0.681184 0.748029 0.743966 0.143226
C9    C     C_1   0.703816 0.619108 0.856175 -0.038242
C10   C     C_1   0.660566 0.688427 0.654657 -0.018074
C11   C     C_3   0.075792 0.146265 0.734240 0.071941
C12   C     C_R   0.600361 0.778139 0.568066 0.552817
C13   C     C_3   0.165638 0.070781 0.771325 0.100392
C14   C     C_1   0.090501 0.203747 0.900487 0.001153
C15   C     C_1   0.222905 0.143777 0.615809 0.038818
C16   C     C_3   0.041296 0.251993 0.767946 -0.121648
C17   C     C_3   0.133120 0.174080 0.804843 0.023095
C18   C     C_3   0.132552 0.272253 0.742631 -0.151001
C19   C     C_3   0.164701 0.167831 0.709561 -0.008247
C20   C     C_3   0.223256 0.194683 0.779796 -0.143516
C21   C     C_3   0.254345 0.090992 0.746165 0.103199
C22   C     C_1   0.113888 0.185387 0.857725 -0.022281
C23   C     C_R   0.276600 0.122739 0.569106 0.543871
C24   C     C_1   0.190218 0.158309 0.657339 0.005655
C25   C     C_3   0.659739 0.244097 0.741952 -0.084634
C26   C     C_3   0.558517 0.277927 0.777864 -0.148461
C27   C     C_1   0.683256 0.205934 0.905785 0.007123
C28   C     C_1   0.628897 0.126102 0.621239 0.009492
C29   C     C_3   0.738140 0.151191 0.777453 0.120479
C30   C     C_3   0.639576 0.184852 0.813071 0.047081
C31   C     C_3   0.716289 0.061808 0.752645 -0.033592
C32   C     C_3   0.634501 0.155795 0.717686 0.003708
C33   C     C_3   0.615363 0.098462 0.788022 0.150138
C34   C     C_R   0.623276 0.101432 0.432208 0.558987
C35   C     C_3   0.532334 0.189755 0.752643 -0.066209
C36   C     C_1   0.657785 0.195717 0.864869 -0.022888
C37   C     C_1   0.632500 0.141267 0.664529 -0.040198
C38   C     C_R   0.743521 0.699059 0.362397 0.070570
C39   C     C_R   0.752183 0.686469 0.311423 -0.004205
C40   C     C_R   0.760186 0.675449 0.208027 0.017343
C41   C     C_R   0.839094 0.695109 0.234727 0.094737
C42   C     C_R   0.835376 0.697634 0.285606 -0.118934
C43   C     C_R   0.765054 0.659981 0.156316 0.047782
C44   C     C_R   0.684253 0.638028 0.133273 -0.022346
C45   C     C_R   0.604497 0.772035 0.431524 0.578153
C46   C     C_R   0.584251 0.662326 0.362528 0.007369
C47   C     C_R   0.588190 0.655510 0.311347 -0.023159
C48   C     C_R   0.671020 0.670612 0.285757 0.019540
C49   C     C_R   0.509023 0.638393 0.284904 -0.101102
C50   C     C_R   0.506449 0.643785 0.234760 -0.116101
C51   C     C_R   0.588569 0.656740 0.209538 0.004725
C52   C     C_R   0.673762 0.667389 0.234422 0.024417
C53   C     C_R   0.590369 0.650218 0.159504 -0.137585
C54   C     C_R   0.650036 0.702042 0.386608 0.025920
C55   C     C_R   0.218974 0.048147 0.357612 0.088803
C56   C     C_R   0.279150 0.119238 0.430710 0.561436
C57   C     C_R   0.173575 0.067677 0.309985 0.011112
C58   C     C_R   0.139596 0.094054 0.208345 -0.031761
C59   C     C_R   0.158440 0.993881 0.230819 -0.128337
C60   C     C_R   0.168993 0.982198 0.281218 0.048117
C61   C     C_R   0.127332 0.106926 0.157362 0.051821
C62   C     C_R   0.098820 0.213217 0.137064 -0.020942
C63   C     C_R   0.165116 0.248259 0.365692 -0.136609
C64   C     C_R   0.135676 0.264250 0.316976 0.016190
C65   C     C_R   0.144056 0.172847 0.288419 0.027256
C66   C     C_R   0.105834 0.368451 0.295725 -0.107223
C67   C     C_3   0.785840 0.565078 0.731572 0.040490
C68   C     C_R   0.091999 0.380194 0.245737 -0.113964
C69   C     C_R   0.105815 0.288521 0.216647 0.008738
C70   C     C_R   0.128464 0.185413 0.237822 0.038850
C71   C     C_R   0.094010 0.300338 0.166729 -0.145832
C72   C     C_R   0.215373 0.139444 0.385089 0.029945
C73   C     C_R   0.567884 0.249382 0.366514 0.047771
C74   C     C_R   0.576380 0.267054 0.316390 -0.003150
C75   C     C_R   0.588736 0.291383 0.214957 0.016479
C76   C     C_R   0.503565 0.379497 0.242930 -0.133509
C77   C     C_R   0.497799 0.368120 0.293061 -0.106989
C78   C     C_3   0.783816 0.651606 0.769589 0.074439
C79   C     C_R   0.598001 0.303650 0.164899 -0.131426
C80   C     C_R   0.686226 0.215224 0.137846 -0.003909
C81   C     C_R   0.741563 0.064426 0.359591 -0.134843
C82   C     C_R   0.749345 0.080068 0.310492 0.013461
C83   C     C_R   0.665072 0.179665 0.288337 0.040543
C84   C     C_R   0.837853 0.994251 0.282806 -0.105349
C85   C     C_R   0.841972 0.005635 0.232955 -0.126484
C86   C     C_R   0.756829 0.102045 0.210252 0.011952
C87   C     C_R   0.669809 0.191050 0.237838 0.066848
C88   C     C_R   0.760736 0.112482 0.160455 -0.106056
C89   C     C_1   0.704220 0.599742 0.898867 -0.002244
C90   C     C_R   0.647220 0.143049 0.386933 -0.019499
C91   C     C_R   0.047699 0.236971 0.949345 0.547785
C92   C     C_R   0.712771 0.561315 0.947846 0.551488
C93   C     C_R   0.721158 0.225109 0.951662 0.544572
C94   C     C_R   0.047526 0.245540 0.088598 0.558581
C95   C     C_R   0.707426 0.575868 0.086349 0.560255
C96   C     C_R   0.719594 0.234737 0.089859 0.544272
Cr1   Cr    Cr6+3 0.417550 0.169090 0.500530 1.087085
Cr2   Cr    Cr6+3 0.669180 0.913420 0.499920 1.063216
Cr3   Cr    Cr6+3 0.413260 0.917540 0.499520 1.091841
Cr4   Cr    Cr6+3 0.909170 0.177380 0.020380 1.079527
Cr5   Cr    Cr6+3 0.912710 0.429210 0.018220 1.076225
Cr6   Cr    Cr6+3 0.657170 0.432570 0.019030 1.039231
H1    H     H_    0.284864 0.213127 0.798762 0.125755
H2    H     H_    0.124700 0.353496 0.730994 0.183356
H3    H     H_    0.954405 0.319200 0.778336 0.119561
H4    H     H_    0.494136 0.366064 0.788723 0.135341
H5    H     H_    0.674511 0.302993 0.719818 0.184355
H6    H     H_    0.446453 0.206261 0.741951 0.148189
H7    H     H_    0.785602 0.975285 0.742921 0.129112
H8    H     H_    0.896994 0.711984 0.304758 0.098952
H9    H     H_    0.524716 0.639590 0.141609 0.151595
H10   H     H_    0.441881 0.634034 0.215473 0.125469
H11   H     H_    0.446182 0.623660 0.302149 0.192653
H12   H     H_    0.160924 0.924876 0.209678 0.181087
H13   H     H_    0.073395 0.381301 0.151390 0.194871
H14   H     H_    0.071967 0.460546 0.229732 0.157522
H15   H     H_    0.097909 0.439373 0.317486 0.121296
H16   H     H_    0.160705 0.318311 0.387008 0.150740
H17   H     H_    0.540950 0.383528 0.147747 0.127578
H18   H     H_    0.441112 0.457332 0.226026 0.116639
H19   H     H_    0.430957 0.439235 0.313013 0.168143
H20   H     H_    0.828583 0.042800 0.139945 0.173559
H21   H     H_    0.912443 0.939757 0.212189 0.134565
H22   H     H_    0.902682 0.917399 0.299551 0.133368
H23   H     H_    0.804768 0.985179 0.375421 0.143734
O1    O     O_R   0.301710 0.195650 0.554160 -0.508006
O2    O     O_R   0.658900 0.818120 0.449760 -0.467239
O3    O     O_R   0.503220 0.801620 0.445520 -0.478871
O4    O     O_R   0.319370 0.022040 0.450020 -0.466706
O5    O     O_3   0.499990 0.000010 0.499990 -0.283190
O6    O     O_R   0.818720 0.150820 0.967160 -0.498157
O7    O     O_R   0.006410 0.181720 0.970200 -0.484405
O8    O     O_R   0.027890 0.334070 0.964920 -0.507764
O9    O     O_R   0.809600 0.521790 0.967960 -0.492750
O10   O     O_R   0.635520 0.542770 0.964420 -0.499924
O11   O     O_R   0.665950 0.325030 0.970100 -0.498847
O12   O     O_R   0.522390 0.158990 0.550460 -0.482546
O13   O     O_R   0.816620 0.158530 0.074540 -0.501435
O14   O     O_R   0.004460 0.188870 0.069750 -0.467362
O15   O     O_R   0.025800 0.341780 0.072300 -0.500584
O16   O     O_R   0.807650 0.528950 0.067500 -0.469647
O17   O     O_R   0.633420 0.550490 0.071810 -0.521324
O18   O     O_R   0.664000 0.332180 0.069640 -0.504809
O19   O     O_3   0.826350 0.346390 0.019210 -0.272894
O20   O     O_R   0.694390 0.003530 0.554040 -0.500433
O21   O     O_R   0.657700 0.819660 0.549320 -0.499168
O22   O     O_R   0.501930 0.803280 0.552920 -0.484238
O23   O     O_R   0.318170 0.023580 0.549580 -0.485530
O24   O     O_R   0.303010 0.193990 0.446760 -0.509098
O25   O     O_R   0.523600 0.157450 0.450900 -0.463972
O26   O     O_R   0.695690 0.001860 0.446640 -0.518502
N1    N     N_3   0.882424 0.657575 0.786971 -0.599418
H24   H     H_    0.921878 0.669997 0.756889 0.259622
H25   H     H_    0.939789 0.577843 0.800706 0.235884
N2    N     N_3   0.591298 0.020432 0.814422 -0.531565
H26   H     H_    0.521900 0.069060 0.837507 0.221648
H27   H     H_    0.661253 0.971561 0.836509 0.235603
N3    N     N_3   0.849456 0.127415 0.794780 -0.618798
H28   H     H_    0.857562 0.198972 0.789341 0.245903
H29   H     H_    0.911375 0.059972 0.774044 0.245625
C97   C     C_2   0.852767 0.663859 0.125430 0.613038
O27   O     O_2   0.952935 0.591258 0.129151 -0.506636
O28   O     O_R   0.819253 0.747867 0.090338 -0.697723
H30   H     H_    0.886057 0.741175 0.070916 0.336647
C98   C     C_2   0.883271 0.485547 0.699663 0.551326
O29   O     O_2   0.960209 0.505522 0.691448 -0.552579
O30   O     O_R   0.879417 0.396825 0.675164 -0.652863
H31   H     H_    0.947468 0.352390 0.652791 0.352282
N4    N     N_3   0.826351 0.712820 0.389920 -0.593887
H32   H     H_    0.907014 0.642742 0.383171 0.222392
H33   H     H_    0.825123 0.787012 0.379134 0.229531
N5    N     N_3   0.920827 0.716517 0.210826 -0.586422
H34   H     H_    0.975630 0.723464 0.235691 0.225732
H35   H     H_    0.875230 0.795229 0.194148 0.236408
C99   C     C_2   0.515299 0.626314 0.391794 0.591472
O31   O     O_2   0.561371 0.557694 0.424183 -0.458276
O32   O     O_R   0.398249 0.674169 0.384422 -0.712499
H36   H     H_    0.361928 0.642876 0.407166 0.351762
C100  C     C_2   0.143620 0.010871 0.125255 0.580946
O33   O     O_2   0.217886 0.974527 0.093832 -0.507395
O34   O     O_R   0.071226 0.965486 0.129719 -0.719352
H37   H     H_    0.089830 0.901698 0.105348 0.338120
N6    N     N_3   0.288886 0.934111 0.374372 -0.560443
H38   H     H_    0.342072 0.881287 0.346425 0.256073
H39   H     H_    0.238432 0.903508 0.388946 0.298268
N7    N     N_3   0.678412 0.852678 0.730523 -0.523173
H40   H     H_    0.759762 0.829527 0.717623 0.213548
H41   H     H_    0.626695 0.884683 0.700075 0.245620
C101  C     C_2   0.161672 0.886103 0.302352 0.557008
O35   O     O_2   0.215519 0.790967 0.284057 -0.542291
O36   O     O_R   0.088083 0.905904 0.341610 -0.715191
H42   H     H_    0.089181 0.834233 0.352450 0.331214
C102  C     C_2   0.475456 0.339308 0.396923 0.591194
O37   O     O_2   0.499203 0.373896 0.433944 -0.464938
O38   O     O_R   0.361605 0.381399 0.384093 -0.716476
H43   H     H_    0.306707 0.441337 0.407957 0.331569
N8    N     N_3   0.498361 0.819121 0.801693 -0.545885
H44   H     H_    0.460791 0.779571 0.820466 0.227676
H45   H     H_    0.525267 0.857087 0.827863 0.260635
N9    N     N_3   0.502356 0.634520 0.724670 -0.574890
H46   H     H_    0.466155 0.621642 0.755794 0.240801
H47   H     H_    0.442134 0.712732 0.710820 0.271993
N10   N     N_3   0.714140 0.439046 0.777559 -0.620724
H48   H     H_    0.768742 0.380559 0.751659 0.273333
H49   H     H_    0.756429 0.413676 0.810736 0.217095
N11   N     N_3   0.186988 0.960601 0.788137 -0.600323
H50   H     H_    0.206967 0.906940 0.757665 0.275807
H51   H     H_    0.110671 0.971653 0.802545 0.235524
C103  C     C_2   0.005259 0.112890 0.703493 0.552254
O39   O     O_2   0.048765 0.017154 0.685705 -0.508972
O40   O     O_R   0.892050 0.191703 0.693756 -0.700516
H52   H     H_    0.855013 0.159391 0.671512 0.344171
C104  C     C_2   0.369100 0.004761 0.728997 0.604533
O41   O     O_2   0.451132 0.011760 0.742147 -0.507623
O42   O     O_R   0.380572 0.921453 0.695502 -0.695741
H53   H     H_    0.461299 0.873710 0.683141 0.324383

loop_
_geom_bond_atom_site_label_1
_geom_bond_atom_site_label_2
_ccdc_geom_bond_type
C66   C68   A    
Cr3   O23   S    
C8    C78   S    
C40   C41   A    
C98   O29   D    
C73   C102  S    
N2    H27   S    
C3    N10   S    
C41   C42   A    
C49   H11   S    
O28   H30   S    
C74   C83   A    
O42   H53   S    
C93   O11   A    
C2    C12   S    
C26   H4    S    
C97   O27   D    
C34   O25   A    
Cr4   O6    S    
C78   N1    S    
C7    C8    S    
C99   O32   S    
C20   H1    S    
C104  O41   D    
N10   H49   S    
C61   C100  S    
C11   C19   S    
C76   H18   S    
C13   C17   S    
C49   C50   A    
C12   O22   A    
C19   C21   S    
C45   O2    A    
Cr1   O5    S    
N6    H39   S    
C96   O13   A    
C5    C6    S    
Cr5   O19   S    
C86   C88   A    
C16   C17   S    
C61   C62   A    
C45   O3    A    
C65   C70   A    
C17   C20   S    
C94   O15   A    
N8    H45   S    
C18   C19   S    
C73   C74   A    
C12   O21   A    
C69   C71   A    
Cr6   O10   S    
C35   H6    S    
C33   C35   S    
C1    O20   A    
C44   C53   A    
C40   C43   A    
C47   C48   A    
N9    H46   S    
C56   C72   S    
C66   H15   S    
C79   H17   S    
C1    C28   S    
Cr1   O25   S    
C31   C33   S    
C39   C42   A    
C55   C72   A    
C30   C33   S    
C53   H9    S    
C58   C61   A    
C15   C23   S    
N7    H40   S    
C59   C60   A    
C98   O30   S    
N3    H29   S    
C94   O14   A    
N4    H33   S    
C46   C54   A    
N8    H44   S    
C67   C78   S    
Cr6   O19   S    
C4    C7    S    
C33   N2    S    
Cr1   O12   S    
C97   O28   S    
Cr5   O15   S    
N5    H35   S    
C58   C70   A    
C60   C101  S    
C5    N9    S    
Cr2   O26   S    
C104  O42   S    
C25   C29   S    
C41   N5    S    
C3    C67   S    
Cr3   O4    S    
C71   H13   S    
C51   C52   A    
Cr5   O9    S    
C32   C35   S    
C76   C77   A    
C88   H20   S    
Cr4   O19   S    
C9    C89   T    
O30   H31   S    
C5    C7    S    
C63   H16   S    
N11   H50   S    
C68   C69   A    
C57   C60   A    
C6    C8    S    
C91   O7    A    
Cr2   O21   S    
C102  O38   S    
C25   C26   S    
O34   H37   S    
C74   C77   A    
C81   C82   A    
O38   H43   S    
C51   C53   A    
C64   C66   A    
C7    N8    S    
C75   C76   A    
C34   C90   S    
N6    H38   S    
C4    C78   S    
C29   C30   S    
Cr4   O14   S    
C11   C16   S    
O40   H52   S    
C38   C54   A    
C29   C31   S    
Cr2   O5    S    
C50   H10   S    
C103  O39   D    
C31   H7    S    
C13   C21   S    
C50   C51   A    
N4    H32   S    
C18   H2    S    
C32   C37   S    
C84   C85   A    
C89   C92   S    
C85   C86   A    
C29   N3    S    
C100  O33   D    
Cr4   O13   S    
C16   H3    S    
C68   H14   S    
C23   O1    A    
C81   C90   A    
C43   C97   S    
C75   C87   A    
Cr2   O2    S    
N1    H25   S    
C45   C54   S    
C82   C83   A    
C82   C84   A    
C62   C94   S    
C43   C44   A    
N3    H28   S    
C91   O8    A    
C21   C104  S    
C79   C80   A    
C27   C93   S    
C92   O10   A    
C80   C96   S    
Cr6   O18   S    
N7    H41   S    
C3    C4    S    
C2    C10   T    
C6    C67   S    
C1    O12   A    
N5    H34   S    
C25   H5    S    
C38   N4    S    
C101  O35   D    
C56   O24   A    
Cr3   O22   S    
C46   C47   A    
C15   C24   T    
C55   N6    S    
Cr3   O5    S    
C81   H23   S    
C20   C21   S    
C86   C87   A    
Cr5   O16   S    
C31   C32   S    
C92   O9    A    
C56   O4    A    
C57   C65   A    
Cr1   O1    S    
C3    C5    S    
C16   C18   S    
C83   C87   A    
C6    C10   S    
C34   O26   A    
Cr4   O7    S    
C95   O16   A    
Cr3   O3    S    
Cr2   O20   S    
Cr5   O8    S    
C27   C36   T    
C84   H22   S    
C23   O23   A    
C17   C22   S    
C30   C36   S    
C8    N7    S    
C64   C65   A    
C14   C22   T    
C55   C57   A    
C19   C24   S    
C58   C59   A    
C80   C88   A    
C99   O31   D    
C40   C52   A    
C47   C49   A    
C11   C103  S    
C96   O18   A    
C11   C13   S    
C67   C98   S    
C38   C39   A    
C28   C37   T    
C25   C32   S    
C59   H12   S    
C103  O40   S    
C62   C71   A    
C85   H21   S    
C18   C20   S    
C42   H8    S    
C69   C70   A    
O36   H42   S    
Cr6   O11   S    
C14   C91   S    
C77   H19   S    
O32   H36   S    
C63   C64   A    
C46   C99   S    
C26   C35   S    
C48   C52   A    
C63   C72   A    
C73   C90   A    
C95   O17   A    
N9    H47   S    
C102  O37   D    
N2    H26   S    
C44   C95   S    
Cr1   O24   S    
C13   N11   S    
N1    H24   S    
Cr6   O17   S    
N10   H48   S    
C101  O36   S    
C4    C9    S    
C93   O6    A    
N11   H51   S    
C75   C79   A    
C39   C48   A    
C100  O34   S    
C26   C30   S    
