data_mof_unit_22739.cif
_audit_creation_date              2012-12-10T17:31:52-0500
_audit_creation_method            fapswitch 2.2
_symmetry_space_group_name_H-M    P1
_symmetry_Int_Tables_number       1
_space_group_crystal_system       triclinic
_cell_length_a                    12.039141
_cell_length_b                    11.544867
_cell_length_c                    12.83433
_cell_angle_alpha                 90.584593
_cell_angle_beta                  93.405145
_cell_angle_gamma                 85.937667
_cell_volume                      1776.19168358

loop_
_atom_site_label
_atom_site_type_symbol
_atom_type_description
_atom_site_fract_x
_atom_site_fract_y
_atom_site_fract_z
_atom_type_partial_charge
C1    C     C_R   0.477779 0.503129 0.299967 0.876361
C2    C     C_R   0.974297 0.547564 0.526061 0.066688
C3    C     C_R   0.500111 0.281944 0.499759 0.886994
C4    C     C_R   0.499886 0.718056 0.500234 0.877417
C5    C     C_1   0.500363 0.161474 0.499805 -0.179719
C6    C     C_1   0.499632 0.838524 0.500222 -0.176737
C7    C     C_1   0.500195 0.059315 0.499933 0.019567
C8    C     C_1   0.499796 0.940682 0.500115 0.021734
C9    C     C_R   0.536509 0.489118 0.811057 -0.177314
C10   C     C_R   0.463408 0.514504 0.189007 -0.198515
C11   C     C_R   0.398239 0.626440 0.037151 0.467495
C12   C     C_R   0.522148 0.498349 0.700016 0.889028
C13   C     C_R   0.605750 0.383257 0.964233 0.465505
C14   C     C_R   0.405477 0.613708 0.145189 -0.066156
C15   C     C_R   0.594462 0.390485 0.855530 -0.012325
C16   C     C_R   0.515920 0.429622 0.127272 0.092978
C17   C     C_R   0.486027 0.576512 0.871957 0.072682
C18   C     C_R   0.531819 0.454869 0.023397 -0.080695
C19   C     C_R   0.470666 0.553681 0.976747 -0.087255
C20   C     C_R   0.041613 0.628665 0.574223 -0.320920
C21   C     C_R   0.958324 0.371569 0.425333 -0.324629
C22   C     C_R   0.158467 0.614362 0.569894 0.285525
C23   C     C_R   0.841443 0.386059 0.429421 0.295666
C24   C     C_R   0.143406 0.440682 0.471486 -0.060212
C25   C     C_R   0.856615 0.559172 0.528679 -0.043378
C26   C     C_R   0.025693 0.452385 0.473913 0.066782
H1    H     H_    0.816458 0.631355 0.569874 0.140257
H2    H     H_    0.578150 0.273989 0.737669 0.157178
H3    H     H_    0.416341 0.732317 0.262896 0.185749
H4    H     H_    0.292943 0.668477 0.250494 0.225427
H5    H     H_    0.152507 0.667239 0.070331 0.356853
H6    H     H_    0.894328 0.257204 0.977057 0.392172
H7    H     H_    0.795017 0.291627 0.303611 0.225894
H8    H     H_    0.795916 0.221934 0.418103 0.177441
H9    H     H_    0.204715 0.710696 0.694330 0.230576
H10   H     H_    0.203615 0.778678 0.579067 0.176385
H11   H     H_    0.183585 0.368406 0.430432 0.141703
H12   H     H_    0.004186 0.703260 0.614461 0.161106
H13   H     H_    0.995713 0.297206 0.384748 0.158618
H14   H     H_    0.535377 0.720656 0.804240 0.175000
H15   H     H_    0.404469 0.687974 0.765896 0.233995
H16   H     H_    0.600107 0.316852 0.230744 0.239572
H17   H     H_    0.469648 0.282502 0.192464 0.171790
H18   H     H_    0.665849 0.225559 0.832682 0.249871
N1    N     N_R   0.792200 0.479100 0.480660 -0.097166
N2    N     N_R   0.207800 0.520900 0.519340 -0.098516
N3    N     N_3   0.461673 0.691063 0.829999 -0.355790
N4    N     N_3   0.542506 0.314295 0.166956 -0.364711
N5    N     N_3   0.641981 0.300277 0.789507 -0.360148
N6    N     N_3   0.355302 0.703013 0.209600 -0.360495
N7    N     N_3   0.774189 0.301309 0.381153 -0.398467
N8    N     N_3   0.225577 0.699900 0.616959 -0.397351
O1    O     O_R   0.578300 0.494420 0.341180 -0.588319
O2    O     O_2   0.238579 0.666459 0.883226 -0.335744
O3    O     O_3   0.183772 0.743722 0.063506 -0.495081
O4    O     O_2   0.766335 0.371314 0.119602 -0.318751
O5    O     O_2   0.702722 0.186531 0.049862 -0.296869
O6    O     O_3   0.831045 0.301738 0.939663 -0.530975
O7    O     O_R   0.421700 0.505580 0.658820 -0.600317
O8    O     O_R   0.390690 0.507830 0.353590 -0.632170
O9    O     O_R   0.609310 0.492170 0.646410 -0.591379
O10   O     O_R   0.593810 0.327740 0.493800 -0.596655
O11   O     O_R   0.406190 0.672260 0.506200 -0.604782
O12   O     O_R   0.406190 0.341150 0.506220 -0.615978
O13   O     O_R   0.593810 0.658850 0.493780 -0.617802
O14   O     O_2   0.329618 0.835342 0.956061 -0.228872
S1    S     S_3+6 0.286851 0.720312 0.981215 0.058226
S2    S     S_3+6 0.727744 0.307968 0.022736 0.018660
Zn1   Zn    Zn3+2 0.625270 0.491050 0.491710 0.989055
Zn2   Zn    Zn3+2 0.374730 0.508950 0.508290 0.964238

loop_
_geom_bond_atom_site_label_1
_geom_bond_atom_site_label_2
_ccdc_geom_bond_type
H18   N5    S    
H14   N3    S    
O3    S1    S    
C21   C26   A    
C23   N1    A    
O12   Zn2   S    
C25   H1    S    
C20   H12   S    
H17   N4    S    
H5    O3    S    
C23   N7    S    
H10   N8    S    
O11   Zn2   S    
H6    O6    S    
O6    S2    S    
O1    Zn1   S    
C16   N4    S    
C21   C23   A    
C24   H11   S    
H4    N6    S    
C24   N2    A    
C7    C8    S    
C2    C26   A    
C10   C16   A    
C3    O12   A    
C12   O9    A    
C4    O11   A    
C11   C19   A    
O8    Zn2   S    
C14   N6    S    
C13   C18   A    
O13   Zn1   S    
C6    C8    T    
C16   C18   A    
C11   C14   A    
C20   C22   A    
O14   S1    D    
C2    C25   A    
O10   Zn1   S    
H3    N6    S    
C15   N5    S    
C13   C15   A    
H15   N3    S    
C4    O13   A    
C24   C26   A    
C9    C12   S    
N2    Zn2   S    
C4    C6    S    
H7    N7    S    
O9    Zn1   S    
O5    S2    D    
N1    Zn1   S    
C25   N1    A    
C3    O10   A    
C22   N8    S    
C18   C19   A    
C10   C14   A    
C1    O8    A    
C9    C17   A    
H9    N8    S    
C5    C7    T    
C1    O1    A    
C17   C19   A    
H16   N4    S    
O2    S1    D    
O7    Zn2   S    
C22   N2    A    
O4    S2    D    
C12   O7    A    
C2    C20   A    
C13   S2    S    
H8    N7    S    
C1    C10   S    
C17   N3    S    
C9    C15   A    
C11   S1    S    
C3    C5    S    
H2    N5    S    
C21   H13   S    
