data_mof_unit_37784.cif
_audit_creation_date              2012-10-26T20:32:04-0400
_audit_creation_method            fapswitch 2.2
_symmetry_space_group_name_H-M    P1
_symmetry_Int_Tables_number       1
_space_group_crystal_system       triclinic
_cell_length_a                    10.634161
_cell_length_b                    10.819649
_cell_length_c                    9.549701
_cell_angle_alpha                 90.069153
_cell_angle_beta                  90.368041
_cell_angle_gamma                 90.092662
_cell_volume                      1098.74352224

loop_
_atom_site_label
_atom_site_type_symbol
_atom_type_description
_atom_site_fract_x
_atom_site_fract_y
_atom_site_fract_z
_atom_type_partial_charge
C1    C     C_R   0.497680 0.262349 0.499877 0.545772
C2    C     C_R   0.487004 0.936597 0.625399 0.021724
C3    C     C_3   0.577190 0.930880 0.745768 -0.267746
C4    C     C_R   0.259367 0.500408 0.499464 0.551327
C5    C     C_3   0.576106 0.071171 0.746113 -0.263587
C6    C     C_R   0.559498 0.591990 0.074190 0.154224
C7    C     C_R   0.431336 0.416264 0.073813 -0.014378
C8    C     C_R   0.431346 0.416235 0.924945 -0.013132
C9    C     C_R   0.559710 0.591831 0.926850 0.157044
C10   C     C_3   0.696336 0.622678 0.922640 -0.281638
C11   C     C_3   0.695784 0.623917 0.081438 -0.272596
C12   C     C_3   0.958449 0.605554 0.446277 -0.007509
C13   C     C_R   0.498164 0.737681 0.499960 0.554639
C14   C     C_R   0.740632 0.499811 0.500508 0.556223
C15   C     C_3   0.042860 0.393933 0.554218 -0.125534
C16   C     C_3   0.957540 0.404943 0.422846 -0.138132
C17   C     C_3   0.877481 0.500095 0.501426 0.030157
C18   C     C_3   0.960905 0.489165 0.632797 -0.124919
C19   C     C_3   0.043141 0.596407 0.577015 -0.126061
C20   C     C_1   0.909971 0.721891 0.388690 0.179428
C21   C     C_3   0.039808 0.511995 0.366417 -0.122934
C22   C     C_3   0.122651 0.500965 0.498311 0.035845
C23   C     C_R   0.486424 0.063801 0.625368 0.015419
C24   C     C_R   0.485450 0.129238 0.499555 0.008873
C25   C     C_R   0.467360 0.064236 0.373419 -0.156997
C26   C     C_R   0.467799 0.935379 0.373464 -0.150032
C27   C     C_R   0.486262 0.870811 0.499654 0.015397
Cu1   Cu    Cu3+1 0.499990 0.499980 0.640670 0.935008
Cu2   Cu    Cu3+1 0.500010 0.500020 0.359330 0.938305
H1    H     H_    0.919665 0.326545 0.360352 0.119032
H2    H     H_    0.711667 0.717418 0.126478 0.153204
H3    H     H_    0.080898 0.306753 0.598550 0.111907
H4    H     H_    0.927568 0.478691 0.741907 0.111524
H5    H     H_    0.080826 0.675124 0.639175 0.114882
H6    H     H_    0.074205 0.522162 0.257490 0.120074
H7    H     H_    0.458865 0.112260 0.274360 0.128744
H8    H     H_    0.459565 0.887064 0.274412 0.136063
H9    H     H_    0.533848 0.889896 0.840667 0.136182
H10   H     H_    0.669634 0.891184 0.715906 0.139350
H11   H     H_    0.531618 0.111176 0.840920 0.133113
H12   H     H_    0.668002 0.112885 0.717201 0.143683
H13   H     H_    0.377660 0.346996 0.129123 0.111186
H14   H     H_    0.377695 0.346923 0.868712 0.114841
H15   H     H_    0.753837 0.546449 0.879045 0.147631
H16   H     H_    0.714360 0.715014 0.876300 0.120958
H17   H     H_    0.754325 0.549319 0.127963 0.157794
N1    N     N_R   0.500800 0.500930 0.147930 -0.230931
N2    N     N_R   0.500800 0.500890 0.852020 -0.230503
N3    N     N_1   0.871656 0.813735 0.343633 -0.328382
O1    O     O_R   0.500000 0.319640 0.618810 -0.506802
O2    O     O_R   0.500010 0.319680 0.381230 -0.513168
O3    O     O_R   0.316850 0.499950 0.618770 -0.504343
O4    O     O_R   0.316860 0.499990 0.381190 -0.507628
O5    O     O_R   0.499990 0.680320 0.618770 -0.498390
O6    O     O_R   0.500000 0.680360 0.381190 -0.502302
O7    O     O_R   0.683140 0.500010 0.618810 -0.509332
O8    O     O_R   0.683150 0.500050 0.381230 -0.502578

loop_
_geom_bond_atom_site_label_1
_geom_bond_atom_site_label_2
_ccdc_geom_bond_type
C12   C17   S    
C15   C18   S    
C14   O7    A    
C23   C24   A    
C8    N2    A    
C26   H8    S    
C16   C21   S    
C21   H6    S    
C1    O1    A    
C4    O4    A    
C1    O2    A    
C9    C10   S    
C13   C27   S    
C5    C23   S    
C8    H14   S    
C2    C27   A    
C12   C20   S    
C10   H16   S    
C2    C3    S    
Cu1   O7    S    
C11   H2    S    
C7    C8    A    
C21   C22   S    
Cu1   O3    S    
C14   C17   S    
C26   C27   A    
C20   N3    T    
Cu2   O4    S    
C4    O3    A    
Cu1   O1    S    
C12   C19   S    
Cu1   Cu2   S    
C19   C22   S    
Cu2   N1    S    
C17   C18   S    
C6    C11   S    
C18   H4    S    
C7    H13   S    
C10   C11   S    
C25   H7    S    
C16   H1    S    
C15   C16   S    
C6    N1    A    
C9    N2    A    
C15   H3    S    
C6    C9    A    
C4    C22   S    
C24   C25   A    
C1    C24   S    
C13   O5    A    
Cu2   O2    S    
C5    H11   S    
C2    C23   A    
C3    H10   S    
C14   O8    A    
Cu1   O5    S    
C18   C19   S    
C11   H17   S    
C5    H12   S    
Cu2   O6    S    
C3    C5    S    
C25   C26   A    
C10   H15   S    
C12   C21   S    
C15   C22   S    
Cu1   N2    S    
C3    H9    S    
Cu2   O8    S    
C16   C17   S    
C13   O6    A    
C19   H5    S    
C7    N1    A    
