data_mof_unit_25496.cif
_audit_creation_date              2012-12-11T15:31:34-0500
_audit_creation_method            fapswitch 2.2
_symmetry_space_group_name_H-M    P1
_symmetry_Int_Tables_number       1
_space_group_crystal_system       triclinic
_cell_length_a                    6.955949
_cell_length_b                    15.197173
_cell_length_c                    21.35531
_cell_angle_alpha                 72.818035
_cell_angle_beta                  90.388549
_cell_angle_gamma                 90.608573
_cell_volume                      2156.60025725

loop_
_atom_site_label
_atom_site_type_symbol
_atom_type_description
_atom_site_fract_x
_atom_site_fract_y
_atom_site_fract_z
_atom_type_partial_charge
O1    O     O_R   0.648150 0.130050 0.214300 -0.546059
O2    O     O_R   0.351850 0.869950 0.785700 -0.525568
O3    O     O_R   0.320490 0.006660 0.340150 -0.520777
O4    O     O_R   0.679510 0.993340 0.659850 -0.546409
O5    O     O_R   0.146100 0.869940 0.285700 -0.508208
O6    O     O_R   0.853900 0.130060 0.714300 -0.546354
C1    C     C_R   0.489386 0.001389 0.367147 0.796495
C2    C     C_R   0.510900 0.998323 0.632850 0.784251
O7    O     O_R   0.318690 0.137980 0.218120 -0.527194
O8    O     O_R   0.681310 0.862020 0.781880 -0.542657
O9    O     O_R   0.144280 0.002190 0.162800 -0.548682
O10   O     O_R   0.855720 0.997810 0.837200 -0.554645
C3    C     C_R   0.487624 0.174473 0.203849 0.771628
C4    C     C_R   0.511879 0.825484 0.795372 0.769726
O11   O     O_R   0.649960 0.997790 0.337200 -0.545922
O12   O     O_R   0.350040 0.002210 0.662800 -0.519062
O13   O     O_3   0.479300 0.955290 0.231990 -0.382690
O14   O     O_3   0.520700 0.044710 0.768010 -0.385386
V1    V     V_3+5 0.206040 0.008290 0.253340 1.619819
V2    V     V_3+5 0.793960 0.991710 0.746660 1.561626
O15   O     O_R   0.814320 0.993320 0.159850 -0.553635
O16   O     O_R   0.185680 0.006680 0.840150 -0.549543
C5    C     C_R   0.982042 0.999976 0.132523 0.691854
C6    C     C_R   0.016959 0.000259 0.867475 0.695878
O17   O     O_R   0.816120 0.862000 0.281880 -0.547894
O18   O     O_R   0.183880 0.138000 0.718120 -0.512087
C7    C     C_R   0.984348 0.825558 0.297264 0.811894
C8    C     C_R   0.016063 0.174710 0.703985 0.818160
V3    V     V_3+5 0.705540 0.991700 0.246660 1.544636
V4    V     V_3+5 0.294460 0.008300 0.753340 1.610439
O19   O     O_3   0.982150 0.044700 0.268010 -0.371325
O20   O     O_3   0.017850 0.955300 0.731990 -0.368330
C9    C     C_R   0.990233 0.725303 0.325201 -0.206440
C10   C     C_R   0.007540 0.275100 0.677265 -0.209669
C11   C     C_R   0.931991 0.576276 0.308978 0.528160
C12   C     C_R   0.930695 0.420934 0.695236 0.527810
C13   C     C_R   0.936519 0.672001 0.285181 -0.294814
C14   C     C_R   0.945324 0.325225 0.717944 -0.293693
C15   C     C_R   0.042014 0.682791 0.390906 0.385171
C16   C     C_R   0.057773 0.320754 0.612143 0.395321
C17   C     C_R   0.990220 0.588558 0.419592 -0.101866
C18   C     C_R   0.996956 0.413268 0.584332 -0.101230
C19   C     C_R   0.940572 0.532940 0.377965 -0.125164
C20   C     C_R   0.939774 0.466285 0.626369 -0.125822
C21   C     C_R   0.976703 0.548837 0.488561 0.079748
C22   C     C_R   0.980208 0.452884 0.515581 0.079906
C23   C     C_R   0.925647 0.399429 0.475118 -0.088849
C24   C     C_R   0.918724 0.600552 0.529436 -0.088278
C25   C     C_R   0.893921 0.438523 0.408358 0.366395
C26   C     C_R   0.886545 0.559689 0.596184 0.364414
H1    H     H_    0.919022 0.289312 0.769180 0.179281
H2    H     H_    0.909909 0.705715 0.233582 0.177111
H3    H     H_    0.886319 0.327857 0.496866 0.159913
H4    H     H_    0.875505 0.671300 0.507933 0.152309
C27   C     C_3   0.847805 0.951377 0.986930 -0.117594
C28   C     C_3   0.144826 0.048932 0.012952 -0.089404
C29   C     C_3   0.003315 0.913550 0.039937 -0.070346
C30   C     C_3   0.987412 0.086699 0.960236 -0.067963
H5    H     H_    0.995473 0.844592 0.076023 0.169200
H6    H     H_    0.969460 0.156746 0.926018 0.186325
H7    H     H_    0.725490 0.912263 0.974754 0.181390
H8    H     H_    0.269980 0.086271 0.025203 0.208558
C31   C     C_3   0.987908 0.000659 0.061807 -0.076411
C32   C     C_3   0.005826 0.999612 0.938207 -0.068704
C33   C     C_3   0.830597 0.038189 0.009972 -0.123058
C34   C     C_3   0.161795 0.961461 0.990452 -0.106370
H9    H     H_    0.692163 0.067037 0.019416 0.177832
H10   H     H_    0.299701 0.931399 0.981732 0.188191
C35   C     C_3   0.638648 0.056860 0.466712 -0.149189
C36   C     C_3   0.363785 0.942056 0.533234 -0.086630
C37   C     C_3   0.470194 0.084750 0.503716 -0.072475
C38   C     C_3   0.532587 0.914208 0.496169 -0.049101
H11   H     H_    0.448923 0.155772 0.506090 0.223294
H12   H     H_    0.559235 0.843866 0.492780 0.195621
H13   H     H_    0.752167 0.104175 0.439048 0.160935
H14   H     H_    0.249829 0.895133 0.560893 0.161046
C39   C     C_3   0.504434 0.998571 0.562224 -0.051128
C40   C     C_3   0.497557 0.000511 0.437772 -0.044626
C41   C     C_3   0.673710 0.970666 0.525965 -0.151907
C42   C     C_3   0.328677 0.028379 0.474047 -0.103877
H15   H     H_    0.816493 0.946710 0.547513 0.146004
H16   H     H_    0.185902 0.052364 0.452517 0.144183
C43   C     C_R   0.493290 0.274603 0.178054 -0.146054
C44   C     C_R   0.496998 0.725615 0.820342 -0.128563
C45   C     C_R   0.410661 0.422284 0.188975 0.025912
C46   C     C_R   0.401073 0.579950 0.806776 0.044027
C47   C     C_R   0.425040 0.327697 0.216452 0.303694
C48   C     C_R   0.419576 0.674940 0.780967 0.292436
C49   C     C_R   0.533785 0.316201 0.111476 -0.107344
C50   C     C_R   0.537867 0.681816 0.886515 -0.095343
C51   C     C_R   0.482404 0.408462 0.080332 0.093509
C52   C     C_R   0.481327 0.589581 0.915792 0.089451
C53   C     C_R   0.443486 0.463042 0.121848 -0.027870
C54   C     C_R   0.437440 0.536864 0.873475 -0.029929
C55   C     C_R   0.469544 0.448974 0.010502 -0.104076
C56   C     C_R   0.467994 0.548052 0.984981 -0.101898
C57   C     C_R   0.430765 0.600546 0.029188 0.450051
C58   C     C_R   0.436312 0.396922 0.964961 0.457666
C59   C     C_R   0.427200 0.557384 0.096338 -0.180315
C60   C     C_R   0.423065 0.442207 0.897938 -0.160743
H17   H     H_    0.400878 0.597408 0.129721 0.186468
H18   H     H_    0.395775 0.403420 0.863613 0.203986
H19   H     H_    0.606510 0.721007 0.915071 0.184136
H20   H     H_    0.599707 0.275069 0.084698 0.197858
H21   H     H_    0.369925 0.464050 0.219847 0.214978
H22   H     H_    0.355336 0.539812 0.774991 0.212388
Br1   Br    Br    0.745894 0.359956 0.370429 -0.343425
Br2   Br    Br    0.727556 0.632962 0.633855 -0.342292
Br3   Br    Br    0.338417 0.733060 0.692311 -0.428256
Br4   Br    Br    0.350220 0.272820 0.306243 -0.406536
S1    S     S_3+6 0.330011 0.712462 0.006298 -0.055232
O21   O     O_2   0.487526 0.783349 0.997096 -0.409280
O22   O     O_2   0.211408 0.730733 0.944759 -0.324829
O23   O     O_3   0.186211 0.721267 0.066834 -0.499290
H23   H     H_    0.268777 0.746800 0.095386 0.338567
S2    S     S_3+6 0.361050 0.280052 0.985421 -0.072127
O24   O     O_2   0.534430 0.219274 0.995869 -0.407228
O25   O     O_2   0.237254 0.253956 0.045651 -0.341952
O26   O     O_3   0.231974 0.263216 0.923054 -0.506852
H24   H     H_    0.320561 0.233861 0.899228 0.340289
S3    S     S_3+6 0.217782 0.265556 0.570543 -0.029958
O27   O     O_2   0.294051 0.330840 0.508052 -0.323319
O28   O     O_2   0.387586 0.228667 0.613839 -0.328589
O29   O     O_3   0.101035 0.176778 0.554682 -0.543835
H25   H     H_    0.086480 0.194215 0.506411 0.341712
S4    S     S_3+6 0.198973 0.743445 0.431090 -0.021396
O30   O     O_2   0.277626 0.682180 0.494635 -0.319859
O31   O     O_2   0.367421 0.781181 0.387383 -0.329307
O32   O     O_3   0.080396 0.832230 0.444409 -0.537804
H26   H     H_    0.052764 0.813514 0.491969 0.337154
S5    S     S_3+6 0.934428 0.518874 0.248209 0.019674
O33   O     O_2   0.042334 0.430156 0.271195 -0.296371
O34   O     O_2   0.731050 0.500541 0.232210 -0.334512
O35   O     O_3   0.039105 0.586159 0.179919 -0.516907
H27   H     H_    0.014363 0.554375 0.146250 0.378259
S6    S     S_3+6 0.914018 0.475512 0.757425 0.015609
O36   O     O_2   0.011243 0.568188 0.737918 -0.301080
O37   O     O_2   0.705453 0.485338 0.770371 -0.340334
O38   O     O_3   0.016560 0.409757 0.826748 -0.508456
H28   H     H_    0.986825 0.440677 0.860345 0.375850

loop_
_geom_bond_atom_site_label_1
_geom_bond_atom_site_label_2
_ccdc_geom_bond_type
C34   H10   S    
C31   C33   S    
S4    O30   D    
O13   V3    S    
C43   C47   A    
C55   C56   A    
C4    C44   S    
C29   C34   S    
O4    C2    A    
S5    O35   S    
V1    O19   S    
O23   H23   S    
C55   C58   A    
C23   C25   A    
C47   Br4   S    
C21   C22   A    
C7    C9    S    
C24   H4    S    
C16   S3    S    
O9    V1    S    
C9    C15   A    
C18   C20   A    
C10   C16   A    
O16   C6    A    
C11   C13   A    
O32   H26   S    
C38   C41   S    
O3    C1    A    
C57   S1    S    
C40   C42   S    
C29   H5    S    
C30   H6    S    
C52   C56   A    
C46   C48   A    
S2    O24   D    
O17   V3    S    
C18   C22   A    
C35   C37   S    
O7    C3    A    
S3    O29   S    
C38   C40   S    
C46   C54   A    
C57   C59   A    
O5    C7    A    
C45   C53   A    
O7    V1    S    
O6    C8    A    
C58   S2    S    
S1    O21   D    
O8    V2    S    
C33   H9    S    
O3    V1    S    
O14   V4    S    
C28   C30   S    
C25   Br1   S    
C11   C19   A    
C53   C59   A    
C23   H3    S    
C5    C31   S    
C8    C10   S    
C2    O12   A    
C15   S4    S    
C27   C32   S    
C36   C39   S    
C26   Br2   S    
C17   C19   A    
C35   C40   S    
C46   H22   S    
C44   C50   A    
S6    O38   S    
C45   H21   S    
C12   S6    S    
O1    V3    S    
C37   C42   S    
C27   C33   S    
O11   V3    S    
C39   C41   S    
C30   C32   S    
C43   C49   A    
C45   C47   A    
C36   C42   S    
C38   H12   S    
O8    C4    A    
C41   H15   S    
C13   H2    S    
C19   C25   A    
C14   H1    S    
S4    O32   S    
O15   V3    S    
C9    C13   A    
C32   C34   S    
C51   C53   A    
C30   C33   S    
C50   C52   A    
C54   C60   A    
O26   H24   S    
C56   C57   A    
O10   V2    S    
C52   C54   A    
C28   C31   S    
S1    O22   D    
C24   C26   A    
S3    O27   D    
C1    C40   S    
C48   Br3   S    
S6    O37   D    
C59   H17   S    
O18   V4    S    
C58   C60   A    
C27   C29   S    
C49   H20   S    
C36   H14   S    
C2    C39   S    
C28   H8    S    
C35   C41   S    
O1    C3    A    
S5    O33   D    
C11   S5    S    
C37   C39   S    
C37   H11   S    
C60   H18   S    
V2    O20   S    
C21   C24   A    
C20   C26   A    
C3    C43   S    
C22   C23   A    
S4    O31   D    
O16   V4    S    
C10   C14   A    
C44   C48   A    
C29   C31   S    
S6    O36   D    
S5    O34   D    
O38   H28   S    
O35   H27   S    
O5    V1    S    
O17   C7    A    
O6    V2    S    
O10   C6    A    
O18   C8    A    
S2    O26   S    
O2    V4    S    
O15   C5    A    
V3    O19   S    
C17   C21   A    
C12   C14   A    
V4    O20   S    
C28   C34   S    
C27   H7    S    
C1    O11   A    
O9    C5    A    
O13   V1    S    
C42   H16   S    
S2    O25   D    
C35   H13   S    
S1    O23   S    
O14   V2    S    
O2    C4    A    
C50   H19   S    
S3    O28   D    
C12   C20   A    
C51   C55   A    
O4    V2    S    
C15   C17   A    
C6    C32   S    
C49   C51   A    
C16   C18   A    
C36   C38   S    
O12   V4    S    
O29   H25   S    
