data_mof_unit_22094.cif
_audit_creation_date              2012-12-11T16:24:23-0500
_audit_creation_method            fapswitch 2.2
_symmetry_space_group_name_H-M    P1
_symmetry_Int_Tables_number       1
_space_group_crystal_system       triclinic
_cell_length_a                    14.699864
_cell_length_b                    14.728965
_cell_length_c                    33.27518
_cell_angle_alpha                 95.868486
_cell_angle_beta                  95.889273
_cell_angle_gamma                 61.190481
_cell_volume                      6267.95447592

loop_
_atom_site_label
_atom_site_type_symbol
_atom_type_description
_atom_site_fract_x
_atom_site_fract_y
_atom_site_fract_z
_atom_type_partial_charge
Br1   Br    Br    0.517590 0.175083 0.091555 -0.296418
Br2   Br    Br    0.729735 0.206934 0.803825 -0.251796
Br3   Br    Br    0.837859 0.124556 0.674101 -0.277138
Br4   Br    Br    0.800271 0.163835 0.576135 -0.258842
Br5   Br    Br    0.006468 0.378330 0.791472 -0.378446
Br6   Br    Br    0.495177 0.143721 0.399857 -0.250705
Br7   Br    Br    0.149241 0.852656 0.580445 -0.287069
Br8   Br    Br    0.795808 0.161494 0.419840 -0.292179
Br9   Br    Br    0.572837 0.761260 0.426475 -0.349373
Br10  Br    Br    0.560956 0.766169 0.162213 -0.344246
Br11  Br    Br    0.445762 0.132095 0.664102 -0.287007
Br12  Br    Br    0.458279 0.127866 0.299688 -0.324357
Br13  Br    Br    0.117588 0.552956 0.832667 -0.287174
Br14  Br    Br    0.486627 0.161498 0.810945 -0.256619
Br15  Br    Br    0.792033 0.191754 0.903953 -0.302940
C1    C     C_R   0.390097 0.702584 0.446715 0.573964
C2    C     C_1   0.318257 0.338545 0.228566 0.094926
C3    C     C_2   0.175440 0.816301 0.402460 0.621880
C4    C     C_2   0.506122 0.209002 0.186257 0.639788
C5    C     C_2   0.147858 0.889545 0.164720 0.606752
C6    C     C_2   0.482694 0.852387 0.074942 0.635777
C7    C     C_2   0.481169 0.176094 0.577984 0.645097
C8    C     C_2   0.140274 0.483039 0.921153 0.645509
C9    C     C_2   0.468802 0.144023 0.901707 0.670532
C10   C     C_2   0.794142 0.513976 0.700049 0.622008
C11   C     C_2   0.472566 0.814453 0.901459 0.599389
C12   C     C_2   0.547933 0.773469 0.691108 0.616518
C13   C     C_1   0.323274 0.344144 0.264843 0.123081
C14   C     C_2   0.121277 0.031669 0.787768 0.588506
C15   C     C_2   0.158105 0.915937 0.672733 0.640335
C16   C     C_2   0.211646 0.546918 0.308807 0.590419
C17   C     C_R   0.405233 0.385907 0.434146 0.566735
C18   C     C_R   0.293155 0.296107 0.101228 0.007691
C19   C     C_R   0.757291 0.373026 0.409461 -0.021469
C20   C     C_R   0.768891 0.445465 0.389197 -0.151666
C21   C     C_R   0.799013 0.424901 0.349371 0.018792
C22   C     C_R   0.815422 0.329947 0.328666 -0.037767
C23   C     C_R   0.814542 0.251920 0.350004 0.043960
C24   C     C_R   0.787351 0.272806 0.390640 0.141832
C25   C     C_R   0.331952 0.351851 0.308213 -0.011580
C26   C     C_R   0.825260 0.302201 0.202607 0.379972
C27   C     C_R   0.819015 0.318642 0.284169 0.380194
C28   C     C_R   0.834823 0.383152 0.143483 -0.119702
C29   C     C_R   0.701499 0.409510 0.447401 0.566647
C30   C     C_R   0.869695 0.374844 0.105279 -0.115546
C31   C     C_R   0.895831 0.198947 0.095427 -0.117066
C32   C     C_R   0.860433 0.206131 0.133891 0.045719
C33   C     C_R   0.835260 0.297851 0.158939 0.019299
C34   C     C_R   0.905171 0.281034 0.081730 -0.002105
C35   C     C_R   0.369551 0.762354 0.410326 -0.001230
C36   C     C_R   0.394410 0.261483 0.329243 0.182868
C37   C     C_R   0.275301 0.792346 0.385920 0.007593
C38   C     C_R   0.274636 0.804536 0.344701 -0.103870
C39   C     C_R   0.361339 0.799146 0.328597 -0.024747
C40   C     C_R   0.446046 0.790033 0.354230 -0.062192
C41   C     C_R   0.392325 0.703561 0.560817 0.572304
C42   C     C_R   0.451163 0.771859 0.394866 0.145878
C43   C     C_R   0.357289 0.817813 0.204369 0.395957
C44   C     C_R   0.362596 0.803844 0.285030 0.351330
C45   C     C_R   0.237652 0.873392 0.142621 0.014888
C46   C     C_R   0.218245 0.900882 0.102713 -0.146009
C47   C     C_R   0.412538 0.268998 0.371521 0.190891
C48   C     C_R   0.397977 0.862183 0.098689 0.046129
C49   C     C_R   0.419562 0.830200 0.138831 0.138714
C50   C     C_R   0.338476 0.839718 0.161294 -0.001760
C51   C     C_R   0.295001 0.901711 0.081200 -0.044471
C52   C     C_R   0.366155 0.370156 0.584567 -0.031839
C53   C     C_R   0.406379 0.388575 0.548877 0.555247
C54   C     C_R   0.291123 0.457766 0.605612 -0.143112
C55   C     C_R   0.266327 0.450897 0.643767 -0.133989
C56   C     C_R   0.314091 0.356144 0.661856 0.022424
C57   C     C_R   0.383321 0.264826 0.640103 0.162399
C58   C     C_R   0.403598 0.265728 0.163951 0.069068
C59   C     C_R   0.409261 0.271512 0.601066 0.049503
C60   C     C_R   0.283855 0.356369 0.784998 0.413660
C61   C     C_R   0.298630 0.358037 0.704836 0.366415
C62   C     C_R   0.217455 0.421152 0.853845 0.140314
C63   C     C_R   0.217531 0.401302 0.894428 0.017889
C64   C     C_R   0.376829 0.235864 0.885202 0.022691
C65   C     C_R   0.703149 0.412127 0.562286 0.558584
C66   C     C_R   0.374020 0.255223 0.844579 0.122583
C67   C     C_R   0.291276 0.344658 0.828508 0.006889
C68   C     C_R   0.292229 0.303788 0.909291 -0.085806
C69   C     C_R   0.393513 0.250785 0.121465 0.158861
C70   C     C_R   0.757496 0.376817 0.602259 -0.036369
C71   C     C_R   0.764840 0.450587 0.630702 -0.158931
C72   C     C_R   0.789831 0.430976 0.671688 0.017405
C73   C     C_R   0.807673 0.334850 0.684520 -0.023485
C74   C     C_R   0.809061 0.256943 0.656025 0.189349
C75   C     C_R   0.786801 0.276514 0.614691 0.183880
C76   C     C_R   0.825361 0.253437 0.828880 0.197854
C77   C     C_R   0.368873 0.367819 0.392449 -0.033500
C78   C     C_R   0.852127 0.246489 0.870864 0.166451
C79   C     C_R   0.964076 0.322631 0.864159 -0.124627
C80   C     C_R   0.206690 0.365654 0.123043 -0.148681
C81   C     C_R   0.939644 0.327594 0.822840 0.154147
C82   C     C_R   0.870033 0.293567 0.805047 0.030708
C83   C     C_1   0.845120 0.302156 0.762350 0.139858
C84   C     C_1   0.827536 0.314707 0.726741 0.117274
C85   C     C_R   0.921677 0.281920 0.888493 -0.040766
C86   C     C_R   0.373331 0.763810 0.600474 -0.016370
C87   C     C_R   0.273023 0.822426 0.615364 0.140529
C88   C     C_R   0.262748 0.858824 0.656472 0.049111
C89   C     C_R   0.298980 0.455606 0.371353 -0.163344
C90   C     C_R   0.352395 0.838723 0.682246 -0.035093
C91   C     C_R   0.217252 0.383078 0.164593 -0.124669
C92   C     C_R   0.451498 0.789731 0.666290 0.033050
C93   C     C_R   0.460322 0.753150 0.625632 -0.151379
C94   C     C_R   0.396327 0.859407 0.831315 -0.088190
C95   C     C_R   0.381234 0.870768 0.872998 0.049741
C96   C     C_R   0.195923 0.981302 0.857305 -0.135114
C97   C     C_R   0.211606 0.972219 0.816095 0.063368
C98   C     C_R   0.312820 0.909569 0.803078 -0.000188
C99   C     C_1   0.330475 0.887718 0.760645 0.127975
C100  C     C_1   0.341679 0.867248 0.724965 0.132774
C101  C     C_R   0.280857 0.449329 0.329418 0.018271
C102  C     C_R   0.313975 0.330621 0.185242 -0.011837
C103  C     C_R   0.279164 0.933001 0.886050 -0.013603
C104  C     C_R   0.963359 0.264075 0.045685 0.552784
C105  C     C_R   0.273610 0.260377 0.059695 0.572450
C106  C     C_R   0.259434 0.958795 0.043702 0.579494
C107  C     C_R   0.962790 0.267723 0.930834 0.570999
C108  C     C_R   0.271868 0.264674 0.945361 0.558858
C109  C     C_R   0.255617 0.966126 0.928730 0.587990
C110  C     C_2   0.811634 0.504707 0.330019 0.619124
C111  C     C_2   0.833813 0.150965 0.329312 0.637678
C112  C     C_2   0.850636 0.117400 0.146832 0.618941
Cr1   Cr    Cr6+3 0.576280 0.580550 0.506370 1.108847
Cr2   Cr    Cr6+3 0.346780 0.572400 0.496520 1.103973
Cr3   Cr    Cr6+3 0.576960 0.347070 0.497150 1.178637
Cr4   Cr    Cr6+3 0.087320 0.083240 0.984860 1.104714
Cr5   Cr    Cr6+3 0.087720 0.316210 0.996740 1.080635
Cr6   Cr    Cr6+3 0.317350 0.090340 0.995890 1.144968
H1    H     H_    0.874840 0.439854 0.095293 0.161382
H2    H     H_    0.020187 0.347004 0.877078 0.187306
H3    H     H_    0.473310 0.809814 0.820539 0.200436
H4    H     H_    0.537317 0.710329 0.614188 0.173719
H5    H     H_    0.118363 0.032300 0.867364 0.166472
H6    H     H_    0.263906 0.531645 0.387159 0.186604
H7    H     H_    0.148556 0.433419 0.180978 0.154726
H8    H     H_    0.129183 0.402249 0.108414 0.156364
H9    H     H_    0.750929 0.520639 0.404073 0.209259
H10   H     H_    0.883550 0.536249 0.289188 0.363548
H11   H     H_    0.774798 0.055664 0.308128 0.370646
H12   H     H_    0.814940 0.454015 0.162244 0.166587
H13   H     H_    0.794404 0.063327 0.185792 0.358770
H14   H     H_    0.034409 0.823693 0.392073 0.378530
H15   H     H_    0.631620 0.070997 0.197176 0.362437
H16   H     H_    0.064064 0.951899 0.214054 0.369813
H17   H     H_    0.552969 0.805957 0.022122 0.359692
H18   H     H_    0.621576 0.048124 0.576323 0.377694
H19   H     H_    0.989654 0.583519 0.930125 0.355039
H20   H     H_    0.557705 0.988361 0.898805 0.369530
H21   H     H_    0.825727 0.633832 0.708326 0.381640
H22   H     H_    0.628846 0.741745 0.911169 0.358801
H23   H     H_    0.919997 0.127508 0.076671 0.176610
H24   H     H_    0.626367 0.750832 0.745809 0.377963
H25   H     H_    0.066729 0.113111 0.737645 0.368140
H26   H     H_    0.060970 0.922644 0.712921 0.386132
H27   H     H_    0.178801 0.630514 0.259867 0.364718
H28   H     H_    0.139117 0.930957 0.089680 0.183494
H29   H     H_    0.205525 0.820815 0.325113 0.201353
H30   H     H_    0.510871 0.791906 0.342211 0.203922
H31   H     H_    0.255843 0.534084 0.593802 0.176774
H32   H     H_    0.212410 0.521180 0.660029 0.173257
H33   H     H_    0.744566 0.526823 0.621403 0.193736
N1    N     N_R   0.747270 0.385733 0.221106 -0.166882
N2    N     N_R   0.403489 0.857999 0.270310 -0.157934
N3    N     N_R   0.399908 0.865725 0.230626 -0.127355
N4    N     N_R   0.303237 0.427888 0.770785 -0.145306
N5    N     N_R   0.309867 0.429023 0.731304 -0.191512
N6    N     N_R   0.276748 0.288120 0.719014 -0.131191
N7    N     N_R   0.269973 0.287029 0.758494 -0.130017
N8    N     N_R   0.743825 0.393364 0.261168 -0.167915
N9    N     N_R   0.897439 0.235572 0.265657 -0.140476
N10   N     N_R   0.900601 0.227601 0.225575 -0.169888
N11   N     N_R   0.319557 0.760896 0.219138 -0.172195
N12   N     N_R   0.321878 0.754283 0.258788 -0.187083
O1    O     O_R   0.679450 0.499830 0.463150 -0.492613
O2    O     O_R   0.340240 0.172500 0.045430 -0.449976
O3    O     O_R   0.309670 0.000990 0.032050 -0.467688
O4    O     O_R   0.480650 0.664000 0.464630 -0.458381
O5    O     O_R   0.168330 0.982130 0.939200 -0.489987
O6    O     O_R   0.000140 0.178170 0.944610 -0.469878
O7    O     O_R   0.983010 0.336750 0.948660 -0.495820
O8    O     O_R   0.181800 0.312190 0.959860 -0.483318
O9    O     O_R   0.338500 0.175680 0.956950 -0.476051
O10   O     O_R   0.308050 0.003930 0.950020 -0.468331
O11   O     O_3   0.164130 0.163270 0.992500 -0.295512
O12   O     O_R   0.356040 0.477400 0.534170 -0.507101
O13   O     O_R   0.323930 0.675950 0.455370 -0.479652
O14   O     O_R   0.354700 0.475360 0.451930 -0.513276
O15   O     O_R   0.494470 0.320860 0.448390 -0.436005
O16   O     O_R   0.662580 0.357570 0.460050 -0.451841
O17   O     O_R   0.680900 0.502040 0.551870 -0.511569
O18   O     O_R   0.481990 0.666040 0.546870 -0.502468
O19   O     O_R   0.325370 0.678160 0.544080 -0.458647
O20   O     O_2   0.762437 0.596424 0.341197 -0.464547
O21   O     O_R   0.881762 0.474987 0.299747 -0.662969
O22   O     O_2   0.921051 0.088463 0.319125 -0.453722
O23   O     O_R   0.495910 0.323070 0.537100 -0.459807
O24   O     O_R   0.752251 0.126877 0.322281 -0.612991
O25   O     O_2   0.891219 0.033098 0.127950 -0.454594
O26   O     O_R   0.792535 0.130238 0.179690 -0.639328
O27   O     O_2   0.157168 0.852617 0.437241 -0.430216
O28   O     O_R   0.099641 0.802941 0.377575 -0.632997
O29   O     O_2   0.536829 0.255334 0.211894 -0.452203
O30   O     O_R   0.565989 0.101840 0.178745 -0.597168
O31   O     O_2   0.089506 0.856412 0.149467 -0.439413
O32   O     O_R   0.128259 0.945038 0.202343 -0.654968
O33   O     O_2   0.542112 0.884833 0.089557 -0.410387
O34   O     O_R   0.663920 0.359620 0.542290 -0.457707
O35   O     O_R   0.493266 0.807357 0.035450 -0.641393
O36   O     O_2   0.454774 0.156216 0.543594 -0.451318
O37   O     O_R   0.579534 0.110019 0.595216 -0.589597
O38   O     O_2   0.169432 0.508035 0.954122 -0.469942
O39   O     O_R   0.034357 0.529864 0.909076 -0.632613
O40   O     O_2   0.521871 0.155579 0.930478 -0.425407
O41   O     O_R   0.493780 0.044578 0.884713 -0.640750
O42   O     O_2   0.769577 0.525139 0.734937 -0.468172
O43   O     O_R   0.825302 0.580865 0.686404 -0.633191
O44   O     O_2   0.460752 0.796376 0.935045 -0.470757
O45   O     O_3   0.500010 0.500010 0.500010 -0.297058
O46   O     O_R   0.573099 0.779464 0.889368 -0.669879
O47   O     O_2   0.620676 0.769773 0.674838 -0.451123
O48   O     O_R   0.556953 0.761115 0.732685 -0.676965
O49   O     O_2   0.034502 0.047339 0.794548 -0.486503
O50   O     O_R   0.134486 0.072517 0.754033 -0.655153
O51   O     O_2   0.092659 0.997004 0.658385 -0.412657
O52   O     O_R   0.134852 0.877139 0.704592 -0.663697
O53   O     O_2   0.138314 0.616985 0.326188 -0.452652
O54   O     O_R   0.230924 0.560300 0.270133 -0.677305
O55   O     O_R   0.170070 0.978950 0.027680 -0.505327
O56   O     O_R   0.001760 0.175230 0.026640 -0.495593
O57   O     O_R   0.984760 0.333570 0.037150 -0.510063
O58   O     O_R   0.183410 0.309240 0.041890 -0.502954

loop_
_geom_bond_atom_site_label_1
_geom_bond_atom_site_label_2
_ccdc_geom_bond_type
C10   O42   D    
C62   C63   A    
C72   C73   A    
C8    O39   S    
C86   C87   A    
C60   N7    A    
C39   C40   A    
C14   C97   S    
Cr3   O34   S    
C20   C21   A    
C71   H33   S    
C54   H31   S    
Cr2   O45   S    
Cr3   O15   S    
C25   C101  A    
C95   C103  A    
C66   C67   A    
Cr6   O11   S    
C41   O18   A    
C38   C39   A    
Cr4   O55   S    
Br1   C69   S    
C90   C92   A    
C31   C34   A    
C30   H1    S    
C22   C23   A    
Br5   C81   S    
C3    O27   D    
C46   H28   S    
C62   C67   A    
C15   O51   D    
C21   C22   A    
C80   C91   A    
C1    C35   S    
C41   C86   S    
C41   O19   A    
C27   N9    A    
C93   H4    S    
C1    O4    A    
C38   H29   S    
N4    N5    A    
C13   C25   S    
C83   C84   T    
Cr2   O14   S    
C18   C80   A    
C10   C72   S    
C17   O14   A    
C19   C20   A    
H17   O35   S    
C22   C27   S    
C61   N6    A    
H13   O26   S    
C9    C64   S    
Cr6   O10   S    
C87   C88   A    
C89   C101  A    
Cr4   O5    S    
C63   C68   A    
C21   C110  S    
Br7   C87   S    
C16   O53   D    
C15   C88   S    
C11   O44   D    
C35   C37   A    
C92   C93   A    
H27   O54   S    
C10   O43   S    
C55   C56   A    
Br8   C24   S    
C5    O32   S    
C5    C45   S    
C28   C33   A    
C11   C95   S    
C58   C69   A    
Br9   C42   S    
Cr5   O57   S    
C94   C98   A    
C65   O34   A    
C86   C93   A    
C107  O6    A    
C48   C51   A    
H18   O37   S    
C7    O37   S    
Cr2   O12   S    
C94   H3    S    
C4    O29   D    
C2    C13   T    
C53   O12   A    
H22   O46   S    
Br2   C76   S    
C36   C47   A    
Cr1   O45   S    
C46   C51   A    
C29   O1    A    
C97   C98   A    
C23   C111  S    
C82   C83   S    
C79   H2    S    
Br4   C75   S    
C39   C44   S    
Cr4   O11   S    
Cr4   O56   S    
C110  O20   D    
C23   C24   A    
Br13  C62   S    
C58   C102  A    
C3    C37   S    
C19   C24   A    
H26   O52   S    
C4    C58   S    
C43   N3    A    
Cr1   O4    S    
C12   C92   S    
C109  O5    A    
C57   C59   A    
C27   N8    A    
C55   H32   S    
Cr5   O8    S    
C109  O10   A    
C77   C89   A    
C71   C72   A    
C12   O47   D    
C107  O7    A    
C17   C77   S    
C70   C71   A    
C111  O24   S    
C52   C53   S    
C47   C77   A    
C45   C46   A    
C52   C54   A    
H14   O28   S    
C81   C82   A    
C40   C42   A    
C65   C70   S    
C28   H12   S    
C1    O13   A    
C76   C78   A    
Cr5   O58   S    
Cr4   O6    S    
C43   C50   S    
C91   H7    S    
C32   C33   A    
C56   C61   S    
C79   C85   A    
H19   O39   S    
C60   N4    A    
C30   C34   A    
C51   C106  S    
C19   C29   S    
C88   C90   A    
Cr1   O1    S    
C103  C109  S    
C5    O31   D    
C76   C82   A    
C79   C81   A    
C28   C30   A    
C78   C85   A    
Cr3   O23   S    
H24   O48   S    
N1    N8    A    
H11   O24   S    
Cr1   O17   S    
C61   N5    A    
C104  O57   A    
N2    N3    A    
C26   N10   A    
C45   C50   A    
C80   H8    S    
C106  O55   A    
C96   C103  A    
C91   C102  A    
C11   O46   S    
C4    O30   S    
C6    O35   S    
C14   O49   D    
H25   O50   S    
C16   C101  S    
Br12  C36   S    
H10   O21   S    
N6    N7    A    
C106  O3    A    
C98   C99   S    
C112  O26   S    
C111  O22   D    
C65   O17   A    
C31   C32   A    
Cr3   O45   S    
C96   C97   A    
C53   O23   A    
Br11  C57   S    
C35   C42   A    
C29   O16   A    
C90   C100  S    
C44   N12   A    
Br10  C49   S    
Cr1   O18   S    
C17   O15   A    
Cr3   O16   S    
Cr5   O7    S    
Br15  C78   S    
C70   C75   A    
Cr6   O2    S    
C99   C100  T    
Cr6   O3    S    
C2    C102  S    
Cr2   O13   S    
C25   C36   A    
C31   H23   S    
C64   C66   A    
H16   O32   S    
Br14  C66   S    
C89   H6    S    
C3    O28   S    
Br3   C74   S    
C104  O56   A    
C49   C50   A    
C15   O52   S    
C108  O8    A    
C7    O36   D    
C105  O2    A    
C40   H30   S    
C8    O38   D    
N9    N10   A    
C94   C95   A    
C105  O58   A    
C52   C59   A    
C64   C68   A    
Br6   C47   S    
C34   C104  S    
C32   C112  S    
H21   O43   S    
C16   O54   S    
C26   N1    A    
C26   C33   S    
C43   N11   A    
C85   C107  S    
C8    C63   S    
C108  O9    A    
C54   C55   A    
C18   C69   A    
C6    C48   S    
C73   C84   S    
Cr6   O9    S    
C20   H9    S    
C48   C49   A    
C9    O41   S    
C6    O33   D    
C56   C57   A    
C73   C74   A    
C110  O21   S    
C18   C105  S    
N11   N12   A    
C60   C67   S    
C7    C59   S    
H20   O41   S    
C14   O50   S    
C68   C108  S    
C74   C75   A    
C112  O25   D    
Cr5   O11   S    
C12   O48   S    
Cr2   O19   S    
C44   N2    A    
C96   H5    S    
C37   C38   A    
H15   O30   S    
C9    O40   D    
