data_mof_unit_8023.cif
_audit_creation_date              2012-12-11T14:51:48-0500
_audit_creation_method            fapswitch 2.2
_symmetry_space_group_name_H-M    P1
_symmetry_Int_Tables_number       1
_space_group_crystal_system       triclinic
_cell_length_a                    6.941141
_cell_length_b                    16.750897
_cell_length_c                    16.814517
_cell_angle_alpha                 101.172954
_cell_angle_beta                  89.165954
_cell_angle_gamma                 91.30818
_cell_volume                      1917.37314746

loop_
_atom_site_label
_atom_site_type_symbol
_atom_type_description
_atom_site_fract_x
_atom_site_fract_y
_atom_site_fract_z
_atom_type_partial_charge
O1    O     O_R   0.506340 0.439070 0.579550 -0.549231
O2    O     O_R   0.170010 0.404890 0.412100 -0.516481
O3    O     O_R   0.005010 0.560930 0.420450 -0.541010
C1    C     C_R   0.339870 0.380912 0.384012 0.743008
O4    O     O_R   0.176280 0.429360 0.578400 -0.537472
O5    O     O_R   0.011320 0.585570 0.587940 -0.544795
C2    C     C_R   0.342182 0.414856 0.606495 0.678216
O6    O     O_R   0.500030 0.414430 0.412060 -0.541324
O7    O     O_3   0.340950 0.551220 0.502940 -0.364842
V1    V     V_3+5 0.064020 0.490500 0.499460 1.465363
O8    O     O_R   0.681910 0.595110 0.587900 -0.539794
C3    C     C_R   0.850777 0.616437 0.618342 0.730399
O9    O     O_R   0.675640 0.570640 0.421600 -0.518817
C4    C     C_R   0.846556 0.585881 0.394532 0.784390
V2    V     V_3+5 0.564670 0.509500 0.500540 1.461057
O10   O     O_3   0.837610 0.448780 0.497060 -0.369014
C5    C     C_R   0.897691 0.868023 0.172591 -0.135290
C6    C     C_R   0.864816 0.636373 0.331179 -0.235098
C7    C     C_R   0.994356 0.654003 0.198718 0.177748
C8    C     C_R   0.965454 0.606581 0.259110 -0.253574
C9    C     C_R   0.790635 0.714979 0.343945 0.626357
C10   C     C_R   0.824467 0.765597 0.286554 -0.136115
C11   C     C_R   0.929793 0.735791 0.214222 -0.053195
C12   C     C_R   0.965662 0.788242 0.158560 -0.231198
C13   C     C_R   0.794144 0.897849 0.245343 -0.030044
C14   C     C_R   0.755866 0.845805 0.300629 0.673299
H1    H     H_    0.043404 0.767416 0.102431 0.147321
H2    H     H_    0.019325 0.545430 0.250800 0.148065
C15   C     C_3   0.705623 0.774010 0.778804 -0.226742
C16   C     C_3   0.782504 0.770915 0.690741 -0.138309
H3    H     H_    0.699632 0.787992 0.640839 0.149891
H4    H     H_    0.559967 0.794405 0.801001 0.155474
C17   C     C_3   0.863954 0.685547 0.690041 -0.114070
C18   C     C_3   0.787202 0.688560 0.777254 0.089595
C19   C     C_3   0.979479 0.727807 0.810612 0.581468
C20   C     C_3   0.058498 0.724219 0.723661 -0.230291
C21   C     C_3   0.975953 0.809454 0.725405 0.119005
C22   C     C_3   0.899997 0.812567 0.812352 -0.158211
H5    H     H_    0.203892 0.704714 0.700545 0.131369
C23   C     C_3   0.490201 0.236468 0.313073 -0.246240
C24   C     C_3   0.328180 0.180237 0.270233 0.587688
H6    H     H_    0.574676 0.224977 0.365112 0.169048
C25   C     C_3   0.409869 0.189188 0.186861 -0.231526
C26   C     C_3   0.573222 0.245417 0.228591 -0.121305
C27   C     C_3   0.442165 0.319250 0.230079 0.120017
C28   C     C_3   0.278773 0.263145 0.187183 -0.285162
C29   C     C_3   0.199323 0.253721 0.271468 0.585763
C30   C     C_3   0.359118 0.310365 0.313621 -0.225462
H7    H     H_    0.725718 0.242093 0.208095 0.207067
H8    H     H_    0.191943 0.274458 0.135698 0.164583
C31   C     C_R   0.425917 0.135766 0.829324 -0.208840
C32   C     C_R   0.339932 0.364717 0.671005 -0.078842
C33   C     C_R   0.195601 0.324557 0.791654 -0.134399
C34   C     C_R   0.203604 0.377577 0.736088 0.105726
C35   C     C_R   0.464578 0.298635 0.664207 -0.223772
C36   C     C_R   0.452850 0.245004 0.719372 0.035054
C37   C     C_R   0.317465 0.257846 0.783594 0.003389
C38   C     C_R   0.305661 0.203832 0.838586 0.517974
C39   C     C_R   0.555663 0.120935 0.761803 0.079429
C40   C     C_R   0.571300 0.177302 0.709631 -0.170140
H9    H     H_    0.090241 0.334920 0.840614 0.175904
H10   H     H_    0.674266 0.167171 0.659763 0.140321
H11   H     H_    0.566435 0.287220 0.613982 0.127290
O11   O     O_R   0.266070 0.085680 0.087850 -0.524779
O12   O     O_R   0.590090 0.070660 0.921580 -0.549819
O13   O     O_R   0.754780 0.914400 0.912080 -0.551044
C41   C     C_R   0.424163 0.084740 0.893087 0.753339
O14   O     O_R   0.596110 0.095130 0.087880 -0.549149
O15   O     O_R   0.760850 0.939050 0.079570 -0.548367
C42   C     C_R   0.426678 0.118663 0.116449 0.780622
O16   O     O_R   0.260010 0.061030 0.920360 -0.514652
O17   O     O_3   0.425070 0.948840 0.997010 -0.376395
V3    V     V_3+5 0.702100 0.009490 0.000550 1.456409
O18   O     O_R   0.090200 0.929250 0.078500 -0.529694
C43   C     C_R   0.919092 0.916026 0.107094 0.743679
O19   O     O_R   0.084180 0.904770 0.912200 -0.535529
C44   C     C_R   0.914814 0.882514 0.882797 0.719275
V4    V     V_3+5 0.201420 0.990350 0.999580 1.520229
O20   O     O_3   0.928580 0.051150 0.002990 -0.358183
F1    F     F_    0.080545 0.705787 0.873025 -0.719944
C45   C     C_3   0.088349 0.877821 0.696079 -0.403587
C46   C     C_3   0.123919 0.857074 0.604649 -0.651019
H12   H     H_    0.214187 0.802236 0.588777 0.234936
H13   H     H_    0.985255 0.845634 0.571860 0.245084
H14   H     H_    0.199672 0.908715 0.584339 0.224420
H15   H     H_    0.006384 0.934804 0.711518 0.176958
H16   H     H_    0.228594 0.887717 0.727868 0.177354
F2    F     F_    0.269781 0.107454 0.290744 -0.705503
C47   C     C_3   0.512940 0.400183 0.210266 -0.319027
C48   C     C_3   0.566774 0.391876 0.120839 -0.739137
H17   H     H_    0.683220 0.347082 0.104299 0.233592
H18   H     H_    0.439305 0.371852 0.082335 0.241307
H19   H     H_    0.618925 0.451707 0.109053 0.216294
H20   H     H_    0.397992 0.445454 0.226569 0.155225
H21   H     H_    0.641055 0.422204 0.247719 0.185446
F3    F     F_    0.008502 0.256751 0.295880 -0.702762
F4    F     F_    0.180505 0.218645 0.902470 -0.702674
C49   C     C_3   0.724182 0.984997 0.266606 -0.313787
C50   C     C_3   0.829176 0.033931 0.340104 -0.583975
H22   H     H_    0.783394 0.013732 0.396639 0.251963
H23   H     H_    0.987155 0.026855 0.332148 0.273277
H24   H     H_    0.795565 0.099409 0.346786 0.227332
H25   H     H_    0.746737 0.018470 0.216506 0.177607
H26   H     H_    0.566615 0.984576 0.279283 0.239498
C51   C     C_3   0.674933 0.044719 0.740747 -0.359461
C52   C     C_3   0.614641 0.993062 0.659420 -0.725378
H27   H     H_    0.457834 0.979157 0.660364 0.229192
H28   H     H_    0.648594 0.025015 0.608793 0.241253
H29   H     H_    0.692759 0.934941 0.648127 0.225441
H30   H     H_    0.829692 0.062561 0.737928 0.184758
H31   H     H_    0.660047 0.005049 0.786018 0.179264
C53   C     C_3   0.059034 0.445110 0.747203 -0.384677
C54   C     C_3   0.864232 0.411648 0.713096 -0.678363
H32   H     H_    0.881399 0.373792 0.651553 0.235085
H33   H     H_    0.795666 0.373859 0.753533 0.219216
H34   H     H_    0.767402 0.462019 0.708233 0.206214
H35   H     H_    0.042188 0.471762 0.812764 0.179399
H36   H     H_    0.108358 0.496233 0.718281 0.183662
C55   C     C_3   0.090839 0.618864 0.117605 -0.322490
C56   C     C_3   0.136084 0.528308 0.102524 -0.768312
H37   H     H_    0.246596 0.517126 0.145576 0.229213
H38   H     H_    0.003676 0.491261 0.108323 0.230537
H39   H     H_    0.195167 0.509235 0.040155 0.231710
H40   H     H_    0.993861 0.627595 0.068071 0.194975
H41   H     H_    0.227835 0.653155 0.112140 0.189060
F5    F     F_    0.648216 0.873772 0.368041 -0.638964
F6    F     F_    0.693828 0.742934 0.414345 -0.643736
C57   C     C_3   0.688255 0.623513 0.816818 -0.332692
C58   C     C_3   0.492779 0.596361 0.780041 -0.750908
H42   H     H_    0.506946 0.570633 0.714518 0.218854
H43   H     H_    0.428774 0.548764 0.810578 0.223532
H44   H     H_    0.394705 0.648629 0.789127 0.264019
H45   H     H_    0.783716 0.570839 0.811816 0.185701
H46   H     H_    0.667209 0.648855 0.882411 0.208408

loop_
_geom_bond_atom_site_label_1
_geom_bond_atom_site_label_2
_ccdc_geom_bond_type
C26   H7    S    
C35   C36   A    
C6    C9    A    
C4    C6    S    
O2    C1    A    
C7    C8    A    
C12   H1    S    
C1    O6    A    
C57   C58   S    
C45   C46   S    
C37   C38   A    
C55   H40   S    
C26   C27   S    
C21   C22   S    
C20   C21   S    
C51   H30   S    
O19   V4    S    
C2    C32   S    
C58   H42   S    
C15   H4    S    
O5    C3    A    
C16   H3    S    
C52   H27   S    
V2    O10   S    
C19   F1    S    
C17   C20   S    
O12   V3    S    
C36   C37   A    
C40   H10   S    
C18   C19   S    
C14   F5    S    
C47   H20   S    
O13   C44   A    
O17   V4    S    
O8    V2    S    
C19   C20   S    
C32   C34   A    
O12   C41   A    
C35   H11   S    
C15   C22   S    
C11   C12   A    
O15   V3    S    
O1    V2    S    
O11   C42   A    
C9    F6    S    
C27   C47   S    
O7    V1    S    
C41   O16   A    
C45   H15   S    
C32   C35   A    
C58   H44   S    
C23   H6    S    
C51   H31   S    
C7    C55   S    
C39   C40   A    
O9    C4    A    
C24   C25   S    
C21   C45   S    
C38   F4    S    
C33   H9    S    
C53   C54   S    
C56   H38   S    
V3    O20   S    
C5    C12   A    
O18   C43   A    
C19   C22   S    
O19   C44   A    
O4    C2    A    
C33   C37   A    
V4    O20   S    
C31   C41   S    
C8    H2    S    
O14   V3    S    
C33   C34   A    
O13   V3    S    
C15   C18   S    
C36   C40   A    
C16   C21   S    
C47   H21   S    
C7    C11   A    
C25   C26   S    
C15   C16   S    
C57   H46   S    
C48   H18   S    
C29   C30   S    
C29   F3    S    
C17   C18   S    
C24   C29   S    
C34   C53   S    
C31   C38   A    
C39   C51   S    
C45   H16   S    
O3    C4    A    
C55   H41   S    
O14   C42   A    
C23   C24   S    
C50   H23   S    
C49   C50   S    
O6    V2    S    
C46   H13   S    
O9    V2    S    
C10   C14   A    
C31   C39   A    
O2    V1    S    
C56   H37   S    
C48   H19   S    
C54   H32   S    
C1    C30   S    
C27   C30   S    
C23   C30   S    
C24   F2    S    
C28   C29   S    
C16   C17   S    
O1    C2    A    
O11   V4    S    
C20   H5    S    
O17   V3    S    
O5    V1    S    
C55   C56   S    
C56   H39   S    
C22   C44   S    
C25   C42   S    
C46   H14   S    
C51   C52   S    
C28   H8    S    
C50   H22   S    
C5    C13   A    
C54   H34   S    
C13   C14   A    
O4    V1    S    
O3    V1    S    
V1    O10   S    
C57   H45   S    
C53   H36   S    
C48   H17   S    
C53   H35   S    
C52   H28   S    
C3    C17   S    
C49   H26   S    
O15   C43   A    
C6    C8    A    
O7    V2    S    
C25   C28   S    
C27   C28   S    
C13   C49   S    
C23   C26   S    
C50   H24   S    
C18   C57   S    
C46   H12   S    
O18   V4    S    
C5    C43   S    
C10   C11   A    
C54   H33   S    
C47   C48   S    
C9    C10   A    
O16   V4    S    
C49   H25   S    
O8    C3    A    
C58   H43   S    
C52   H29   S    
