data_mof_unit_50829.cif
_audit_creation_date              2012-12-11T15:57:51-0500
_audit_creation_method            fapswitch 2.2
_symmetry_space_group_name_H-M    P1
_symmetry_Int_Tables_number       1
_space_group_crystal_system       triclinic
_cell_length_a                    10.739383
_cell_length_b                    10.699896
_cell_length_c                    16.975881
_cell_angle_alpha                 99.625228
_cell_angle_beta                  99.699754
_cell_angle_gamma                 61.45558
_cell_volume                      1680.60483534

loop_
_atom_site_label
_atom_site_type_symbol
_atom_type_description
_atom_site_fract_x
_atom_site_fract_y
_atom_site_fract_z
_atom_type_partial_charge
C1    C     C_R   0.356576 0.772222 0.400266 0.561047
C2    C     C_2   0.333751 0.354554 0.833654 -0.108288
C3    C     C_2   0.455084 0.281774 0.799976 -0.151186
C4    C     C_R   0.369298 0.345981 0.357297 0.551990
C5    C     C_2   0.461933 0.301712 0.719064 -0.148802
C6    C     C_1   0.846805 0.328632 0.704933 -0.044987
C7    C     C_1   0.894166 0.293243 0.771413 -0.042448
C8    C     C_1   0.358831 0.763139 0.713651 -0.032099
C9    C     C_1   0.325715 0.810508 0.780523 -0.033524
C10   C     C_R   0.955044 0.284290 0.098972 0.565239
C11   C     C_R   0.319074 0.300108 0.119659 0.544621
C12   C     C_2   0.910750 0.300596 0.177548 -0.105584
C13   C     C_R   0.294894 0.890188 0.083550 0.537847
C14   C     C_R   0.944160 0.272997 0.853787 0.565154
C15   C     C_R   0.308076 0.295917 0.895845 0.553900
C16   C     C_R   0.780859 0.374909 0.407081 0.553176
C17   C     C_R   0.280311 0.880762 0.857245 0.546743
C18   C     C_R   0.381484 0.713762 0.631357 0.557521
C19   C     C_R   0.371350 0.348248 0.584064 0.543789
C20   C     C_R   0.777716 0.378731 0.628922 0.539101
C21   C     C_1   0.342801 0.335988 0.273913 -0.042770
C22   C     C_1   0.331463 0.326649 0.202982 -0.046457
C23   C     C_2   0.936840 0.186983 0.213913 -0.172899
C24   C     C_2   0.875815 0.319421 0.344455 -0.113894
C25   C     C_3   0.563295 0.861500 0.190465 -0.214627
C26   C     C_3   0.691929 0.831472 0.253994 -0.315202
C27   C     C_3   0.793377 0.877079 0.229312 -0.443918
C28   C     C_2   0.885741 0.207519 0.292154 -0.164512
C29   C     C_2   0.343167 0.831861 0.326976 -0.120661
C30   C     C_2   0.348657 0.814931 0.155290 -0.107177
C31   C     C_2   0.455372 0.818786 0.209170 -0.039844
C32   C     C_2   0.461568 0.784187 0.289878 -0.142343
C33   C     C_2   0.349033 0.336024 0.662934 -0.092743
Cr1   Cr    Cr6+3 0.608020 0.610770 0.522990 1.031392
Cr2   Cr    Cr6+3 0.289390 0.599570 0.488050 1.026187
Cr3   Cr    Cr6+3 0.602610 0.289690 0.489020 1.020009
Cr4   Cr    Cr6+3 0.053780 0.052210 0.965970 1.028454
Cr5   Cr    Cr6+3 0.060060 0.372530 0.992430 1.020732
Cr6   Cr    Cr6+3 0.372600 0.061970 0.991430 1.009836
H1    H     H_    0.985842 0.079518 0.183489 0.150120
H2    H     H_    0.237855 0.899277 0.298812 0.098239
H3    H     H_    0.547316 0.195084 0.828166 0.168050
H4    H     H_    0.837127 0.814303 0.172579 0.159637
H5    H     H_    0.736709 0.992663 0.220550 0.162015
H6    H     H_    0.883288 0.857928 0.277020 0.149611
H7    H     H_    0.654958 0.891727 0.312583 0.179676
H8    H     H_    0.751291 0.715185 0.261229 0.159219
H9    H     H_    0.605082 0.801903 0.132638 0.169896
H10   H     H_    0.507732 0.978013 0.184601 0.193233
H11   H     H_    0.566541 0.275867 0.703784 0.161299
H12   H     H_    0.245125 0.447213 0.807948 0.112078
H13   H     H_    0.243145 0.362536 0.675976 0.095514
H14   H     H_    0.843494 0.138568 0.303010 0.149944
H15   H     H_    0.855379 0.408925 0.205979 0.108862
H16   H     H_    0.925368 0.383157 0.335368 0.105443
H17   H     H_    0.565605 0.714267 0.318180 0.157810
H18   H     H_    0.283257 0.771895 0.170675 0.101145
O1    O     O_R   0.749250 0.499990 0.439200 -0.523548
O2    O     O_R   0.411120 0.181190 0.091480 -0.524380
O3    O     O_R   0.364220 0.944920 0.062310 -0.510390
O4    O     O_R   0.477870 0.725740 0.440280 -0.493818
O5    O     O_R   0.158740 0.906940 0.874970 -0.509715
O6    O     O_R   0.930920 0.176940 0.885610 -0.483682
O7    O     O_R   0.910730 0.394510 0.895320 -0.495512
O8    O     O_R   0.185840 0.361180 0.920280 -0.513295
O9    O     O_R   0.399210 0.173040 0.915160 -0.503512
O10   O     O_R   0.353170 0.937370 0.898860 -0.490345
O11   O     O_3   0.162150 0.162240 0.983280 -0.287840
O12   O     O_R   0.299400 0.468710 0.556310 -0.508184
O13   O     O_R   0.260770 0.742210 0.412610 -0.507074
O14   O     O_R   0.297990 0.466320 0.394220 -0.497143
O15   O     O_R   0.487720 0.253870 0.385870 -0.512233
O16   O     O_R   0.721940 0.304340 0.422320 -0.492153
O17   O     O_R   0.750770 0.502570 0.614050 -0.506878
O18   O     O_R   0.479280 0.728140 0.602370 -0.483662
O19   O     O_R   0.262290 0.744790 0.587460 -0.501935
O20   O     O_R   0.489240 0.256450 0.560730 -0.507835
O21   O     O_R   0.723350 0.306730 0.584410 -0.504916
O22   O     O_3   0.500010 0.500010 0.500020 -0.272187
O23   O     O_R   0.170650 0.915100 0.051290 -0.524678
O24   O     O_R   0.941960 0.184500 0.049060 -0.481099
O25   O     O_R   0.922640 0.402670 0.071640 -0.507977
O26   O     O_R   0.196880 0.368740 0.083740 -0.510572

loop_
_geom_bond_atom_site_label_1
_geom_bond_atom_site_label_2
_ccdc_geom_bond_type
C25   C31   S    
Cr4   O11   S    
C3    H3    S    
C18   O18   A    
Cr5   O26   S    
Cr6   O11   S    
Cr4   O5    S    
C13   O3    A    
C24   H16   S    
C12   C23   D    
C26   C27   S    
C29   C32   D    
Cr3   O20   S    
C30   C31   D    
Cr1   O22   S    
C14   O6    A    
C23   H1    S    
C15   O8    A    
C30   H18   S    
C19   O20   A    
C27   H5    S    
C7    C14   S    
Cr2   O13   S    
C8    C9    T    
C5    C33   D    
Cr1   O18   S    
C27   H6    S    
C13   O23   A    
Cr2   O14   S    
C16   C24   S    
C21   C22   T    
Cr5   O25   S    
Cr4   O24   S    
C11   O2    A    
Cr4   O6    S    
Cr5   O7    S    
Cr4   O23   S    
Cr2   O19   S    
C17   O10   A    
C16   O16   A    
C13   C30   S    
C19   C33   S    
C11   O26   A    
C25   C26   S    
C15   O9    A    
C10   O25   A    
Cr1   O4    S    
C8    C18   S    
C33   H13   S    
C17   O5    A    
C31   C32   S    
Cr5   O8    S    
Cr6   O2    S    
C1    C29   S    
C20   O17   A    
C16   O1    A    
C23   C28   S    
C2    C15   S    
C25   H9    S    
C10   C12   S    
C26   H8    S    
Cr1   O17   S    
C14   O7    A    
C9    C17   S    
Cr5   O11   S    
Cr6   O9    S    
C5    H11   S    
C19   O12   A    
C4    O15   A    
C18   O19   A    
C11   C22   S    
C29   H2    S    
Cr6   O10   S    
C24   C28   D    
C3    C5    S    
Cr3   O22   S    
C1    O4    A    
C28   H14   S    
C6    C7    T    
C6    C20   S    
C10   O24   A    
C1    O13   A    
C20   O21   A    
C2    C3    D    
Cr3   O21   S    
C4    C21   S    
Cr6   O3    S    
Cr2   O22   S    
C25   H10   S    
C2    H12   S    
C26   H7    S    
C27   H4    S    
Cr2   O12   S    
Cr1   O1    S    
Cr3   O16   S    
C32   H17   S    
C4    O14   A    
C12   H15   S    
Cr3   O15   S    
