data_mof_unit_59788.cif
_audit_creation_date              2012-12-10T20:02:28-0500
_audit_creation_method            fapswitch 2.2
_symmetry_space_group_name_H-M    P1
_symmetry_Int_Tables_number       1
_space_group_crystal_system       triclinic
_cell_length_a                    10.696466
_cell_length_b                    14.973588
_cell_length_c                    14.151543
_cell_angle_alpha                 89.898378
_cell_angle_beta                  90.096485
_cell_angle_gamma                 89.78504
_cell_volume                      2266.55169809

loop_
_atom_site_label
_atom_site_type_symbol
_atom_type_description
_atom_site_fract_x
_atom_site_fract_y
_atom_site_fract_z
_atom_type_partial_charge
C1    C     C_R   0.499242 0.327551 0.500143 0.900076
C2    C     C_R   0.581107 0.811910 0.437722 -0.242849
C3    C     C_R   0.498747 0.231379 0.500768 -0.106701
C4    C     C_R   0.500957 0.767239 0.499386 -0.102612
C5    C     C_R   0.466007 0.184865 0.418830 -0.163452
C6    C     C_R   0.422016 0.813564 0.560554 -0.202513
C7    C     C_R   0.467186 0.092697 0.419516 -0.145147
C8    C     C_R   0.422426 0.905686 0.559568 -0.134182
C9    C     C_R   0.503983 0.047086 0.501245 0.045039
C10   C     C_R   0.504648 0.950938 0.499660 0.035925
C11   C     C_R   0.397083 0.471263 0.104170 -0.261180
C12   C     C_R   0.500045 0.671972 0.499873 0.885397
C13   C     C_R   0.522160 0.577592 0.895640 -0.261787
C14   C     C_R   0.397821 0.471504 0.203536 0.009845
C15   C     C_R   0.521493 0.576949 0.796281 -0.007780
C16   C     C_R   0.260103 0.502911 0.499869 0.870291
C17   C     C_R   0.740042 0.497955 0.500266 0.886599
C18   C     C_R   0.603414 0.528582 0.205172 -0.032983
C19   C     C_R   0.479452 0.422228 0.795290 -0.052912
C20   C     C_R   0.607618 0.528504 0.105695 0.315599
C21   C     C_R   0.480561 0.419445 0.894786 0.298572
C22   C     C_R   0.502867 0.499356 0.053309 0.079500
C23   C     C_R   0.872539 0.497998 0.500991 -0.076961
C24   C     C_R   0.502031 0.498358 0.946839 0.063331
C25   C     C_R   0.256724 0.730996 0.312109 -0.092675
C26   C     C_R   0.799683 0.262086 0.709328 -0.129398
C27   C     C_R   0.197539 0.679667 0.381369 -0.100309
C28   C     C_R   0.851381 0.312211 0.635791 -0.160406
C29   C     C_R   0.121639 0.607296 0.355325 0.119198
C30   C     C_R   0.880367 0.402474 0.649851 0.119663
C31   C     C_R   0.103799 0.588329 0.259044 -0.148857
C32   C     C_R   0.856786 0.442142 0.737906 -0.091529
C33   C     C_R   0.163311 0.639770 0.190027 -0.117042
C34   C     C_R   0.127734 0.505961 0.500062 -0.082931
C35   C     C_R   0.803164 0.392133 0.810736 -0.123488
C36   C     C_R   0.240088 0.710806 0.216544 -0.098997
C37   C     C_R   0.774688 0.302129 0.796470 -0.087566
C38   C     C_R   0.932511 0.545458 0.429271 -0.227510
C39   C     C_R   0.067685 0.459026 0.571927 -0.228091
C40   C     C_R   0.939634 0.454790 0.573531 -0.008578
C41   C     C_R   0.060974 0.551310 0.428656 0.000772
C42   C     C_R   0.536569 0.093377 0.583812 0.411271
C43   C     C_R   0.584734 0.904227 0.438398 0.417490
C44   C     C_R   0.531869 0.185630 0.583471 -0.252888
Cl1   Cl    Cl    0.747190 0.561442 0.050100 -0.657203
Cl2   Cl    Cl    0.460814 0.315476 0.950882 -0.605576
Cl3   Cl    Cl    0.587385 0.038477 0.687369 -0.602185
Cl4   Cl    Cl    0.693407 0.958657 0.364856 -0.585618
H1    H     H_    0.286448 0.750323 0.163033 0.146659
H2    H     H_    0.778980 0.192167 0.698734 0.192834
H3    H     H_    0.211292 0.695914 0.455201 0.103018
H4    H     H_    0.869978 0.280648 0.568436 0.147766
H5    H     H_    0.045495 0.532937 0.237582 0.154696
H6    H     H_    0.879235 0.511701 0.749755 0.148205
H7    H     H_    0.150455 0.624236 0.115984 0.156997
H8    H     H_    0.783923 0.423053 0.878254 0.193490
H9    H     H_    0.878928 0.580661 0.375588 0.163023
H10   H     H_    0.120795 0.423754 0.625866 0.171494
H11   H     H_    0.555933 0.221432 0.647303 0.187631
H12   H     H_    0.733620 0.263374 0.852993 0.194967
H13   H     H_    0.642714 0.774962 0.391106 0.181962
H14   H     H_    0.683859 0.551046 0.244792 0.160900
H15   H     H_    0.463350 0.361411 0.756208 0.171973
H16   H     H_    0.438528 0.219561 0.354798 0.179303
H17   H     H_    0.359088 0.778469 0.607561 0.158204
H18   H     H_    0.440127 0.056727 0.356354 0.177371
H19   H     H_    0.359530 0.941898 0.605800 0.179646
H20   H     H_    0.314056 0.449298 0.067145 0.187156
H21   H     H_    0.538046 0.639893 0.932418 0.195199
H22   H     H_    0.316166 0.448900 0.241471 0.149983
H23   H     H_    0.538179 0.638449 0.758364 0.162860
H24   H     H_    0.315711 0.786303 0.332535 0.142255
N1    N     N_R   0.500000 0.499980 0.252470 -0.117359
N2    N     N_R   0.500000 0.500020 0.747530 -0.117490
O1    O     O_R   0.500010 0.369070 0.579480 -0.632209
O2    O     O_R   0.499990 0.630930 0.420520 -0.617630
O3    O     O_R   0.500010 0.369060 0.420520 -0.610231
O4    O     O_R   0.499990 0.630940 0.579480 -0.624533
O5    O     O_R   0.316760 0.500010 0.579480 -0.619177
O6    O     O_R   0.683240 0.499990 0.420520 -0.631712
O7    O     O_R   0.316760 0.500000 0.420520 -0.622599
O8    O     O_R   0.683240 0.500000 0.579480 -0.607266
Zn1   Zn    Zn3+2 0.500000 0.500010 0.606140 0.960408
Zn2   Zn    Zn3+2 0.500000 0.499990 0.393860 0.965543

loop_
_geom_bond_atom_site_label_1
_geom_bond_atom_site_label_2
_ccdc_geom_bond_type
C33   H7    S    
C30   C32   A    
C27   C29   A    
C1    O3    A    
N2    Zn1   S    
O6    Zn2   S    
O2    Zn2   S    
C9    C42   A    
C17   C23   S    
C35   C37   A    
C26   H2    S    
C11   C14   A    
C44   H11   S    
C23   C40   A    
C33   C36   A    
C17   O8    A    
C16   C34   S    
O4    Zn1   S    
C6    H17   S    
C19   H15   S    
C12   O4    A    
C31   C33   A    
C4    C12   S    
C9    C10   S    
N1    Zn2   S    
C20   Cl1   S    
C2    H13   S    
C10   C43   A    
C14   H22   S    
C34   C41   A    
C42   C44   A    
C32   H6    S    
C27   H3    S    
C3    C44   A    
C34   C39   A    
C1    O1    A    
C14   N1    A    
C38   C41   A    
C4    C6    A    
C39   C40   A    
C5    C7    A    
C18   H14   S    
C6    C8    A    
O3    Zn2   S    
C39   H10   S    
C17   O6    A    
C13   C24   A    
C1    C3    S    
C2    C4    A    
C32   C35   A    
C38   H9    S    
C2    C43   A    
C30   C40   S    
C25   H24   S    
C31   H5    S    
C20   C22   A    
C18   N1    A    
C13   C15   A    
C12   O2    A    
C22   C24   S    
O7    Zn2   S    
C11   H20   S    
C21   Cl2   S    
C43   Cl4   S    
C7    C9    A    
C29   C41   S    
C35   H8    S    
C19   N2    A    
C3    C5    A    
C26   C37   A    
C25   C27   A    
C23   C38   A    
C15   H23   S    
C11   C22   A    
C26   C28   A    
C16   O5    A    
C28   C30   A    
C29   C31   A    
C7    H18   S    
O5    Zn1   S    
C28   H4    S    
O1    Zn1   S    
C13   H21   S    
C16   O7    A    
C18   C20   A    
C42   Cl3   S    
C37   H12   S    
C25   C36   A    
C15   N2    A    
C5    H16   S    
C8    H19   S    
C8    C10   A    
O8    Zn1   S    
C21   C24   A    
C36   H1    S    
C19   C21   A    
