data_mof_unit_67390.cif
_audit_creation_date              2013-03-05T16:11:01-0500
_audit_creation_method            fapswitch 2.2
_symmetry_space_group_name_H-M    P1
_symmetry_Int_Tables_number       1
_space_group_crystal_system       triclinic
_cell_length_a                    17.104017
_cell_length_b                    27.927499
_cell_length_c                    8.832059
_cell_angle_alpha                 90.171016
_cell_angle_beta                  104.727831
_cell_angle_gamma                 89.822506
_cell_volume                      4080.1885499

loop_
_atom_site_label
_atom_site_type_symbol
_atom_site_description
_atom_site_fract_x
_atom_site_fract_y
_atom_site_fract_z
_atom_type_partial_charge
P1    P     P_3+3 0.171820 0.553000 0.158080 0.488341
P2    P     P_3+3 0.171820 0.447000 0.658080 0.478561
P3    P     P_3+3 0.671820 0.053000 0.158080 0.475543
P4    P     P_3+3 0.671820 0.947000 0.658080 0.487636
O1    O     O_2   0.163830 0.569270 0.980510 -0.369715
O2    O     O_2   0.163830 0.430730 0.480510 -0.366315
O3    O     O_2   0.663830 0.069270 0.980510 -0.378326
O4    O     O_2   0.663830 0.930730 0.480510 -0.376294
O5    O     O_3   0.095420 0.524330 0.188510 -0.436772
O6    O     O_3   0.095420 0.475670 0.688510 -0.463376
O7    O     O_3   0.595420 0.024330 0.188510 -0.467230
O8    O     O_3   0.595420 0.975670 0.688510 -0.428040
O9    O     O_3   0.028940 0.612400 0.656050 -0.404490
O10   O     O_3   0.028940 0.387600 0.156050 -0.377789
O11   O     O_3   0.528940 0.112400 0.656050 -0.364590
O12   O     O_3   0.528940 0.887600 0.156050 -0.420007
O13   O     O_2   0.161916 0.649623 0.831657 -0.309661
O14   O     O_2   0.161905 0.350463 0.337112 -0.310431
O15   O     O_2   0.661427 0.147408 0.837908 -0.376428
O16   O     O_2   0.660505 0.851131 0.329832 -0.370979
O17   O     O_3   0.264547 0.520264 0.214924 -0.546031
O18   O     O_3   0.262868 0.480783 0.710662 -0.532116
O19   O     O_3   0.765623 0.021427 0.215589 -0.521225
O20   O     O_3   0.765713 0.977792 0.716626 -0.540224
O21   O     O_3   0.062404 0.713558 0.677273 -0.512284
O22   O     O_3   0.063543 0.287231 0.177168 -0.532333
O23   O     O_3   0.563418 0.214602 0.707625 -0.547944
O24   O     O_3   0.563880 0.784104 0.197051 -0.516266
C1    C     C_3   0.967066 0.773411 0.530587 0.060354
C2    C     C_3   0.970350 0.227709 0.027768 0.050455
C3    C     C_3   0.463002 0.278362 0.605849 0.028974
C4    C     C_3   0.460079 0.721542 0.134762 0.051757
H1    H     H_    0.948859 0.785909 0.635473 0.096633
H2    H     H_    0.948983 0.216753 0.130499 0.093281
H3    H     H_    0.434221 0.284014 0.704125 0.130626
H4    H     H_    0.440779 0.716616 0.244970 0.156599
P5    P     P_3+3 0.829210 0.554130 0.532500 0.511773
P6    P     P_3+3 0.829210 0.445870 0.032500 0.513899
P7    P     P_3+3 0.329210 0.054130 0.532500 0.512742
P8    P     P_3+3 0.329210 0.945870 0.032500 0.499846
P9    P     P_3+3 0.898797 0.656805 0.033195 0.485564
P10   P     P_3+3 0.903229 0.341107 0.537594 0.484964
P11   P     P_3+3 0.399682 0.157542 0.026903 0.543420
P12   P     P_3+3 0.400486 0.842197 0.525219 0.542777
O25   O     O_2   0.837400 0.570350 0.710350 -0.298462
O26   O     O_2   0.837400 0.429650 0.210350 -0.300491
O27   O     O_2   0.337400 0.070350 0.710350 -0.290103
O28   O     O_2   0.337400 0.929650 0.210350 -0.298184
O29   O     O_3   0.972820 0.612580 0.035550 -0.316583
O30   O     O_3   0.972820 0.387420 0.535550 -0.334037
O31   O     O_3   0.472820 0.112580 0.035550 -0.336544
O32   O     O_3   0.472820 0.887420 0.535550 -0.324458
O33   O     O_2   0.848435 0.661819 0.861436 -0.416401
O34   O     O_2   0.854063 0.333257 0.366193 -0.429046
O35   O     O_2   0.335996 0.150521 0.869862 -0.366840
O36   O     O_2   0.338435 0.848881 0.366324 -0.369041
O37   O     O_3   0.738517 0.521742 0.478412 -0.620168
O38   O     O_3   0.737385 0.477395 0.977522 -0.623655
O39   O     O_3   0.237956 0.022331 0.481517 -0.613814
O40   O     O_3   0.237283 0.977059 0.980051 -0.605602
O41   O     O_3   0.944173 0.712884 0.084347 -0.637542
O42   O     O_3   0.954230 0.286882 0.599175 -0.632346
O43   O     O_3   0.440208 0.214986 0.010817 -0.602115
O44   O     O_3   0.445632 0.785784 0.509849 -0.593803
C5    C     C_3   0.007407 0.722399 0.013913 0.655562
C6    C     C_3   0.008232 0.271882 0.511558 0.659653
C7    C     C_3   0.525105 0.216157 0.071591 0.572147
C8    C     C_3   0.528559 0.786345 0.590989 0.641718
H5    H     H_    0.002929 0.700314 0.907511 0.066172
H6    H     H_    0.001126 0.293245 0.403453 0.043419
H7    H     H_    0.553658 0.186691 0.019416 0.043987
H8    H     H_    0.558363 0.818376 0.556510 0.022016
C9    C     C_3   0.001162 0.775813 0.966508 -0.101281
C10   C     C_3   0.990854 0.218201 0.466819 -0.079034
C11   C     C_3   0.558072 0.264185 0.025593 -0.007221
C12   C     C_3   0.573728 0.742475 0.547504 -0.050949
H9    H     H_    0.940361 0.780717 0.885243 0.119807
H10   H     H_    0.932683 0.216971 0.375034 0.095804
H11   H     H_    0.532976 0.268632 0.900687 0.142290
H12   H     H_    0.562741 0.740505 0.420162 0.144053
C13   C     C_3   0.733380 0.518569 0.064719 0.492979
C14   C     C_3   0.735798 0.480918 0.567458 0.498034
C15   C     C_3   0.235482 0.018126 0.069633 0.500219
C16   C     C_3   0.237359 0.981075 0.570080 0.498701
H13   H     H_    0.771401 0.515459 0.186924 0.042088
H14   H     H_    0.773994 0.484648 0.689336 0.041674
H15   H     H_    0.275162 0.014817 0.190443 0.034681
H16   H     H_    0.277382 0.984450 0.690584 0.037605
C17   C     C_3   0.644021 0.525176 0.071620 -0.005825
C18   C     C_3   0.646757 0.474069 0.575381 -0.008065
C19   C     C_3   0.147599 0.025300 0.083479 0.010696
C20   C     C_3   0.149859 0.973028 0.584711 0.011672
H17   H     H_    0.631336 0.496191 0.147900 0.187763
H18   H     H_    0.634023 0.502947 0.652573 0.186332
H19   H     H_    0.135857 0.996818 0.162405 0.188730
H20   H     H_    0.137998 0.000881 0.666082 0.189178
Ba1   Ba    Ba6+2 0.000400 0.534870 0.845190 1.622846
Ba2   Ba    Ba6+2 0.000400 0.465130 0.345190 1.621336
Ba3   Ba    Ba6+2 0.500400 0.034870 0.845190 1.618778
Ba4   Ba    Ba6+2 0.500400 0.965130 0.345190 1.619801
C21   C     C_3   0.269411 0.474816 0.147554 0.184925
C22   C     C_3   0.263446 0.526602 0.643925 0.174753
C23   C     C_3   0.771766 0.975341 0.153562 0.175095
C24   C     C_3   0.773646 0.023377 0.654389 0.185276
C25   C     C_3   0.358515 0.457764 0.192227 0.061394
C26   C     C_3   0.351949 0.543867 0.676635 0.056987
C27   C     C_3   0.861193 0.958618 0.203075 0.064376
C28   C     C_3   0.863098 0.038984 0.710438 0.062179
H21   H     H_    0.360839 0.419322 0.159531 0.101055
H22   H     H_    0.352688 0.581841 0.638815 0.090181
H23   H     H_    0.863966 0.919671 0.177278 0.128042
H24   H     H_    0.867969 0.077524 0.682346 0.136953
H25   H     H_    0.383893 0.460201 0.320520 0.184353
H26   H     H_    0.380680 0.542677 0.804434 0.179301
H27   H     H_    0.885883 0.963141 0.331136 0.177635
H28   H     H_    0.884718 0.035385 0.839193 0.176145
O45   O     O_3   0.904940 0.476110 0.001150 -0.351287
O46   O     O_3   0.904940 0.523890 0.501150 -0.354038
O47   O     O_3   0.404940 0.976110 0.001150 -0.361193
O48   O     O_3   0.404940 0.023890 0.501150 -0.357418
P13   P     P_3+3 0.104922 0.344367 0.172084 0.493764
P14   P     P_3+3 0.103577 0.656026 0.668068 0.468624
P15   P     P_3+3 0.600328 0.842119 0.169852 0.485550
P16   P     P_3+3 0.602370 0.157328 0.677358 0.496099
C29   C     C_3   0.992358 0.719405 0.553346 0.247522
C30   C     C_3   0.995974 0.281464 0.048634 0.221840
C31   C     C_3   0.487918 0.224324 0.601488 0.203959
C32   C     C_3   0.481239 0.775731 0.122006 0.222603
H29   H     H_    0.003389 0.706232 0.441724 0.119860
H30   H     H_    0.010295 0.293742 0.938797 0.138397
H31   H     H_    0.491860 0.217444 0.483699 0.191065
H32   H     H_    0.468031 0.783923 0.997810 0.147349
C33   C     C_2   0.858394 0.383936 0.787407 -0.455180
C34   C     C_2   0.855148 0.614479 0.283042 -0.488748
C35   C     C_2   0.361576 0.883447 0.786678 -0.405255
C36   C     C_2   0.362935 0.116533 0.290507 -0.393000
C37   C     C_R   0.137035 0.620242 0.386867 -0.293972
C38   C     C_R   0.137976 0.381830 0.897792 -0.326108
C39   C     C_R   0.643203 0.113995 0.414248 -0.269550
C40   C     C_R   0.640567 0.884575 0.902660 -0.284596
C41   C     C_2   0.750784 0.357967 0.909161 -0.155737
C42   C     C_2   0.748907 0.641255 0.407042 -0.156732
C43   C     C_2   0.265699 0.851843 0.926451 -0.155826
C44   C     C_2   0.254209 0.144025 0.408734 -0.246548
C45   C     C_2   0.813930 0.390477 0.909675 0.174349
C46   C     C_2   0.812567 0.608973 0.408046 0.185687
C47   C     C_2   0.320268 0.888682 0.915442 0.138196
C48   C     C_2   0.317692 0.110757 0.413139 0.180614
C49   C     C_2   0.836582 0.350097 0.674176 0.254754
C50   C     C_2   0.833572 0.648661 0.171492 0.259145
C51   C     C_2   0.345560 0.845978 0.684195 0.288938
C52   C     C_2   0.348999 0.154718 0.191842 0.344747
C53   C     C_3   0.763496 0.322054 0.663065 -0.022729
C54   C     C_3   0.761470 0.677746 0.162113 -0.000110
C55   C     C_3   0.280831 0.813147 0.690756 0.001995
C56   C     C_3   0.302265 0.194403 0.228738 -0.234403
C57   C     C_3   0.740499 0.316347 0.811194 0.084451
C58   C     C_3   0.739005 0.683347 0.311015 0.044221
C59   C     C_3   0.270548 0.807128 0.849257 -0.024330
C60   C     C_3   0.233224 0.178459 0.284270 0.229034
C61   C     C_2   0.755825 0.275694 0.566539 -0.041268
C62   C     C_2   0.754803 0.724247 0.065866 -0.039973
C63   C     C_2   0.277879 0.766539 0.596858 -0.039248
C64   C     C_2   0.279018 0.233309 0.104774 0.019070
C65   C     C_2   0.250533 0.724324 0.637147 -0.067189
C66   C     C_2   0.252167 0.276351 0.138493 -0.079489
C67   C     C_2   0.734575 0.232524 0.613509 -0.067559
C68   C     C_2   0.734564 0.767761 0.113162 -0.060443
C69   C     C_R   0.281259 0.673453 0.415332 0.091009
C70   C     C_R   0.275428 0.323492 0.904587 0.121152
C71   C     C_R   0.754045 0.185551 0.374766 -0.002391
C72   C     C_R   0.767318 0.819075 0.894312 -0.024173
C73   C     C_R   0.232998 0.682564 0.527900 -0.031015
C74   C     C_R   0.229592 0.315416 0.021420 -0.041673
C75   C     C_R   0.719519 0.189349 0.510064 -0.003511
C76   C     C_R   0.720785 0.811193 0.010427 -0.018635
C77   C     C_R   0.260038 0.634513 0.298298 0.179641
C78   C     C_R   0.255384 0.363588 0.792353 0.187653
C79   C     C_R   0.738023 0.144049 0.267319 0.194199
C80   C     C_R   0.751275 0.860649 0.786870 0.146744
C81   C     C_R   0.189796 0.609747 0.279388 0.232813
C82   C     C_R   0.188021 0.390798 0.781878 0.167707
C83   C     C_R   0.684671 0.109512 0.282345 0.125209
C84   C     C_R   0.687142 0.890215 0.780866 0.161292
C85   C     C_R   0.161925 0.651403 0.517299 0.166347
C86   C     C_R   0.161907 0.348384 0.019737 0.211172
C87   C     C_R   0.661484 0.151707 0.526436 0.286456
C88   C     C_R   0.658608 0.847634 0.018244 0.276748
H33   H     H_    0.908831 0.407111 0.790315 0.173071
H34   H     H_    0.902989 0.589463 0.280106 0.185164
H35   H     H_    0.401543 0.911635 0.770480 0.177482
H36   H     H_    0.402102 0.087739 0.273480 0.169708
H37   H     H_    0.760640 0.278787 0.447186 0.178974
H38   H     H_    0.760131 0.721184 0.946629 0.183328
H39   H     H_    0.287084 0.769110 0.480174 0.186225
H40   H     H_    0.279889 0.226085 0.984576 0.191729
H41   H     H_    0.233530 0.721849 0.746737 0.177843
H42   H     H_    0.242758 0.282025 0.253730 0.173934
H43   H     H_    0.723718 0.229098 0.728422 0.155428
H44   H     H_    0.722982 0.771171 0.227535 0.152922
N1    N     N_3   0.926859 0.691915 0.588481 -0.166635
H45   H     H_    0.906035 0.709516 0.675117 0.112400
H46   H     H_    0.879742 0.692546 0.488582 0.032993
N2    N     N_3   0.929400 0.309797 0.076425 -0.161506
H47   H     H_    0.907249 0.293544 0.163205 0.133207
H48   H     H_    0.883736 0.307882 0.974769 0.032212
N3    N     N_3   0.425744 0.193249 0.633631 -0.162443
H49   H     H_    0.414233 0.204267 0.737972 0.177319
H50   H     H_    0.372399 0.199299 0.548214 0.060955
N4    N     N_3   0.429356 0.805033 0.193423 -0.148401
H51   H     H_    0.371889 0.789752 0.172378 0.091035
H52   H     H_    0.419047 0.837678 0.135725 0.164386
N5    N     N_3   0.629547 0.570868 0.140968 -0.112322
H53   H     H_    0.665429 0.571563 0.254705 0.128866
H54   H     H_    0.647090 0.599418 0.081289 0.205623
N6    N     N_3   0.632671 0.428220 0.643236 -0.113857
H55   H     H_    0.667062 0.427489 0.758115 0.133900
H56   H     H_    0.651432 0.399797 0.584096 0.203719
N7    N     N_3   0.135252 0.071594 0.151618 -0.132094
H57   H     H_    0.170004 0.072113 0.266113 0.117855
H58   H     H_    0.155529 0.099419 0.092937 0.188380
N8    N     N_3   0.139089 0.926171 0.650288 -0.130705
H59   H     H_    0.178552 0.924107 0.760382 0.103450
H60   H     H_    0.155026 0.898667 0.583579 0.202879
N9    N     N_R   0.587390 0.519341 0.917675 0.292491
O49   O     O_R   0.550660 0.556177 0.841033 -0.278545
O50   O     O_R   0.563567 0.476572 0.868902 -0.285260
N10   N     N_R   0.589899 0.480075 0.422016 0.292185
O51   O     O_R   0.554261 0.443245 0.343543 -0.280044
O52   O     O_R   0.565437 0.522876 0.374891 -0.289344
N11   N     N_R   0.088985 0.019170 0.932464 0.296458
O53   O     O_R   0.051486 0.055864 0.856451 -0.266695
O54   O     O_R   0.068605 0.976209 0.880529 -0.299711
N12   N     N_R   0.090439 0.979709 0.434716 0.297203
O55   O     O_R   0.052621 0.943376 0.356995 -0.265070
O56   O     O_R   0.069410 0.022853 0.385861 -0.309060
N13   N     N_3   0.244301 0.478576 0.981755 -0.181261
H61   H     H_    0.271407 0.509659 0.955370 0.197970
H62   H     H_    0.182615 0.484846 0.949928 0.139734
N14   N     N_3   0.230436 0.523811 0.479391 -0.192211
H63   H     H_    0.253022 0.492115 0.445706 0.200304
H64   H     H_    0.167946 0.520269 0.458043 0.142336
N15   N     N_3   0.747589 0.977753 0.987130 -0.173933
H65   H     H_    0.774302 0.008817 0.959031 0.192861
H66   H     H_    0.685819 0.983982 0.953146 0.148431
N16   N     N_3   0.753786 0.020327 0.487951 -0.168698
H67   H     H_    0.782480 0.989478 0.462621 0.187728
H68   H     H_    0.692805 0.013199 0.448462 0.136757
N17   N     N_3   0.220981 0.438519 0.200159 -0.248291
H69   H     H_    0.165259 0.451893 0.206605 0.184369
H70   H     H_    0.251901 0.425260 0.309212 0.173025
N18   N     N_3   0.218209 0.562239 0.707837 -0.245034
H71   H     H_    0.162893 0.548954 0.716319 0.195664
H72   H     H_    0.252249 0.574662 0.815623 0.178298
N19   N     N_3   0.723096 0.939580 0.208402 -0.247349
H73   H     H_    0.672500 0.955161 0.231666 0.189925
H74   H     H_    0.756129 0.923461 0.311345 0.172279
N20   N     N_3   0.723785 0.060046 0.703247 -0.244001
H75   H     H_    0.668843 0.046470 0.712323 0.186868
H76   H     H_    0.753810 0.074859 0.810920 0.164413
N21   N     N_R   0.408748 0.485365 0.113299 0.276947
O57   O     O_R   0.419270 0.531048 0.138884 -0.243178
O58   O     O_R   0.440983 0.464434 0.012228 -0.258940
N22   N     N_R   0.399606 0.514825 0.595636 0.272258
O59   O     O_R   0.413015 0.469795 0.629917 -0.247761
O60   O     O_R   0.433916 0.534915 0.496771 -0.261855
N23   N     N_R   0.912206 0.984295 0.121334 0.272983
O61   O     O_R   0.927891 0.029446 0.149032 -0.256257
O62   O     O_R   0.945683 0.961266 0.026059 -0.265237
N24   N     N_R   0.915331 0.011051 0.636098 0.277709
O63   O     O_R   0.922753 0.965019 0.657104 -0.246466
O64   O     O_R   0.951322 0.031969 0.541326 -0.282354
N25   N     N_3   0.897318 0.780276 0.396654 -0.154146
H77   H     H_    0.903125 0.758716 0.303392 0.160451
H78   H     H_    0.844877 0.770239 0.428456 0.077215
N26   N     N_3   0.903744 0.220115 0.888811 -0.136213
H79   H     H_    0.913922 0.239824 0.795935 0.169824
H80   H     H_    0.850380 0.233032 0.910400 0.116521
N27   N     N_3   0.402827 0.292369 0.463233 -0.151785
H81   H     H_    0.421017 0.281190 0.364317 0.179589
H82   H     H_    0.348405 0.275522 0.462643 0.101365
N28   N     N_3   0.392630 0.706493 0.004915 -0.153346
H83   H     H_    0.404862 0.715016 0.897981 0.158163
H84   H     H_    0.340146 0.724672 0.011532 0.101686
N29   N     N_R   0.007239 0.807694 0.101462 0.306331
O65   O     O_R   0.077588 0.820074 0.189087 -0.276134
O66   O     O_R   0.943185 0.830041 0.118501 -0.331263
N30   N     N_R   0.982339 0.189921 0.600645 0.297584
O67   O     O_R   0.046824 0.175796 0.703793 -0.235147
O68   O     O_R   0.914025 0.168963 0.596094 -0.394070
N31   N     N_R   0.531240 0.305523 0.102675 0.321034
O69   O     O_R   0.583162 0.334866 0.188572 -0.262084
O70   O     O_R   0.454473 0.314491 0.079629 -0.348395
N32   N     N_R   0.544666 0.697670 0.600757 0.314385
O71   O     O_R   0.593104 0.669774 0.700181 -0.266495
O72   O     O_R   0.469265 0.685473 0.548978 -0.327071
N33   N     N_3   0.701839 0.362088 0.018233 -0.127563
H85   H     H_    0.675383 0.396011 0.009758 0.221211
H86   H     H_    0.738930 0.357836 0.130994 0.213203
N34   N     N_3   0.698042 0.635709 0.512024 -0.136374
H87   H     H_    0.670952 0.602041 0.497122 0.224331
H88   H     H_    0.733882 0.638185 0.626446 0.212591
N35   N     N_3   0.207091 0.857095 0.015977 -0.177039
H89   H     H_    0.174416 0.888694 0.984560 0.190792
H90   H     H_    0.236856 0.859609 0.133651 0.236084
N36   N     N_3   0.202700 0.140778 0.513295 -0.156609
H91   H     H_    0.175754 0.107065 0.503600 0.200076
H92   H     H_    0.237818 0.144940 0.627114 0.230695
N37   N     N_R   0.319127 0.622025 0.215574 0.268710
O73   O     O_R   0.300032 0.621831 0.063609 -0.351379
O74   O     O_R   0.395163 0.621234 0.290247 -0.248806
N38   N     N_R   0.314929 0.375823 0.710817 0.266820
O75   O     O_R   0.390448 0.378126 0.788191 -0.256919
O76   O     O_R   0.297579 0.373904 0.559097 -0.350062
N39   N     N_R   0.780924 0.142701 0.147767 0.268605
O77   O     O_R   0.794760 0.182715 0.084868 -0.464423
O78   O     O_R   0.823466 0.105366 0.131398 -0.291683
N40   N     N_R   0.811484 0.871403 0.705379 0.272284
O79   O     O_R   0.887158 0.871865 0.782520 -0.305196
O80   O     O_R   0.793986 0.869552 0.553709 -0.368874
N41   N     N_3   0.059177 0.598799 0.352640 -0.139782
H93   H     H_    0.017907 0.626083 0.355553 0.111952
H94   H     H_    0.057901 0.573165 0.437580 0.147476
N42   N     N_3   0.065936 0.408326 0.892351 -0.178471
H95   H     H_    0.079568 0.442000 0.942215 0.144933
H96   H     H_    0.033380 0.411855 0.777976 0.185250
N43   N     N_3   0.573661 0.085393 0.413005 -0.141770
H97   H     H_    0.588885 0.050877 0.452566 0.138260
H98   H     H_    0.534866 0.084897 0.301613 0.199684
N44   N     N_3   0.578298 0.919023 0.901820 -0.140890
H99   H     H_    0.523442 0.902362 0.889150 0.186272
H100  H     H_    0.590554 0.938640 0.004928 0.140117
N45   N     N_R   0.032137 0.804771 0.511957 0.301194
O81   O     O_R   0.018749 0.850579 0.496884 -0.280589
O82   O     O_R   0.103445 0.788340 0.513910 -0.322647
N46   N     N_R   0.036577 0.195648 0.019561 0.285447
O83   O     O_R   0.024613 0.149680 0.017340 -0.303307
O84   O     O_R   0.105528 0.211878 0.006096 -0.340624
N47   N     N_R   0.532557 0.310444 0.628474 0.293921
O85   O     O_R   0.547224 0.340969 0.743697 -0.329981
O86   O     O_R   0.570885 0.314814 0.519839 -0.294577
N48   N     N_R   0.529079 0.689738 0.141684 0.296629
O87   O     O_R   0.553498 0.661499 0.261250 -0.339791
O88   O     O_R   0.555274 0.682258 0.017854 -0.278793
N49   N     N_R   0.084814 0.712733 0.125287 0.214763
O89   O     O_R   0.147427 0.701391 0.074814 -0.418772
O90   O     O_R   0.095428 0.724327 0.271447 -0.386309
N50   N     N_R   0.091082 0.277325 0.607205 0.230128
O91   O     O_R   0.106459 0.273029 0.758203 -0.382865
O92   O     O_R   0.151060 0.278627 0.541725 -0.403873
N51   N     N_R   0.545426 0.210606 0.240764 0.177202
O93   O     O_R   0.585096 0.242971 0.335187 -0.427706
O94   O     O_R   0.520891 0.172915 0.298938 -0.535456
N52   N     N_R   0.537052 0.787703 0.759244 0.187581
O95   O     O_R   0.508846 0.824110 0.817962 -0.555025
O96   O     O_R   0.578514 0.755946 0.853642 -0.378099
N53   N     N_3   0.061840 0.788474 0.883060 -0.195004
H101  H     H_    0.119642 0.783310 0.955689 0.194877
H102  H     H_    0.055587 0.824852 0.854552 0.191620
N54   N     N_3   0.054723 0.196170 0.406852 -0.175859
H103  H     H_    0.032186 0.164541 0.348293 0.187337
H104  H     H_    0.071487 0.218313 0.326733 0.162951
N55   N     N_3   0.646315 0.263644 0.052133 -0.199190
H105  H     H_    0.662630 0.236128 0.985791 0.156966
H106  H     H_    0.674525 0.256874 0.169295 0.158788
N56   N     N_3   0.660932 0.748394 0.614883 -0.200400
H107  H     H_    0.691503 0.721437 0.572060 0.143749
H108  H     H_    0.679492 0.780057 0.571657 0.102602
N57   N     N_R   0.762099 0.558141 0.987480 0.184022
O97   O     O_R   0.838956 0.559206 0.998806 -0.343969
O98   O     O_R   0.713914 0.580235 0.870602 -0.384110
N58   N     N_R   0.765122 0.441067 0.491276 0.183975
O99   O     O_R   0.842113 0.439748 0.504135 -0.345987
O100  O     O_R   0.717467 0.418979 0.373585 -0.384174
N59   N     N_R   0.262948 0.057799 0.990984 0.179865
O101  O     O_R   0.339783 0.059662 0.002914 -0.354239
O102  O     O_R   0.214205 0.078121 0.870814 -0.371210
N60   N     N_R   0.265312 0.941803 0.489826 0.181388
O103  O     O_R   0.342088 0.940415 0.501023 -0.346750
O104  O     O_R   0.216700 0.921616 0.369123 -0.375171

loop_
_geom_bond_atom_site_label_1
_geom_bond_atom_site_label_2
_geom_bond_distance
_ccdc_geom_bond_type
N19   H74   1.043160 S    
N53   H101  1.042543 S    
C38   N42   1.425687 S    
N1    H46   1.032820 S    
C42   C46   1.409794 A    
N31   O69   1.301528 A    
P9    O41   1.756220 S    
C18   N6    1.461733 S    
O24   P15   1.776542 S    
C33   H33   1.075111 S    
N35   H90   1.036834 S    
N45   O81   1.300180 A    
P12   O44   1.772361 S    
P2    Ba2   3.516958 S    
N28   H83   1.046190 S    
O3    Ba3   2.911396 S    
C36   H36   1.079458 S    
C18   N10   1.462600 S    
C63   C65   1.351265 D    
C54   C58   1.468660 A    
P7    O48   1.625374 S    
C1    H1    1.105000 S    
N58   O99   1.293075 A    
C10   N54   1.463042 S    
O22   C30   1.408295 S    
C31   N3    1.457840 S    
O16   P15   1.542471 D    
O19   C23   1.411358 S    
C52   C56   1.448532 A    
N42   H95   1.038942 S    
P2    O18   1.780373 S    
Ba2   O46   2.893030 S    
C51   C55   1.452239 A    
C44   C60   1.437200 A    
C41   C45   1.412238 A    
O26   Ba2   2.914563 S    
O10   P13   1.750584 S    
C21   C25   1.547906 S    
N12   O56   1.299557 A    
C42   C58   1.435817 A    
P9    O29   1.762369 S    
N10   O51   1.301801 A    
C36   C52   1.360785 D    
C76   C88   1.483812 S    
N16   H68   1.032016 S    
N5    H54   1.043075 S    
O28   Ba4   2.914563 S    
C66   C74   1.486490 S    
N17   H70   1.042311 S    
N44   H99   1.028763 S    
P11   O43   1.769928 S    
C1    N45   1.460429 S    
O39   C16   1.396028 S    
C12   N56   1.468256 S    
O42   C6    1.409442 S    
N48   O87   1.300087 A    
C21   N13   1.421497 S    
C53   C61   1.535543 S    
C66   H42   1.081226 S    
N35   H89   1.042926 S    
C8    H8    1.111848 S    
C26   N22   1.457042 S    
N36   H91   1.043249 S    
C78   C82   1.361728 D    
N4    H52   1.038295 S    
C41   C57   1.431263 A    
C70   C78   1.478338 S    
N24   O64   1.299240 A    
C33   C45   1.481011 S    
C16   N60   1.448550 S    
N34   H87   1.042641 S    
P7    O27   1.605130 D    
C70   C74   1.464268 S    
P8    O28   1.607528 D    
P8    C47   1.885287 S    
C16   H16   1.113364 S    
N46   O83   1.299917 A    
P8    Ba4   3.518383 S    
N59   O101  1.292624 A    
C15   C19   1.551125 S    
C34   C46   1.477682 S    
N29   O66   1.300577 A    
C6    H6    1.107379 S    
N50   O91   1.297900 A    
N27   H82   1.043117 S    
Ba1   O45   2.903413 S    
C38   C82   1.513901 S    
C31   H31   1.076161 S    
P3    O7    1.614700 S    
O29   Ba1   2.852068 S    
O41   C5    1.404349 S    
O13   P14   1.543551 D    
P8    O47   1.630395 S    
N41   H93   1.041799 S    
C9    H9    1.111556 S    
C23   C27   1.551010 S    
N60   O103  1.292049 A    
C11   H11   1.084615 S    
P5    O37   1.755536 S    
P11   C52   1.876972 S    
C80   C84   1.361213 D    
N18   H71   1.037684 S    
O5    Ba2   2.909212 S    
P8    O40   1.751870 S    
C1    C29   1.567143 S    
N51   O93   1.297864 A    
C3    C31   1.569937 S    
P6    Ba2   3.518383 S    
Ba1   Ba2   4.821139 S    
C80   N40   1.431369 S    
C73   C85   1.480554 S    
N17   H69   1.037471 S    
C77   N37   1.431297 S    
O44   C8    1.417354 S    
C25   H25   1.107520 S    
N31   O70   1.300215 A    
N6    H56   1.042611 S    
N21   O57   1.300074 A    
C37   N41   1.422161 S    
C37   C81   1.494536 S    
C6    C10   1.559324 S    
C20   H20   1.110204 S    
O27   Ba3   2.911104 S    
N38   O75   1.300384 A    
C61   C67   1.356500 D    
O8    Ba3   2.898778 S    
C49   C53   1.459067 A    
P6    O45   1.630395 S    
C24   N16   1.424454 S    
N22   O59   1.300360 A    
O22   P13   1.752898 S    
C40   N44   1.431646 S    
P10   O42   1.762265 S    
P12   O32   1.756610 S    
C41   N33   1.432079 S    
C14   N58   1.451415 S    
N13   H61   1.039911 S    
O9    Ba1   2.856533 S    
N33   H86   1.042785 S    
C71   C79   1.477243 S    
C69   C77   1.479117 S    
N54   H103  1.046113 S    
O10   Ba2   2.846661 S    
N37   O74   1.300235 A    
C1    N25   1.463432 S    
C39   N43   1.432548 S    
O30   Ba2   2.861913 S    
O11   P16   1.753669 S    
C2    H2    1.105159 S    
C55   C59   1.464803 A    
C56   C60   1.460260 A    
C13   N57   1.451299 S    
N43   H98   1.037515 S    
O12   Ba4   2.846661 S    
C55   C63   1.535337 S    
Ba3   O47   2.903413 S    
O32   Ba4   2.861913 S    
P4    C84   1.903390 S    
C19   N11   1.460538 S    
N30   O68   1.299875 A    
O6    Ba1   2.898778 S    
C11   N55   1.467374 S    
C29   H29   1.111227 S    
P7    Ba3   3.518129 S    
N27   H81   1.045698 S    
C61   H37   1.081750 S    
Ba4   O47   3.077787 S    
C24   N20   1.463315 S    
N8    H60   1.043594 S    
P9    O33   1.548862 D    
C36   C48   1.491940 S    
P10   O30   1.763689 S    
C62   C68   1.356100 D    
C42   N34   1.432628 S    
O1    Ba1   2.911396 S    
C35   C47   1.490243 S    
P4    O8    1.609880 S    
C3    N47   1.463771 S    
C67   C75   1.493527 S    
P11   O35   1.542809 D    
C35   C51   1.363576 D    
C25   H21   1.114137 S    
N16   H67   1.041751 S    
C27   H23   1.113958 S    
C54   C62   1.542255 S    
C78   N38   1.431473 S    
C12   H12   1.093398 S    
N26   H80   1.041932 S    
O23   P16   1.776268 S    
C64   H40   1.083815 S    
C8    C12   1.545190 S    
N28   H84   1.044349 S    
C2    N46   1.457792 S    
C4    C32   1.568152 S    
C28   N24   1.459011 S    
N20   H75   1.036304 S    
O4    Ba4   2.908034 S    
C77   C81   1.360934 D    
N14   H63   1.037324 S    
N25   H78   1.045035 S    
N58   O100  1.301486 A    
C17   H17   1.111256 S    
P6    O26   1.607528 D    
C75   C87   1.480446 S    
P3    Ba3   3.517200 S    
C7    C11   1.551307 S    
N2    H47   1.042975 S    
N42   H96   1.026870 S    
N52   O95   1.287057 A    
N3    H50   1.039225 S    
C69   C73   1.465959 S    
O37   C14   1.394575 S    
C16   C20   1.551656 S    
P3    C83   1.900745 S    
C13   H13   1.112977 S    
C72   C76   1.466656 S    
N57   O98   1.301396 A    
C15   H15   1.113399 S    
C2    N26   1.462218 S    
C23   N19   1.462199 S    
N10   O52   1.299403 A    
N5    H53   1.035671 S    
C29   N1    1.457476 S    
C40   C84   1.501350 S    
N44   H100  1.036354 S    
P1    O1    1.606121 D    
O2    Ba2   2.908034 S    
C38   C86   1.406952 A    
P3    O3    1.606121 D    
N32   O71   1.301774 A    
P4    O20   1.780350 S    
O40   C15   1.396086 S    
N48   O88   1.299114 A    
C30   H30   1.114441 S    
N15   H65   1.041325 S    
C68   C76   1.498719 S    
N1    H45   1.043652 S    
P15   C88   1.868474 S    
P10   C49   1.874366 S    
O21   C29   1.411778 S    
N56   H107  1.039070 S    
C32   N4    1.460159 S    
P13   C86   1.855107 S    
P6    O38   1.756087 S    
O23   C31   1.415577 S    
N34   H88   1.042448 S    
P7    C48   1.885103 S    
N36   H92   1.038059 S    
N55   H105  1.044417 S    
P5    C46   1.866377 S    
N49   O90   1.297269 A    
P4    O4    1.603711 D    
C13   C17   1.555416 S    
C72   C80   1.481892 S    
N39   O77   1.298320 A    
N53   H102  1.046002 S    
C4    N28   1.466341 S    
P5    Ba1   3.518129 S    
C44   N36   1.432454 S    
C18   H18   1.110747 S    
C37   C85   1.418672 A    
N45   O82   1.297820 A    
C8    N52   1.456288 S    
N3    H49   1.035784 S    
C40   C88   1.430319 A    
P1    O5    1.614700 S    
N46   O84   1.298215 A    
O38   C13   1.393236 S    
N7    H57   1.034615 S    
P9    C50   1.866627 S    
C14   H14   1.112902 S    
C28   H24   1.113385 S    
C12   N32   1.469808 S    
N29   O65   1.301446 A    
C65   H41   1.081593 S    
P12   O36   1.540685 D    
N47   O85   1.300639 A    
C63   H39   1.083977 S    
N23   O61   1.299499 A    
P7    O39   1.753974 S    
N50   O92   1.300072 A    
N11   O54   1.299761 A    
C5    N49   1.459633 S    
C35   H35   1.077601 S    
C3    H3    1.112029 S    
N12   O55   1.301294 A    
N60   O104  1.301643 A    
C4    H4    1.113462 S    
C24   C28   1.547137 S    
C17   N5    1.461235 S    
C15   N59   1.450699 S    
P1    C81   1.891929 S    
C68   H44   1.081557 S    
C17   N9    1.464057 S    
N51   O94   1.289813 A    
C43   C59   1.433222 A    
C22   N14   1.420914 S    
C14   C18   1.554652 S    
C28   H28   1.107535 S    
C9    N53   1.462233 S    
N43   H97   1.035986 S    
P10   O34   1.548806 D    
C7    N51   1.454070 S    
N23   O62   1.299632 A    
P11   O31   1.757756 S    
C5    H5    1.108886 S    
C64   C66   1.344809 D    
N38   O76   1.297700 A    
C7    H7    1.112527 S    
C53   C57   1.467986 A    
O14   P13   1.542906 D    
C9    N29   1.468151 S    
N22   O60   1.298898 A    
C10   H10   1.112753 S    
N24   O63   1.300615 A    
O24   C32   1.420113 S    
C2    C30   1.562421 S    
P1    O17   1.786668 S    
N33   H85   1.043304 S    
P3    O19   1.785817 S    
C44   C48   1.419926 A    
C4    N48   1.463758 S    
N54   H104  1.035487 S    
N37   O73   1.298146 A    
C43   C47   1.411303 A    
C26   H26   1.111183 S    
C22   N18   1.456635 S    
O12   P15   1.742051 S    
C65   C73   1.493106 S    
C34   C50   1.355252 D    
N13   H62   1.034987 S    
C5    C9    1.546582 S    
P2    C82   1.894567 S    
Ba1   O46   3.076987 S    
N9    O50   1.299605 A    
Ba3   O48   3.076987 S    
P5    O46   1.625374 S    
N41   H94   1.042783 S    
N40   O80   1.297116 A    
Ba4   O48   2.893030 S    
C3    N27   1.462946 S    
O21   P14   1.762241 S    
C43   N35   1.432815 S    
O17   C21   1.411382 S    
N55   H106  1.042143 S    
P2    O2    1.603711 D    
C39   C87   1.423754 A    
C32   H32   1.087087 S    
C79   C83   1.359583 D    
N59   O102  1.301686 A    
O31   Ba3   2.852068 S    
O43   C7    1.414784 S    
O15   P16   1.542754 D    
N39   O78   1.298216 A    
P12   C51   1.879994 S    
C33   C49   1.356188 D    
N6    H55   1.035599 S    
C11   N31   1.468945 S    
P1    Ba1   3.517200 S    
N21   O58   1.299105 A    
P14   C85   1.860009 S    
C30   N2    1.455455 S    
C71   C75   1.464775 S    
O7    Ba4   2.909212 S    
O20   C24   1.408703 S    
N20   H76   1.043974 S    
P6    C45   1.867252 S    
N40   O79   1.300515 A    
N7    H58   1.043186 S    
N18   H72   1.040701 S    
C23   N15   1.423944 S    
Ba3   Ba4   4.821139 S    
C10   N30   1.461446 S    
C62   H38   1.082986 S    
N14   H64   1.042028 S    
N9    O49   1.301951 A    
N26   H79   1.040205 S    
C27   H27   1.109130 S    
N47   O86   1.298548 A    
N2    H48   1.030724 S    
N52   O96   1.297879 A    
P4    Ba4   3.516958 S    
C27   N23   1.457383 S    
N19   H73   1.033444 S    
P2    O6    1.609880 S    
C39   C83   1.514791 S    
Ba2   O45   3.077787 S    
N57   O97   1.293175 A    
C26   H22   1.113885 S    
C67   H43   1.081767 S    
O11   Ba3   2.856533 S    
P16   C87   1.872630 S    
C21   N17   1.460574 S    
O18   C22   1.411553 S    
N30   O67   1.300242 A    
C34   H34   1.079574 S    
C20   N8    1.463594 S    
O25   Ba1   2.911104 S    
C74   C86   1.474056 S    
N32   O72   1.300105 A    
O9    P14   1.750812 S    
C20   N12   1.462346 S    
C22   C26   1.545562 S    
C19   N7    1.461712 S    
N8    H59   1.034785 S    
N56   H108  1.045854 S    
C79   N39   1.431183 S    
C56   C64   1.523318 S    
C19   H19   1.111068 S    
C25   N21   1.459516 S    
N4    H51   1.045012 S    
C50   C54   1.459363 A    
N11   O53   1.301286 A    
C6    N50   1.461749 S    
N15   H66   1.036581 S    
N49   O89   1.298369 A    
P5    O25   1.605130 D    
N25   H77   1.043630 S    
