data_mof_unit_66465.cif
_audit_creation_date              2012-12-10T16:54:34-0500
_audit_creation_method            fapswitch 2.2
_symmetry_space_group_name_H-M    P1
_symmetry_Int_Tables_number       1
_space_group_crystal_system       triclinic
_cell_length_a                    18.912316
_cell_length_b                    18.639471
_cell_length_c                    18.953124
_cell_angle_alpha                 109.390729
_cell_angle_beta                  110.217452
_cell_angle_gamma                 109.26051
_cell_volume                      5113.84350504

loop_
_atom_site_label
_atom_site_type_symbol
_atom_type_description
_atom_site_fract_x
_atom_site_fract_y
_atom_site_fract_z
_atom_type_partial_charge
C1    C     C_R   0.383582 0.379523 0.502001 0.880009
C2    C     C_2   0.183710 0.510131 0.188361 -0.338284
C3    C     C_2   0.245135 0.505306 0.321269 -0.162806
C4    C     C_R   0.617450 0.497348 0.620045 0.882532
C5    C     C_2   0.305218 0.488706 0.309893 -0.344257
C6    C     C_2   0.742797 0.822760 0.496760 -0.155222
C7    C     C_2   0.818322 0.825106 0.512344 -0.337196
C8    C     C_2   0.681768 0.761653 0.508182 -0.157046
C9    C     C_2   0.676688 0.683914 0.490717 -0.343456
C10   C     C_R   0.992236 0.380081 0.873889 0.950015
C11   C     C_R   0.874212 0.498033 0.872282 0.951305
C12   C     C_3   0.805997 0.496706 0.804798 -0.003582
C13   C     C_R   0.996636 0.619999 0.114855 0.994056
C14   C     C_R   0.114943 0.502323 0.116597 0.945566
C15   C     C_R   0.000945 0.120949 0.618087 0.915011
C16   C     C_R   0.616973 0.619458 0.498138 0.938689
C17   C     C_R   0.118278 0.124904 0.505930 0.928871
C18   C     C_R   0.998960 0.878920 0.381803 0.985065
C19   C     C_R   0.881368 0.883565 0.502746 0.930844
C20   C     C_2   0.990377 0.252232 0.671986 -0.169151
C21   C     C_2   0.008838 0.193105 0.685710 -0.352344
C22   C     C_2   0.000035 0.324512 0.743300 -0.143340
C23   C     C_3   0.841672 0.535705 0.755320 -0.355963
C24   C     C_2   0.982589 0.310950 0.801790 -0.334181
C25   C     C_2   0.020834 0.754429 0.329301 -0.298088
C26   C     C_2   0.988814 0.805058 0.313635 -0.412993
C27   C     C_2   0.005353 0.678129 0.255390 0.585604
C28   C     C_R   0.377413 0.497390 0.379052 0.936072
C29   C     C_2   0.008997 0.688742 0.189700 -0.458784
C30   C     C_3   0.656342 0.398724 0.668315 -0.218748
C31   C     C_3   0.729920 0.399730 0.739255 0.285659
C32   C     C_3   0.770671 0.538881 0.688440 -0.436921
C33   C     C_3   0.699627 0.551446 0.778023 -0.471099
C34   C     C_3   0.771712 0.551960 0.848652 0.318943
C35   C     C_3   0.684222 0.495577 0.686372 0.016840
C36   C     C_R   0.621585 0.328697 0.574972 0.233821
C37   C     C_R   0.675232 0.327073 0.538668 -0.032105
C38   C     C_R   0.640393 0.263635 0.452662 -0.191418
C39   C     C_R   0.551762 0.201063 0.401471 -0.135159
C40   C     C_R   0.497834 0.201413 0.436359 -0.117123
C41   C     C_R   0.532387 0.264408 0.522459 -0.168991
C42   C     C_3   0.830037 0.675660 0.981554 -0.327314
C43   C     C_R   0.286698 0.268498 0.673367 0.160576
C44   C     C_R   0.367469 0.276464 0.720619 -0.163946
C45   C     C_2   0.259896 0.263245 0.587571 0.021761
C46   C     C_R   0.393558 0.282985 0.802162 -0.150613
C47   C     C_R   0.339749 0.282578 0.837502 -0.127337
C48   C     C_R   0.259999 0.276235 0.791617 -0.121243
C49   C     C_R   0.233722 0.269767 0.710117 -0.104338
C50   C     C_R   0.292315 0.216221 0.441211 0.154335
C51   C     C_R   0.242460 0.188100 0.352640 -0.138131
C52   C     C_R   0.206598 0.101123 0.288923 -0.147054
C53   C     C_R   0.220178 0.041470 0.312896 -0.124565
C54   C     C_R   0.270099 0.068801 0.400622 -0.160184
C55   C     C_R   0.306481 0.155795 0.464529 -0.143535
C56   C     C_2   0.180705 0.203526 0.516165 -0.365629
C57   C     C_3   0.961365 0.584147 0.306505 -0.321678
C58   C     C_3   0.726024 0.264889 0.697479 -0.308805
C59   C     C_2   0.320899 0.329568 0.580247 -0.276551
C60   C     C_2   0.329085 0.309145 0.509223 -0.180845
C61   C     C_2   0.172120 0.493790 0.248298 -0.139669
H1    H     H_    0.791055 0.608806 0.707014 0.183256
H2    H     H_    0.727127 0.867335 0.478512 0.164779
H3    H     H_    0.838401 0.788135 0.540537 0.153932
H4    H     H_    0.638819 0.778629 0.526907 0.164476
H5    H     H_    0.712254 0.662963 0.462197 0.154486
H6    H     H_    0.971701 0.249654 0.609784 0.165970
H7    H     H_    0.037213 0.201564 0.750521 0.153926
H8    H     H_    0.018684 0.387588 0.746165 0.163208
H9    H     H_    0.954310 0.245412 0.793212 0.151457
H10   H     H_    0.055886 0.767336 0.395165 0.178718
H11   H     H_    0.702356 0.376283 0.776165 0.056947
H12   H     H_    0.898484 0.603604 0.801287 0.217282
H13   H     H_    0.947943 0.788068 0.247247 0.153280
H14   H     H_    0.028907 0.752559 0.193997 0.119620
H15   H     H_    0.763562 0.507598 0.623533 0.170635
H16   H     H_    0.864642 0.495422 0.722208 0.184295
H17   H     H_    0.718303 0.620209 0.792743 0.230174
H18   H     H_    0.638391 0.524172 0.779327 0.131858
H19   H     H_    0.742334 0.518934 0.879151 0.048727
H20   H     H_    0.744338 0.373281 0.576712 0.143848
H21   H     H_    0.682316 0.262917 0.425731 0.129876
H22   H     H_    0.524906 0.152153 0.334815 0.128047
H23   H     H_    0.160286 0.212726 0.460253 0.162805
H24   H     H_    0.429119 0.152924 0.396495 0.150906
H25   H     H_    0.489181 0.263772 0.547855 0.107097
H26   H     H_    0.836942 0.641493 0.019598 0.154328
H27   H     H_    0.765962 0.672790 0.959475 0.160083
H28   H     H_    0.881803 0.745800 0.025473 0.191845
H29   H     H_    0.409953 0.277088 0.694168 0.114233
H30   H     H_    0.455579 0.288498 0.838024 0.126244
H31   H     H_    0.360078 0.287684 0.900646 0.125355
H32   H     H_    0.218702 0.276736 0.819348 0.130987
H33   H     H_    0.172502 0.266444 0.675920 0.108402
H34   H     H_    0.358414 0.397030 0.633826 0.173656
H35   H     H_    0.230469 0.233273 0.333072 0.123132
H36   H     H_    0.167927 0.079863 0.220917 0.132516
H37   H     H_    0.192114 0.974097 0.263489 0.132291
H38   H     H_    0.280853 0.022638 0.419126 0.138638
H39   H     H_    0.345379 0.175922 0.532138 0.126234
H40   H     H_    0.902873 0.591806 0.292384 0.162692
H41   H     H_    0.011692 0.626882 0.376787 0.158512
H42   H     H_    0.940347 0.515024 0.290617 0.186409
H43   H     H_    0.653570 0.229792 0.659380 0.154099
H44   H     H_    0.749247 0.272066 0.763230 0.178398
H45   H     H_    0.110320 0.476049 0.246164 0.179053
H46   H     H_    0.747639 0.224106 0.663072 0.195593
H47   H     H_    0.248030 0.537623 0.196013 0.155328
H48   H     H_    0.247428 0.523772 0.383083 0.166540
H49   H     H_    0.600838 0.379533 0.679998 0.057676
H50   H     H_    0.297518 0.460649 0.245673 0.155824
O1    O     O_R   0.410160 0.358490 0.449530 -0.617176
O2    O     O_R   0.947260 0.090430 0.537750 -0.621191
O3    O     O_R   0.142120 0.090460 0.551650 -0.603039
O4    O     O_R   0.408940 0.460590 0.550490 -0.625628
O5    O     O_R   0.038780 0.090460 0.448320 -0.628163
O6    O     O_R   0.052740 0.909570 0.462250 -0.618211
O7    O     O_R   0.949410 0.909570 0.358910 -0.625186
O8    O     O_R   0.961220 0.909540 0.551680 -0.628366
O9    O     O_R   0.857880 0.909540 0.448350 -0.617197
O10   O     O_R   0.592130 0.448950 0.541040 -0.618602
O11   O     O_R   0.590910 0.551050 0.642000 -0.633895
O12   O     O_R   0.046300 0.460610 0.904690 -0.624362
O13   O     O_R   0.591060 0.539410 0.449510 -0.626116
O14   O     O_R   0.589840 0.641510 0.550470 -0.615003
O15   O     O_R   0.409090 0.448950 0.358000 -0.626016
O16   O     O_R   0.407870 0.551050 0.458960 -0.616893
O17   O     O_R   0.944170 0.358540 0.904780 -0.633145
O18   O     O_3   0.841270 0.639664 0.910730 -0.585136
O19   O     O_3   0.996434 0.600615 0.255198 -0.591626
O20   O     O_3   0.762758 0.347738 0.703892 -0.614906
O21   O     O_R   0.851630 0.449030 0.902680 -0.665252
O22   O     O_R   0.953760 0.551100 0.902590 -0.616856
O23   O     O_R   0.942140 0.539520 0.083620 -0.581461
O24   O     O_R   0.044270 0.641590 0.083530 -0.624906
O25   O     O_R   0.034680 0.449030 0.085720 -0.610227
O26   O     O_R   0.136800 0.551100 0.085630 -0.630051
O27   O     O_R   0.050590 0.090430 0.641090 -0.627230
Zn1   Zn    Zn3+2 0.500810 0.431830 0.432590 0.954612
Zn2   Zn    Zn3+2 0.499190 0.568170 0.567410 0.936751
Zn3   Zn    Zn3+2 0.926030 0.431910 0.994210 0.951820
Zn4   Zn    Zn3+2 0.062410 0.568220 0.994100 0.956574
Zn5   Zn    Zn3+2 0.069000 0.000000 0.569000 0.951902
Zn6   Zn    Zn3+2 0.931000 0.000000 0.431000 0.940625

loop_
_geom_bond_atom_site_label_1
_geom_bond_atom_site_label_2
_ccdc_geom_bond_type
C40   H24   S    
C59   C60   D    
O26   Zn4   S    
C40   C41   A    
C27   C29   D    
O8    Zn5   S    
C47   H31   S    
C20   H6    S    
C18   C26   S    
C11   O21   A    
C24   H9    S    
C53   C54   A    
C57   H41   S    
C12   C23   S    
O22   Zn4   S    
C37   C38   A    
C30   C35   S    
C30   H49   S    
C13   C29   S    
C36   C37   A    
O6    Zn5   S    
C9    C16   S    
O7    Zn6   S    
O27   Zn5   S    
C11   O22   A    
C1    O1    A    
C30   C31   S    
C33   H17   S    
C52   H36   S    
C58   H46   S    
C13   O23   A    
C9    H5    S    
C26   H13   S    
C31   O20   S    
O13   Zn1   S    
C34   H19   S    
O5    Zn6   S    
O24   Zn4   S    
C34   O18   S    
C28   O15   A    
C8    C9    D    
O9    Zn6   S    
C55   H39   S    
C15   O2    A    
C25   H10   S    
C49   H33   S    
O17   Zn3   S    
C18   O7    A    
C22   H8    S    
C2    C61   D    
C51   H35   S    
C15   O27   A    
C4    C35   S    
C19   O8    A    
C8    H4    S    
C38   H21   S    
C13   O24   A    
O1    Zn1   S    
C37   H20   S    
C36   C41   A    
C59   H34   S    
C23   H12   S    
C10   O17   A    
C44   C46   A    
C17   O3    A    
C56   H23   S    
C3    C61   S    
O14   Zn2   S    
C57   H42   S    
O15   Zn1   S    
C48   H32   S    
C51   C52   A    
C32   C35   S    
C57   O19   S    
C45   C56   D    
C10   O12   A    
C1    C60   S    
C39   C40   A    
C43   C49   A    
C6    C8    S    
C46   H30   S    
C5    H50   S    
C10   C24   S    
C25   C26   D    
C6    H2    S    
C43   C44   A    
O25   Zn3   S    
C41   H25   S    
C5    C28   S    
C47   C48   A    
C18   O6    A    
C14   O26   A    
C58   O20   S    
C50   C51   A    
C4    O11   A    
C46   C47   A    
C23   H16   S    
C61   H45   S    
C43   C45   S    
C17   C56   S    
C31   H11   S    
C20   C22   S    
C19   O9    A    
C7    C19   S    
C12   C31   S    
C22   C24   D    
C54   H38   S    
C42   H27   S    
O16   Zn2   S    
C12   C34   S    
C44   H29   S    
C52   C53   A    
C16   O14   A    
O21   Zn3   S    
C54   C55   A    
C45   C59   S    
C33   H18   S    
C3    C5    D    
C32   H15   S    
C11   C12   S    
C28   O16   A    
C6    C7    D    
C29   H14   S    
C53   H37   S    
C25   C27   S    
C57   H40   S    
C50   C55   A    
O2    Zn6   S    
C30   C36   S    
C42   H28   S    
C50   C60   S    
C23   C32   S    
C58   H44   S    
C16   O13   A    
C32   H1    S    
C21   H7    S    
O3    Zn5   S    
O23   Zn3   S    
O10   Zn1   S    
C38   C39   A    
C14   O25   A    
C3    H48   S    
C48   C49   A    
O12   Zn4   S    
C2    H47   S    
C33   C35   S    
C33   C34   S    
C4    O10   A    
C42   O18   S    
C2    C14   S    
C7    H3    S    
C39   H22   S    
C15   C21   S    
O11   Zn2   S    
C58   H43   S    
C20   C21   D    
C27   O19   S    
C42   H26   S    
C1    O4    A    
O4    Zn2   S    
C17   O5    A    
