data_mof_unit_63308.cif
_audit_creation_date              2012-12-10T19:07:17-0500
_audit_creation_method            fapswitch 2.2
_symmetry_space_group_name_H-M    P1
_symmetry_Int_Tables_number       1
_space_group_crystal_system       triclinic
_cell_length_a                    13.029172
_cell_length_b                    13.627816
_cell_length_c                    19.117864
_cell_angle_alpha                 89.970744
_cell_angle_beta                  92.391749
_cell_angle_gamma                 85.812294
_cell_volume                      3382.51813579

loop_
_atom_site_label
_atom_site_type_symbol
_atom_type_description
_atom_site_fract_x
_atom_site_fract_y
_atom_site_fract_z
_atom_type_partial_charge
C1    C     C_R   0.481249 0.685194 0.499281 0.891144
C2    C     C_2   0.966925 0.526229 0.520414 -0.242757
C3    C     C_1   0.854813 0.519344 0.514577 0.151169
C4    C     C_1   0.145190 0.480651 0.485512 0.136228
C5    C     C_R   0.498622 0.501944 0.635066 0.890617
C6    C     C_R   0.500884 0.501321 0.364910 0.882915
C7    C     C_R   0.400723 0.515741 0.745197 0.528010
C8    C     C_R   0.593763 0.519746 0.253911 0.530647
C9    C     C_R   0.399359 0.536640 0.816625 -0.261204
C10   C     C_R   0.589692 0.543566 0.182925 -0.252868
C11   C     C_R   0.488706 0.562755 0.853219 0.016968
C12   C     C_R   0.518751 0.314806 0.500714 0.896420
C13   C     C_R   0.494715 0.558184 0.145834 0.013031
C14   C     C_R   0.580426 0.567026 0.818140 -0.161472
C15   C     C_R   0.403124 0.550277 0.180521 -0.161020
C16   C     C_R   0.583301 0.544240 0.747639 -0.267230
C17   C     C_R   0.406256 0.528653 0.251394 -0.263601
C18   C     C_R   0.494255 0.517869 0.710598 -0.151485
C19   C     C_R   0.501003 0.514397 0.288978 -0.161048
C20   C     C_R   0.491485 0.573992 0.070195 0.319608
C21   C     C_R   0.488437 0.576460 0.928957 0.319665
C22   C     C_3   0.241181 0.567170 0.700518 -0.272432
C23   C     C_1   0.533607 0.211677 0.501224 -0.177123
C24   C     C_3   0.728343 0.409853 0.281118 -0.289855
C25   C     C_1   0.466392 0.788317 0.498751 -0.175677
C26   C     C_2   0.544618 0.020561 0.501555 -0.157135
C27   C     C_2   0.455378 0.979430 0.498385 -0.156701
C28   C     C_1   0.457501 0.875707 0.498444 0.010968
C29   C     C_1   0.542496 0.124285 0.501512 0.011508
C30   C     C_2   0.033089 0.473733 0.479755 -0.231137
H1    H     H_    0.328644 0.530027 0.843505 0.167081
H2    H     H_    0.003131 0.424054 0.440833 0.162325
H3    H     H_    0.175786 0.544339 0.666813 0.189445
H4    H     H_    0.275292 0.628374 0.673071 0.153484
H5    H     H_    0.209638 0.593286 0.750919 0.149707
H6    H     H_    0.676038 0.357035 0.302311 0.150400
H7    H     H_    0.802998 0.399433 0.311241 0.192380
H8    H     H_    0.743176 0.393080 0.225309 0.154668
H9    H     H_    0.661387 0.548990 0.156951 0.170177
H10   H     H_    0.650606 0.586597 0.845296 0.163675
H11   H     H_    0.328756 0.560662 0.153008 0.164839
H12   H     H_    0.655489 0.548300 0.722034 0.184599
H13   H     H_    0.333978 0.524808 0.276928 0.185952
H14   H     H_    0.381914 0.022877 0.495796 0.162020
H15   H     H_    0.618082 0.977113 0.504145 0.161705
H16   H     H_    0.996876 0.575904 0.559344 0.154631
N1    N     N_R   0.578389 0.581231 0.966612 -0.178336
N2    N     N_R   0.401108 0.572867 0.032553 -0.178648
N3    N     N_R   0.579892 0.579984 0.036027 -0.178788
N4    N     N_R   0.399613 0.574026 0.963145 -0.179469
N5    N     N_1   0.234540 0.484780 0.488910 -0.088922
N6    N     N_1   0.765460 0.515220 0.511090 -0.086617
O1    O     O_R   0.402510 0.634760 0.495940 -0.615707
O2    O     O_3   0.688590 0.508015 0.289282 -0.587358
O3    O     O_R   0.597490 0.365240 0.504060 -0.611803
O4    O     O_R   0.572960 0.644530 0.503060 -0.602105
O5    O     O_R   0.427040 0.355470 0.496940 -0.598917
O6    O     O_R   0.414750 0.495120 0.598300 -0.562187
O7    O     O_R   0.585250 0.504880 0.401700 -0.555803
O8    O     O_R   0.585190 0.504900 0.605420 -0.627425
O9    O     O_R   0.414810 0.495100 0.394580 -0.626040
O10   O     O_3   0.313036 0.485316 0.710795 -0.588475
Zn1   Zn    Zn3+2 0.386190 0.493480 0.495250 0.988700
Zn2   Zn    Zn3+2 0.613810 0.506520 0.504750 0.994664

loop_
_geom_bond_atom_site_label_1
_geom_bond_atom_site_label_2
_ccdc_geom_bond_type
C24   H8    S    
C3    N6    T    
C17   H13   S    
C7    O10   S    
C15   C17   A    
C20   N3    A    
C6    C19   S    
C22   O10   S    
O1    Zn1   S    
C13   C20   S    
C2    C30   D    
O8    Zn2   S    
C7    C18   A    
O3    Zn2   S    
C26   H15   S    
N2    N4    A    
C2    C3    S    
C26   C27   D    
N1    N3    A    
C20   N2    A    
C2    H16   S    
C25   C28   T    
C30   H2    S    
C22   H5    S    
C9    C11   A    
C12   C23   S    
O7    Zn2   S    
C24   H6    S    
C5    O6    A    
C12   O5    A    
C23   C29   T    
C6    O9    A    
C8    C10   A    
C21   N4    A    
C17   C19   A    
C1    O4    A    
C11   C21   S    
O5    Zn1   S    
C13   C15   A    
N6    Zn2   S    
C22   H4    S    
C11   C14   A    
C14   C16   A    
C12   O3    A    
C9    H1    S    
C4    N5    T    
C14   H10   S    
C8    C19   A    
C16   H12   S    
O6    Zn1   S    
N5    Zn1   S    
C15   H11   S    
C26   C29   S    
C16   C18   A    
O4    Zn2   S    
C8    O2    S    
C24   H7    S    
C7    C9    A    
C22   H3    S    
C1    O1    A    
C5    C18   S    
C5    O8    A    
C21   N1    A    
C27   H14   S    
C24   O2    S    
C6    O7    A    
C1    C25   S    
O9    Zn1   S    
C4    C30   S    
C10   H9    S    
C27   C28   S    
C10   C13   A    
