data_mof_unit_68387.cif
_audit_creation_date              2012-12-10T19:48:35-0500
_audit_creation_method            fapswitch 2.2
_symmetry_space_group_name_H-M    P1
_symmetry_Int_Tables_number       1
_space_group_crystal_system       triclinic
_cell_length_a                    10.85664
_cell_length_b                    10.668396
_cell_length_c                    9.473122
_cell_angle_alpha                 87.678423
_cell_angle_beta                  91.650902
_cell_angle_gamma                 89.654097
_cell_volume                      1095.8206502

loop_
_atom_site_label
_atom_site_type_symbol
_atom_type_description
_atom_site_fract_x
_atom_site_fract_y
_atom_site_fract_z
_atom_type_partial_charge
C1    C     C_R   0.501654 0.259538 0.502679 0.835264
C2    C     C_R   0.498349 0.740462 0.497321 0.835275
C3    C     C_R   0.871355 0.496053 0.504149 -0.037997
C4    C     C_R   0.128643 0.503950 0.495856 -0.037999
C5    C     C_R   0.943580 0.415972 0.595305 0.099955
C6    C     C_R   0.056416 0.584032 0.404703 0.099960
C7    C     C_3   0.524913 0.029510 0.632824 0.326148
C8    C     C_3   0.475095 0.970492 0.367175 0.326178
C9    C     C_3   0.610395 0.952125 0.542397 -0.197284
C10   C     C_3   0.389614 0.047875 0.457605 -0.197247
C11   C     C_3   0.497926 0.877496 0.492808 -0.103930
C12   C     C_3   0.502083 0.122505 0.507192 -0.103919
C13   C     C_3   0.412621 0.953280 0.584387 -0.180249
C14   C     C_3   0.587389 0.046721 0.415614 -0.180251
C15   C     C_3   0.452504 0.603654 0.044307 -0.198691
C16   C     C_3   0.547496 0.396347 0.955693 -0.198607
C17   C     C_3   0.388532 0.511245 0.944909 -0.201103
C18   C     C_3   0.611469 0.488755 0.055091 -0.201059
C19   C     C_3   0.562984 0.590839 0.949148 0.676680
C20   C     C_3   0.437017 0.409160 0.050850 0.676688
C21   C     C_R   0.262639 0.504313 0.498018 0.797326
C22   C     C_R   0.737360 0.495687 0.501983 0.797316
C23   C     C_R   0.135571 0.889188 0.217741 -0.109624
C24   C     C_R   0.864468 0.110793 0.782269 -0.109683
C25   C     C_R   0.115589 0.801191 0.328056 0.243009
C26   C     C_R   0.884442 0.198797 0.671952 0.243027
C27   C     C_R   0.108078 0.672970 0.299828 -0.046161
C28   C     C_R   0.891916 0.327027 0.700174 -0.046187
C29   C     C_R   0.124537 0.633799 0.161929 0.297481
C30   C     C_R   0.875418 0.366198 0.838070 0.297487
C31   C     C_R   0.145312 0.722397 0.052422 -0.155933
C32   C     C_R   0.854638 0.277593 0.947577 -0.155895
C33   C     C_R   0.149430 0.849924 0.080045 -0.175227
C34   C     C_R   0.850573 0.150060 0.919961 -0.175188
C35   C     C_R   0.928511 0.578472 0.409128 -0.148048
C36   C     C_R   0.071486 0.421534 0.590881 -0.148061
Cu1   Cu    Cu3+1 0.500030 0.499990 0.643150 1.016260
Cu2   Cu    Cu3+1 0.499970 0.500010 0.356850 1.016257
H1    H     H_    0.164198 0.918405 0.994858 0.184655
H2    H     H_    0.835806 0.081572 0.005147 0.184633
H3    H     H_    0.295503 0.520189 0.893964 0.177504
H4    H     H_    0.704498 0.479808 0.106019 0.177523
H5    H     H_    0.412021 0.689507 0.086013 0.199044
H6    H     H_    0.587976 0.310494 0.913985 0.199055
H7    H     H_    0.139471 0.988160 0.238384 0.191102
H8    H     H_    0.860600 0.011816 0.761630 0.191096
H9    H     H_    0.155751 0.692909 0.945478 0.191149
H10   H     H_    0.844157 0.307085 0.054516 0.191115
H11   H     H_    0.873067 0.639992 0.338340 0.146302
H12   H     H_    0.126929 0.360012 0.661666 0.146298
H13   H     H_    0.701097 0.911264 0.577243 0.198265
H14   H     H_    0.298912 0.088740 0.422765 0.198266
H15   H     H_    0.341752 0.913610 0.655196 0.206448
H16   H     H_    0.658266 0.086393 0.344815 0.206433
N1    N     N_3   0.500090 0.499970 0.858290 -0.206541
N2    N     N_3   0.499910 0.500030 0.141710 -0.206543
O1    O     O_R   0.500060 0.316850 0.620870 -0.581080
O2    O     O_R   0.499940 0.683150 0.379130 -0.581087
O3    O     O_R   0.500000 0.316860 0.379090 -0.526513
O4    O     O_R   0.500000 0.683140 0.620910 -0.526520
O5    O     O_R   0.319670 0.500010 0.620890 -0.601590
O6    O     O_R   0.680330 0.499990 0.379110 -0.601585
O7    O     O_R   0.319620 0.500010 0.379110 -0.532569
O8    O     O_R   0.680380 0.499990 0.620890 -0.532559
O9    O     O_3   0.630607 0.689220 0.885130 -0.526417
C37   C     C_3   0.689195 0.759407 0.990207 -0.187551
H17   H     H_    0.753331 0.701017 0.059116 0.158185
H18   H     H_    0.621059 0.805008 0.055906 0.202375
H19   H     H_    0.744243 0.834218 0.937875 0.210060
O10   O     O_3   0.369426 0.310755 0.114869 -0.526407
C38   C     C_3   0.310735 0.240645 0.009781 -0.187552
H20   H     H_    0.378811 0.194933 0.944085 0.202415
H21   H     H_    0.246687 0.299099 0.940858 0.158093
H22   H     H_    0.255581 0.165936 0.062109 0.210036
Br1   Br    Br    0.093020 0.858417 0.514856 -0.542152
Br2   Br    Br    0.907035 0.141566 0.485160 -0.542126
Br3   Br    Br    0.110782 0.459806 0.122086 -0.520756
Br4   Br    Br    0.889140 0.540196 0.877931 -0.520700
Br5   Br    Br    0.561794 0.057611 0.828510 -0.577897
Br6   Br    Br    0.438193 0.942402 0.171495 -0.577872

loop_
_geom_bond_atom_site_label_1
_geom_bond_atom_site_label_2
_ccdc_geom_bond_type
C37   H18   S    
C4    C36   A    
C23   H7    S    
C27   C29   A    
C9    H13   S    
C20   N2    S    
C10   H14   S    
C15   C19   S    
C33   H1    S    
C34   H2    S    
C24   C26   A    
C1    O3    A    
C2    O4    A    
C37   H19   S    
C5    C36   A    
C17   C20   S    
C6    C35   A    
C7    C9    S    
C18   C19   S    
C18   H4    S    
Cu2   O2    S    
C23   C33   A    
C35   H11   S    
C26   Br2   S    
C31   C33   A    
O10   C38   S    
C17   N1    S    
C21   O5    A    
C18   N2    S    
C37   H17   S    
C31   H9    S    
C32   H10   S    
C20   O10   S    
C1    C12   S    
C2    C11   S    
C13   H15   S    
C7    C12   S    
C4    C6    A    
C38   H21   S    
C24   C34   A    
C25   Br1   S    
C30   Br4   S    
C9    C14   S    
Cu1   Cu2   S    
C1    O1    A    
C22   O6    A    
C5    C28   S    
C6    C27   S    
C3    C35   A    
C16   C20   S    
C29   Br3   S    
C9    C11   S    
C10   C12   S    
C16   C18   S    
C14   H16   S    
C12   C14   S    
Cu1   O8    S    
C36   H12   S    
C7    Br5   S    
Cu2   O7    S    
C19   N1    S    
C15   C17   S    
C16   H6    S    
C8    C14   S    
C3    C5    A    
C10   C13   S    
C38   H22   S    
Cu1   O5    S    
C2    O2    A    
C25   C27   A    
C26   C28   A    
C24   H8    S    
C15   N2    S    
C28   C30   A    
C16   N1    S    
C15   H5    S    
C38   H20   S    
C29   C31   A    
C30   C32   A    
C4    C21   S    
C11   C13   S    
C8    C11   S    
C19   O9    S    
C23   C25   A    
C17   H3    S    
C21   O7    A    
Cu1   O4    S    
C22   O8    A    
Cu2   O3    S    
Cu1   N1    S    
C7    C13   S    
Cu2   N2    S    
C8    C10   S    
O9    C37   S    
C8    Br6   S    
C3    C22   S    
Cu1   O1    S    
C32   C34   A    
Cu2   O6    S    
