data_mof_unit_47525.cif
_audit_creation_date              2013-03-05T15:45:10-0500
_audit_creation_method            fapswitch 2.2
_symmetry_space_group_name_H-M    P1
_symmetry_Int_Tables_number       1
_space_group_crystal_system       triclinic
_cell_length_a                    10.772991
_cell_length_b                    10.80946
_cell_length_c                    9.982023
_cell_angle_alpha                 108.849955
_cell_angle_beta                  99.97498
_cell_angle_gamma                 91.262881
_cell_volume                      1079.63623958

loop_
_atom_site_label
_atom_site_type_symbol
_atom_site_description
_atom_site_fract_x
_atom_site_fract_y
_atom_site_fract_z
_atom_type_partial_charge
O1    O     O_R   0.511700 0.332330 0.577400 -0.551581
O2    O     O_R   0.474680 0.295500 0.332650 -0.518153
C1    C     C_R   0.488517 0.253648 0.443898 0.831949
O3    O     O_R   0.338160 0.518420 0.622400 -0.542711
O4    O     O_R   0.301140 0.481590 0.377650 -0.557322
C2    C     C_R   0.262373 0.505251 0.500368 0.918843
Cu1   Cu    Cu3+1 0.521920 0.521810 0.644910 1.201170
Cu2   Cu    Cu3+1 0.478080 0.478190 0.355090 1.202699
O5    O     O_R   0.525320 0.704500 0.667350 -0.501415
O6    O     O_R   0.488300 0.667670 0.422600 -0.543128
O7    O     O_R   0.698860 0.518410 0.622350 -0.553076
O8    O     O_R   0.661840 0.481580 0.377600 -0.532546
C3    C     C_R   0.504717 0.746337 0.555791 0.855963
C4    C     C_R   0.736081 0.484377 0.497872 0.837203
H1    H     H_    0.078951 0.405869 0.269516 0.231283
C5    C     C_R   0.145732 0.639292 0.761594 0.308929
C6    C     C_R   0.113327 0.637010 0.891080 0.196420
C7    C     C_R   0.015248 0.547136 0.887607 0.287514
C8    C     C_R   0.936038 0.475486 0.754275 0.277140
C9    C     C_R   0.959346 0.496704 0.627288 -0.160969
C10   C     C_R   0.078987 0.551154 0.629285 -0.066475
C11   C     C_R   0.126574 0.509249 0.499542 -0.034684
C12   C     C_R   0.043851 0.444158 0.369049 -0.105655
C13   C     C_R   0.915381 0.426044 0.365297 0.421924
C14   C     C_R   0.870378 0.461889 0.496066 -0.109768
C15   C     C_2   0.474267 0.112575 0.422620 0.164038
C16   C     C_2   0.402518 0.067668 0.499392 0.214857
C17   C     C_2   0.498750 0.887963 0.577221 0.089822
C18   C     C_2   0.401786 0.930232 0.498136 0.201087
N1    N     N_2   0.445130 0.445430 0.137370 -0.111878
C19   C     C_2   0.508053 0.517697 0.084195 0.484956
N2    N     N_2   0.554930 0.554500 0.862630 -0.019088
C20   C     C_2   0.484906 0.498624 0.925437 0.456511
Cl1   Cl    Cl    0.563269 0.007921 0.307610 -0.363444
Cl2   Cl    Cl    0.342635 0.407554 0.824875 -0.483683
Cl3   Cl    Cl    0.599307 0.660149 0.203635 -0.381647
Cl4   Cl    Cl    0.701116 0.639870 0.945222 -0.279280
N3    N     N_R   0.415586 0.313558 0.055177 0.260805
O9    O     O_R   0.501739 0.243541 0.997979 -0.209007
O10   O     O_R   0.311654 0.254181 0.061750 -0.203531
Cl5   Cl    Cl    0.257635 0.764092 0.767266 -0.401019
N4    N     N_R   0.185914 0.719653 0.025955 0.208132
O11   O     O_R   0.195498 0.846309 0.055806 -0.178853
O12   O     O_R   0.254489 0.667747 0.111136 -0.280309
Cl6   Cl    Cl    0.993246 0.529434 0.051603 -0.354760
N5    N     N_R   0.847774 0.367816 0.742371 0.185283
O13   O     O_R   0.791249 0.368097 0.847436 -0.191565
O14   O     O_R   0.827511 0.264746 0.626567 -0.277390
Cl7   Cl    Cl    0.818274 0.343959 0.195914 -0.347535
N6    N     N_R   0.285796 0.849338 0.422775 0.182693
O15   O     O_R   0.201811 0.892101 0.341798 -0.181719
O16   O     O_R   0.249709 0.752105 0.460018 -0.336651
N7    N     N_R   0.308085 0.144341 0.565840 0.172132
O17   O     O_R   0.244101 0.217677 0.502915 -0.339110
O18   O     O_R   0.264788 0.115641 0.667102 -0.175284
N8    N     N_R   0.602737 0.976796 0.674177 0.155799
O19   O     O_R   0.709124 0.931178 0.711904 -0.228600
O20   O     O_R   0.589130 0.100400 0.735457 -0.225317

loop_
_geom_bond_atom_site_label_1
_geom_bond_atom_site_label_2
_geom_bond_distance
_ccdc_geom_bond_type
O4    Cu2   1.957551 S    
N6    O16   1.295587 A    
C12   C13   1.385849 A    
C16   N7    1.441351 S    
C3    C17   1.480222 S    
C5    C10   1.413057 A    
C16   C18   1.481447 S    
C1    C15   1.470772 S    
N4    O11   1.301277 A    
C8    C9    1.420577 A    
Cu2   O8    1.951463 S    
Cu2   N1    2.050482 S    
N2    C20   1.309726 D    
H1    C12   1.082935 S    
C6    C7    1.407739 A    
C17   N8    1.445729 S    
C8    N5    1.447593 S    
Cu1   Cu2   2.729501 S    
N6    O15   1.300833 A    
O6    C3    1.305125 A    
N7    O17   1.301500 A    
C9    C10   1.399336 A    
Cu1   O7    1.957551 S    
C15   C16   1.359935 D    
N1    C19   1.311755 D    
N4    O12   1.300951 A    
O3    Cu1   1.951463 S    
C10   C11   1.416493 A    
C17   C18   1.375338 D    
N3    O10   1.300332 A    
N8    O20   1.300922 A    
O2    C1    1.315411 A    
C11   C12   1.401408 A    
C18   N6    1.446734 S    
N7    O18   1.301966 A    
C4    C14   1.474549 S    
O4    C2    1.311439 A    
O7    C4    1.312924 A    
N5    O14   1.301856 A    
C13   C14   1.410605 A    
N2    Cl4   1.733775 S    
C19   C20   1.505243 S    
C2    C11   1.463233 S    
C7    Cl6   1.762799 S    
C6    N4    1.431581 S    
N3    O9    1.302121 A    
N8    O19   1.301507 A    
N1    N3    1.392912 S    
O3    C2    1.307277 A    
C7    C8    1.417991 A    
N5    O13   1.299999 A    
C13   Cl7   1.765598 S    
Cu1   O5    1.912958 S    
O5    C3    1.318357 A    
C19   Cl3   1.760659 S    
Cu1   N2    2.050604 S    
C20   Cl2   1.757215 S    
O1    Cu1   1.932290 S    
C5    Cl5   1.769653 S    
C15   Cl1   1.762666 S    
Cu2   O6    1.932290 S    
O2    Cu2   1.912958 S    
O8    C4    1.313299 A    
C5    C6    1.403442 A    
O1    C1    1.305587 A    
C9    C14   1.416548 A    
