data_mof_unit_8776.cif
_audit_creation_date              2012-12-10T17:29:17-0500
_audit_creation_method            fapswitch 2.2
_symmetry_space_group_name_H-M    P1
_symmetry_Int_Tables_number       1
_space_group_crystal_system       triclinic
_cell_length_a                    12.017195
_cell_length_b                    12.849318
_cell_length_c                    13.130999
_cell_angle_alpha                 86.933504
_cell_angle_beta                  113.775427
_cell_angle_gamma                 94.519354
_cell_volume                      1849.22335698

loop_
_atom_site_label
_atom_site_type_symbol
_atom_type_description
_atom_site_fract_x
_atom_site_fract_y
_atom_site_fract_z
_atom_type_partial_charge
C1    C     C_R   0.475526 0.299584 0.496290 1.011548
C2    C     C_R   0.612569 0.506376 0.828877 -0.088409
C3    C     C_R   0.539699 0.813175 0.500050 -0.205504
C4    C     C_R   0.567357 0.496044 0.708715 1.010526
C5    C     C_R   0.458414 0.188106 0.493578 -0.223785
C6    C     C_R   0.385980 0.027331 0.557095 0.480153
C7    C     C_R   0.386388 0.135857 0.543626 -0.333402
C8    C     C_R   0.524408 0.133930 0.449853 0.583210
C9    C     C_R   0.528606 0.027150 0.465823 -0.122395
C10   C     C_R   0.460132 0.973465 0.520531 0.041230
C11   C     C_R   0.466855 0.866626 0.537061 -0.210432
C12   C     C_R   0.536640 0.526502 0.971610 -0.064610
C13   C     C_R   0.612899 0.867576 0.450764 0.401007
C14   C     C_R   0.603773 0.973979 0.431142 -0.087305
C15   C     C_R   0.009966 0.600383 0.397272 -0.168463
C16   C     C_R   0.524034 0.700859 0.501679 0.909916
C17   C     C_R   0.129821 0.590754 0.407515 0.005404
C18   C     C_R   0.157600 0.455898 0.544216 0.067986
C19   C     C_R   0.037168 0.462731 0.536886 -0.158875
C20   C     C_R   0.962479 0.536294 0.462391 -0.115367
C21   C     C_R   0.842054 0.543350 0.454932 0.687413
C22   C     C_R   0.869743 0.408707 0.591868 -0.134467
C23   C     C_R   0.534489 0.471069 0.881024 -0.182785
C24   C     C_R   0.989157 0.398144 0.601379 0.569182
C25   C     C_R   0.432241 0.502253 0.291073 0.955981
C26   C     C_R   0.265221 0.393910 0.006850 0.754208
C27   C     C_R   0.387320 0.492324 0.170836 -0.291408
C28   C     C_R   0.712049 0.577796 0.881455 0.345833
C29   C     C_R   0.716775 0.630472 0.973648 -0.240323
C30   C     C_R   0.622890 0.614255 0.010272 0.446413
C31   C     C_R   0.452290 0.492558 0.018546 -0.065917
C32   C     C_R   0.356235 0.416476 0.965329 -0.209662
C33   C     C_R   0.358167 0.359628 0.877740 0.419957
C34   C     C_R   0.450988 0.383995 0.840036 0.488392
C35   C     C_R   0.469968 0.523176 0.124171 -0.228383
C36   C     C_R   0.277725 0.434994 0.107364 0.296854
F1    F     F_    0.587725 0.185800 0.394845 -0.648827
F2    F     F_    0.768536 0.612770 0.382385 -0.630378
F3    F     F_    0.056320 0.324589 0.672493 -0.604622
F4    F     F_    0.164820 0.330539 0.951741 -0.535807
F5    F     F_    0.462058 0.320825 0.765109 -0.700982
H1    H     H_    0.657773 0.014984 0.390675 0.227403
H2    H     H_    0.177644 0.470061 0.182260 0.349390
H3    H     H_    0.743793 0.779303 0.481214 0.374372
H4    H     H_    0.271607 0.023457 0.628553 0.356354
H5    H     H_    0.286177 0.245087 0.773998 0.381369
H6    H     H_    0.857374 0.655991 0.880712 0.341480
H7    H     H_    0.524280 0.701131 0.050491 0.345809
H8    H     H_    0.335013 0.179697 0.576217 0.208262
H9    H     H_    0.833781 0.359002 0.642073 0.208392
H10   H     H_    0.955146 0.657622 0.338764 0.207419
H11   H     H_    0.165422 0.640309 0.356946 0.137657
H12   H     H_    0.216227 0.399703 0.600906 0.177090
H13   H     H_    0.555071 0.562917 0.176358 0.264954
H14   H     H_    0.785430 0.693420 0.008441 0.178738
H15   H     H_    0.413357 0.823929 0.577093 0.224785
N1    N     N_R   0.798200 0.480260 0.519790 -0.182498
N2    N     N_R   0.201820 0.519740 0.480210 -0.112888
O1    O     O_R   0.579910 0.341070 0.505280 -0.575962
O2    O     O_3   0.689006 0.819129 0.415994 -0.680629
O3    O     O_3   0.317587 0.973387 0.608222 -0.750395
O4    O     O_3   0.274849 0.275725 0.836531 -0.610885
O5    O     O_3   0.794571 0.604016 0.833924 -0.731961
O6    O     O_3   0.612351 0.691728 0.073876 -0.718348
O7    O     O_R   0.388440 0.353740 0.492580 -0.612028
O8    O     O_R   0.643280 0.490550 0.663120 -0.574026
O9    O     O_R   0.451810 0.503220 0.650420 -0.625136
O10   O     O_R   0.611560 0.646260 0.507420 -0.576477
O11   O     O_R   0.420090 0.658930 0.494720 -0.636870
O12   O     O_R   0.548190 0.496780 0.349580 -0.551165
O13   O     O_R   0.356720 0.509450 0.336880 -0.637131
O14   O     O_3   0.187343 0.408571 0.145041 -0.684572
Zn1   Zn    Zn3+2 0.627850 0.491540 0.508480 1.075416
Zn2   Zn    Zn3+2 0.372150 0.508460 0.491520 0.978975

loop_
_geom_bond_atom_site_label_1
_geom_bond_atom_site_label_2
_ccdc_geom_bond_type
C26   C32   A    
H2    O14   S    
C30   O6    S    
C19   C20   A    
C22   N1    A    
C13   O2    S    
C12   C23   A    
H5    O4    S    
C1    C5    S    
C6    O3    S    
C28   C29   A    
C1    O1    A    
H6    O5    S    
H7    O6    S    
C24   F3    S    
C18   C19   A    
N1    Zn1   S    
C18   H12   S    
C18   N2    A    
C21   F2    S    
C8    C9    A    
C1    O7    A    
C25   O13   A    
C15   H10   S    
C9    C10   A    
O1    Zn1   S    
C3    C13   A    
C17   N2    A    
C22   H9    S    
C13   C14   A    
C35   H13   S    
C34   F5    S    
C17   H11   S    
C15   C20   A    
C7    H8    S    
C5    C7    A    
C33   O4    S    
C29   H14   S    
C27   C35   A    
O10   Zn1   S    
O8    Zn1   S    
O7    Zn2   S    
C2    C4    S    
C9    C14   A    
C21   N1    A    
C29   C30   A    
C5    C8    A    
C31   C32   A    
C23   C34   A    
O12   Zn1   S    
C33   C34   A    
O11   Zn2   S    
O9    Zn2   S    
C16   O10   A    
C26   C36   A    
C12   C31   A    
C22   C24   A    
C8    F1    S    
N2    Zn2   S    
C15   C17   A    
C12   C30   A    
C16   O11   A    
C4    O9    A    
C6    C10   A    
O13   Zn2   S    
C6    C7    A    
C27   C36   A    
C25   C27   S    
C14   H1    S    
C32   C33   A    
C19   C24   A    
C4    O8    A    
C26   F4    S    
H3    O2    S    
H4    O3    S    
C31   C35   A    
C3    C11   A    
C10   C11   A    
C11   H15   S    
C28   O5    S    
C20   C21   A    
C2    C23   A    
C2    C28   A    
C25   O12   A    
C3    C16   S    
C36   O14   S    
