data_mof_unit_18790.cif
_audit_creation_date              2012-12-10T18:59:14-0500
_audit_creation_method            fapswitch 2.2
_symmetry_space_group_name_H-M    P1
_symmetry_Int_Tables_number       1
_space_group_crystal_system       triclinic
_cell_length_a                    9.935058
_cell_length_b                    10.614663
_cell_length_c                    16.852928
_cell_angle_alpha                 88.370634
_cell_angle_beta                  95.129585
_cell_angle_gamma                 90.06509
_cell_volume                      1769.42878869

loop_
_atom_site_label
_atom_site_type_symbol
_atom_type_description
_atom_site_fract_x
_atom_site_fract_y
_atom_site_fract_z
_atom_type_partial_charge
C1    C     C_R   0.499770 0.260727 0.498983 0.927813
C2    C     C_R   0.078083 0.406387 0.539476 -0.002937
C3    C     C_R   0.518329 0.501185 0.653276 1.034005
C4    C     C_R   0.481671 0.498815 0.346724 1.034005
C5    C     C_R   0.530113 0.514374 0.739484 -0.538620
C6    C     C_R   0.469887 0.485626 0.260515 -0.538620
C7    C     C_R   0.418596 0.558219 0.776810 0.464756
C8    C     C_R   0.581404 0.441781 0.223189 0.464755
C9    C     C_R   0.427281 0.567525 0.858731 0.560425
C10   C     C_R   0.572719 0.432474 0.141269 0.560426
C11   C     C_R   0.546563 0.530787 0.904560 -0.144529
C12   C     C_R   0.500230 0.739273 0.501016 0.927811
C13   C     C_R   0.453437 0.469213 0.095440 -0.144529
C14   C     C_R   0.660318 0.495735 0.867648 0.587948
C15   C     C_R   0.339682 0.504265 0.132352 0.587948
C16   C     C_R   0.652598 0.486911 0.785329 0.485891
C17   C     C_R   0.347402 0.513089 0.214671 0.485891
C18   C     C_R   0.465770 0.064502 0.566871 0.735024
C19   C     C_R   0.534230 0.935498 0.433129 0.735024
C20   C     C_2   0.432721 0.863370 0.643497 0.641934
C21   C     C_2   0.567279 0.136630 0.356503 0.641935
C22   C     C_2   0.134455 0.693644 0.416234 0.534958
C23   C     C_R   0.465532 0.934015 0.569945 -0.253050
C24   C     C_2   0.865545 0.306356 0.583766 0.534958
C25   C     C_2   0.840057 0.689752 0.413534 0.605502
C26   C     C_2   0.159943 0.310248 0.586466 0.605500
C27   C     C_R   0.534468 0.065985 0.430055 -0.253050
C28   C     C_R   0.500466 0.871813 0.502131 -0.316891
C29   C     C_R   0.499534 0.128187 0.497868 -0.316891
C30   C     C_R   0.066168 0.594132 0.460762 0.008207
C31   C     C_R   0.933832 0.405868 0.539238 0.008207
C32   C     C_R   0.921917 0.593613 0.460524 -0.002938
F1    F     F_    0.698993 0.407111 0.265520 -0.562270
F2    F     F_    0.562414 0.869102 0.368676 -0.607418
F3    F     F_    0.301006 0.592888 0.734480 -0.562269
F4    F     F_    0.681090 0.389190 0.106383 -0.495713
F5    F     F_    0.318909 0.610810 0.893617 -0.495713
F6    F     F_    0.776561 0.463543 0.912092 -0.480075
F7    F     F_    0.223439 0.536458 0.087908 -0.480075
F8    F     F_    0.763429 0.447764 0.751325 -0.580803
F9    F     F_    0.236571 0.552237 0.248675 -0.580803
F10   F     F_    0.437586 0.130898 0.631324 -0.607418
H1    H     H_    0.445900 0.762236 0.648603 0.030246
H2    H     H_    0.554100 0.237764 0.351397 0.030246
H3    H     H_    0.208996 0.669139 0.376572 0.156559
H4    H     H_    0.791004 0.330861 0.623429 0.156559
H5    H     H_    0.774353 0.663008 0.362068 0.118891
H6    H     H_    0.225647 0.336991 0.637932 0.118892
N1    N     N_2   0.552574 0.522641 0.987989 0.033781
N2    N     N_2   0.447426 0.477359 0.012011 0.033781
N3    N     N_R   0.857210 0.499970 0.500020 -0.167407
N4    N     N_R   0.142790 0.500030 0.499980 -0.167407
O1    O     O_R   0.614620 0.316750 0.500010 -0.645623
O2    O     O_2   0.609607 0.083075 0.300562 -0.411210
O3    O     O_2   0.111662 0.804946 0.425505 -0.479534
O4    O     O_2   0.888337 0.195054 0.574495 -0.479534
O5    O     O_2   0.843897 0.799759 0.432801 -0.448262
O6    O     O_2   0.156102 0.200241 0.567199 -0.448262
O7    O     O_R   0.385380 0.683250 0.499990 -0.645623
O8    O     O_R   0.385290 0.316780 0.500000 -0.602171
O9    O     O_R   0.614710 0.683220 0.500000 -0.602170
O10   O     O_R   0.627460 0.498830 0.616130 -0.605856
O11   O     O_R   0.372540 0.501170 0.383870 -0.605856
O12   O     O_R   0.398130 0.498850 0.616130 -0.598624
O13   O     O_R   0.601870 0.501150 0.383870 -0.598624
O14   O     O_2   0.390393 0.916925 0.699438 -0.411210
Zn1   Zn    Zn3+2 0.653130 0.499980 0.500000 1.015053
Zn2   Zn    Zn3+2 0.346870 0.500020 0.500000 1.015052

loop_
_geom_bond_atom_site_label_1
_geom_bond_atom_site_label_2
_ccdc_geom_bond_type
C10   F4    S    
C5    C7    A    
C32   N3    A    
C22   O3    D    
C11   N1    S    
O7    Zn2   S    
C27   C29   A    
C21   H2    S    
C19   C27   A    
C25   H5    S    
C18   C23   A    
N4    Zn2   S    
C20   C23   S    
C26   H6    S    
C24   H4    S    
C20   H1    S    
C25   C32   S    
C9    F5    S    
C19   F2    S    
C21   C27   S    
C24   C31   S    
C2    C26   S    
C18   C29   A    
N3    Zn1   S    
C23   C28   A    
C30   C32   A    
C19   C28   A    
C9    C11   A    
C4    O11   A    
C15   F7    S    
C4    O13   A    
C2    N4    A    
O10   Zn1   S    
C12   C28   S    
O12   Zn2   S    
C1    C29   S    
C16   F8    S    
C14   C16   A    
C8    F1    S    
C13   C15   A    
C21   O2    D    
O1    Zn1   S    
C11   C14   A    
C17   F9    S    
C3    O10   A    
C4    C6    S    
C24   O4    D    
C14   F6    S    
C25   O5    D    
C7    C9    A    
C22   H3    S    
C12   O9    A    
O9    Zn1   S    
O8    Zn2   S    
C8    C10   A    
N1    N2    D    
C1    O8    A    
C20   O14   D    
C15   C17   A    
C6    C17   A    
C1    O1    A    
O11   Zn2   S    
C2    C31   A    
C5    C16   A    
C6    C8    A    
C22   C30   S    
C18   F10   S    
C3    C5    S    
C3    O12   A    
C12   O7    A    
C7    F3    S    
C26   O6    D    
C13   N2    S    
C31   N3    A    
C30   N4    A    
O13   Zn1   S    
C10   C13   A    
