data_mof_unit_40919.cif
_audit_creation_date              2012-12-10T20:34:47-0500
_audit_creation_method            fapswitch 2.2
_symmetry_space_group_name_H-M    P1
_symmetry_Int_Tables_number       1
_space_group_crystal_system       triclinic
_cell_length_a                    10.653747
_cell_length_b                    10.688298
_cell_length_c                    9.906215
_cell_angle_alpha                 89.834623
_cell_angle_beta                  90.009698
_cell_angle_gamma                 91.267148
_cell_volume                      1127.74433123

loop_
_atom_site_label
_atom_site_type_symbol
_atom_type_description
_atom_site_fract_x
_atom_site_fract_y
_atom_site_fract_z
_atom_type_partial_charge
Br1   Br    Br    0.649752 0.146691 0.231863 -0.467273
Br2   Br    Br    0.252755 0.134031 0.674734 -0.588023
Br3   Br    Br    0.474330 0.125216 0.900516 -0.467823
C1    C     C_R   0.507675 0.260262 0.500174 0.961845
C2    C     C_R   0.509828 0.934997 0.621060 0.033196
C3    C     C_3   0.409240 0.921703 0.724563 -0.481015
C4    C     C_R   0.258242 0.507294 0.500146 0.865086
C5    C     C_3   0.411371 0.063480 0.729360 0.487042
C6    C     C_R   0.421351 0.421057 0.071491 0.308683
C7    C     C_R   0.583323 0.571269 0.073554 -0.126942
C8    C     C_R   0.583167 0.573546 0.930399 0.216230
C9    C     C_R   0.420664 0.421873 0.929212 0.291888
C10   C     C_3   0.280920 0.422970 0.926053 -0.519630
C11   C     C_3   0.281900 0.419533 0.078786 -0.530367
C12   C     C_3   0.878450 0.508950 0.500345 0.091021
C13   C     C_R   0.505178 0.739745 0.499828 0.872530
C14   C     C_R   0.742115 0.503880 0.500031 0.838052
C15   C     C_3   0.070320 0.544591 0.645962 0.036224
C16   C     C_3   0.927109 0.533684 0.645559 -0.390255
C17   C     C_3   0.071563 0.607796 0.391347 0.032452
C18   C     C_3   0.070641 0.381749 0.461889 -0.511394
C19   C     C_3   0.121633 0.514498 0.500735 0.133451
C20   C     C_3   0.114156 0.670933 0.707350 -0.901847
C21   C     C_3   0.674524 0.664872 0.866898 -0.850133
C22   C     C_3   0.136378 0.738183 0.383545 -0.894795
C23   C     C_3   0.927836 0.616440 0.406816 -0.402586
C24   C     C_3   0.927144 0.381976 0.450740 -0.401013
C25   C     C_R   0.511264 0.062250 0.622190 0.046236
C26   C     C_R   0.530949 0.129001 0.502208 -0.201776
C27   C     C_R   0.578625 0.065303 0.388443 0.281004
C28   C     C_R   0.573774 0.935087 0.388133 -0.234511
C29   C     C_R   0.526960 0.871088 0.501531 -0.129677
H1    H     H_    0.898850 0.366193 0.343813 0.216660
H2    H     H_    0.239099 0.337081 0.880293 0.263080
H3    H     H_    0.244692 0.505830 0.124783 0.208253
H4    H     H_    0.243589 0.330321 0.121514 0.231713
H5    H     H_    0.896944 0.455641 0.713954 0.186227
H6    H     H_    0.884553 0.620192 0.685335 0.183441
H7    H     H_    0.901518 0.708092 0.450478 0.180031
H8    H     H_    0.110816 0.350424 0.364152 0.198283
H9    H     H_    0.097871 0.312466 0.539665 0.233843
H10   H     H_    0.886066 0.303722 0.512026 0.193828
H11   H     H_    0.057892 0.749739 0.670079 0.257555
H12   H     H_    0.088994 0.565055 0.290806 0.164811
H13   H     H_    0.100633 0.667962 0.818478 0.235057
H14   H     H_    0.214573 0.691399 0.687293 0.258414
H15   H     H_    0.669499 0.669432 0.757155 0.286184
H16   H     H_    0.656347 0.760439 0.904928 0.231449
H17   H     H_    0.771505 0.639804 0.895689 0.213755
H18   H     H_    0.239938 0.731213 0.380466 0.251601
H19   H     H_    0.110597 0.799987 0.467580 0.262344
H20   H     H_    0.107095 0.785403 0.288952 0.251099
H21   H     H_    0.884031 0.610296 0.304943 0.168967
H22   H     H_    0.601705 0.884939 0.298490 0.190209
H23   H     H_    0.321288 0.880635 0.682015 0.202483
H24   H     H_    0.443183 0.875493 0.817944 0.222203
H25   H     H_    0.648310 0.630684 0.129625 0.155879
H26   H     H_    0.103432 0.470355 0.715445 0.174372
H27   H     H_    0.246039 0.512520 0.885877 0.208820
N1    N     N_R   0.499150 0.499140 0.142800 -0.133832
N2    N     N_R   0.499150 0.499180 0.857150 -0.123158
O1    O     O_R   0.500020 0.316790 0.614690 -0.578615
O2    O     O_R   0.500000 0.316760 0.385350 -0.567014
O3    O     O_R   0.314800 0.500000 0.614670 -0.616701
O4    O     O_R   0.314790 0.499960 0.385330 -0.633338
O5    O     O_R   0.500000 0.683240 0.614650 -0.631880
O6    O     O_R   0.499980 0.683210 0.385310 -0.630948
O7    O     O_R   0.685210 0.500040 0.614670 -0.636375
O8    O     O_R   0.685200 0.500000 0.385330 -0.617063
Zn1   Zn    Zn3+2 0.500010 0.500020 0.653130 0.967943
Zn2   Zn    Zn3+2 0.499990 0.499980 0.346870 0.974542

loop_
_geom_bond_atom_site_label_1
_geom_bond_atom_site_label_2
_ccdc_geom_bond_type
N2    Zn1   S    
C7    N1    A    
C6    C11   S    
C22   H19   S    
C14   O8    A    
C26   C27   A    
C10   H27   S    
C16   H6    S    
O3    Zn1   S    
C4    O4    A    
C2    C25   A    
C14   O7    A    
C12   C24   S    
C28   C29   A    
C24   H10   S    
C3    H23   S    
C2    C29   A    
C6    N1    A    
C15   C19   S    
C18   C24   S    
C22   H20   S    
C10   H2    S    
C20   H14   S    
O4    Zn2   S    
C10   C11   S    
C24   H1    S    
C12   C16   S    
C9    N2    A    
C1    O2    A    
O5    Zn1   S    
C18   H8    S    
C17   C23   S    
C20   H13   S    
C12   C14   S    
Br1   C27   S    
C17   H12   S    
O2    Zn2   S    
C15   C16   S    
O6    Zn2   S    
C3    H24   S    
C28   H22   S    
C11   H4    S    
C2    C3    S    
C5    C25   S    
C6    C9    A    
C18   H9    S    
C23   H7    S    
C13   O5    A    
C17   C22   S    
C13   O6    A    
C15   C20   S    
C4    C19   S    
C23   H21   S    
C1    O1    A    
C8    C21   S    
C11   H3    S    
C7    H25   S    
C20   H11   S    
C9    C10   S    
O1    Zn1   S    
O7    Zn1   S    
Br3   C5    S    
C7    C8    A    
Br2   C5    S    
C21   H17   S    
O8    Zn2   S    
C13   C29   S    
C25   C26   A    
C12   C23   S    
C3    C5    S    
C4    O3    A    
C16   H5    S    
N1    Zn2   S    
C18   C19   S    
C21   H15   S    
C22   H18   S    
C15   H26   S    
C27   C28   A    
C1    C26   S    
C17   C19   S    
C8    N2    A    
C21   H16   S    
