data_mof_unit_10152.cif
_audit_creation_date              2013-03-05T15:40:28-0500
_audit_creation_method            fapswitch 2.2
_symmetry_space_group_name_H-M    P1
_symmetry_Int_Tables_number       1
_space_group_crystal_system       triclinic
_cell_length_a                    19.082182
_cell_length_b                    11.06207
_cell_length_c                    18.92324
_cell_angle_alpha                 90.104237
_cell_angle_beta                  88.607395
_cell_angle_gamma                 90.21749
_cell_volume                      3993.26252179

loop_
_atom_site_label
_atom_site_type_symbol
_atom_site_description
_atom_site_fract_x
_atom_site_fract_y
_atom_site_fract_z
_atom_type_partial_charge
O1    O     O_R   0.215090 0.709860 0.828130 -0.541805
O2    O     O_R   0.784910 0.709860 0.171870 -0.547299
O3    O     O_R   0.715090 0.209860 0.828130 -0.543094
O4    O     O_R   0.284910 0.209860 0.171870 -0.546090
O5    O     O_R   0.236990 0.958390 0.823710 -0.507343
O6    O     O_R   0.763010 0.958390 0.176290 -0.507532
O7    O     O_R   0.736990 0.458390 0.823710 -0.507398
O8    O     O_R   0.263010 0.458390 0.176290 -0.507446
C1    C     C_R   0.273684 0.035889 0.856121 0.549732
C2    C     C_R   0.726367 0.036015 0.143972 0.548481
C3    C     C_R   0.773678 0.535901 0.856117 0.549956
C4    C     C_R   0.226363 0.536005 0.143967 0.548258
O9    O     O_R   0.332380 0.074750 0.830850 -0.512775
O10   O     O_R   0.667620 0.074750 0.169150 -0.514149
O11   O     O_R   0.832380 0.574750 0.830850 -0.512357
O12   O     O_R   0.167620 0.574750 0.169150 -0.514616
O13   O     O_R   0.445800 0.917770 0.825070 -0.510901
O14   O     O_R   0.554200 0.917770 0.174930 -0.510727
O15   O     O_R   0.945800 0.417770 0.825070 -0.511219
O16   O     O_R   0.054200 0.417770 0.174930 -0.510409
C5    C     C_R   0.466779 0.821549 0.855051 0.543686
C6    C     C_R   0.533105 0.820824 0.145264 0.539166
C7    C     C_R   0.966807 0.321545 0.855033 0.541913
C8    C     C_R   0.033119 0.320833 0.145253 0.540968
O17   O     O_R   0.456410 0.716580 0.829970 -0.527887
O18   O     O_R   0.543590 0.716580 0.170030 -0.530104
O19   O     O_R   0.956410 0.216580 0.829970 -0.530158
O20   O     O_R   0.043590 0.216580 0.170030 -0.527776
O21   O     O_R   0.321080 0.625290 0.822650 -0.505082
O22   O     O_R   0.678920 0.625290 0.177350 -0.505167
O23   O     O_R   0.821080 0.125290 0.822650 -0.505779
O24   O     O_R   0.178920 0.125290 0.177350 -0.504416
C9    C     C_R   0.258483 0.632486 0.848632 0.535765
C10   C     C_R   0.741348 0.632565 0.151168 0.529689
C11   C     C_R   0.758489 0.132500 0.848640 0.534429
C12   C     C_R   0.241353 0.132555 0.151174 0.530937
O25   O     O_R   0.214930 0.711450 0.668160 -0.443994
O26   O     O_R   0.785070 0.711450 0.331840 -0.449422
O27   O     O_R   0.714930 0.211450 0.668160 -0.448409
O28   O     O_R   0.285070 0.211450 0.331840 -0.445026
O29   O     O_R   0.236850 0.959870 0.675420 -0.498126
O30   O     O_R   0.763150 0.959870 0.324580 -0.496587
O31   O     O_R   0.736850 0.459870 0.675420 -0.496528
O32   O     O_R   0.263150 0.459870 0.324580 -0.498151
C13   C     C_R   0.274943 0.041813 0.645915 0.564778
C14   C     C_R   0.725655 0.043060 0.353490 0.567293
C15   C     C_R   0.774365 0.542972 0.646472 0.567893
C16   C     C_R   0.225065 0.541886 0.354052 0.564013
O33   O     O_R   0.332230 0.076350 0.670880 -0.444949
O34   O     O_R   0.667770 0.076350 0.329120 -0.442111
O35   O     O_R   0.832230 0.576350 0.670880 -0.443016
O36   O     O_R   0.167770 0.576350 0.329120 -0.444322
O37   O     O_R   0.445660 0.919250 0.676780 -0.444591
O38   O     O_R   0.554340 0.919250 0.323220 -0.456673
O39   O     O_R   0.945660 0.419250 0.676780 -0.455886
O40   O     O_R   0.054340 0.419250 0.323220 -0.445364
C17   C     C_R   0.467873 0.822998 0.646118 0.584815
C18   C     C_R   0.528109 0.824184 0.351046 0.572722
C19   C     C_R   0.971850 0.324295 0.648934 0.574300
C20   C     C_R   0.032119 0.322939 0.353875 0.583385
O41   O     O_R   0.456260 0.718170 0.670000 -0.511764
O42   O     O_R   0.543740 0.718170 0.330000 -0.510681
O43   O     O_R   0.956260 0.218170 0.670000 -0.510305
O44   O     O_R   0.043740 0.218170 0.330000 -0.512431
O45   O     O_R   0.320940 0.626760 0.674370 -0.505158
O46   O     O_R   0.679060 0.626760 0.325630 -0.492044
O47   O     O_R   0.820940 0.126760 0.674370 -0.492225
O48   O     O_R   0.179060 0.126760 0.325630 -0.505008
C21   C     C_R   0.260067 0.633642 0.647919 0.578644
C22   C     C_R   0.739847 0.633664 0.352127 0.583169
C23   C     C_R   0.760074 0.133729 0.647846 0.582224
C24   C     C_R   0.239853 0.133581 0.352059 0.579476
Cr1   Cr    Cr6+3 0.230530 0.836340 0.748870 1.054434
Cr2   Cr    Cr6+3 0.769470 0.836340 0.251130 1.053827
Cr3   Cr    Cr6+3 0.730530 0.336340 0.748870 1.057186
Cr4   Cr    Cr6+3 0.269470 0.336340 0.251130 1.050931
Cr5   Cr    Cr6+3 0.387420 0.989430 0.750820 1.092958
Cr6   Cr    Cr6+3 0.612580 0.989430 0.249180 1.088249
Cr7   Cr    Cr6+3 0.887420 0.489430 0.750820 1.091452
Cr8   Cr    Cr6+3 0.112580 0.489430 0.249180 1.089661
Cr9   Cr    Cr6+3 0.385640 0.677860 0.749230 1.038712
Cr10  Cr    Cr6+3 0.614360 0.677860 0.250770 1.042210
Cr11  Cr    Cr6+3 0.885640 0.177860 0.749230 1.043190
Cr12  Cr    Cr6+3 0.114360 0.177860 0.250770 1.037633
O49   O     O_3   0.334530 0.834540 0.749640 -0.284201
O50   O     O_3   0.665470 0.834540 0.250360 -0.280432
O51   O     O_3   0.834530 0.334540 0.749640 -0.281641
O52   O     O_3   0.165470 0.334540 0.250360 -0.282950
C25   C     C_R   0.507719 0.825595 0.073459 0.005094
C26   C     C_R   0.490268 0.827815 0.927851 0.001574
C27   C     C_R   0.007804 0.325633 0.073417 0.004766
C28   C     C_R   0.990365 0.327799 0.927804 0.001925
C29   C     C_R   0.491399 0.936580 0.039514 -0.010827
C30   C     C_R   0.499314 0.939931 0.964951 -0.011875
C31   C     C_R   0.991528 0.436622 0.039442 -0.010922
C32   C     C_R   0.999442 0.439923 0.964877 -0.011790
C33   C     C_R   0.488307 0.718863 0.967003 -0.009687
C34   C     C_R   0.515331 0.719782 0.032245 -0.010545
C35   C     C_R   0.988441 0.218851 0.966965 -0.009516
C36   C     C_R   0.015459 0.219825 0.032210 -0.010702
C37   C     C_R   0.473455 0.044182 0.076691 0.013683
C38   C     C_R   0.512989 0.053500 0.931875 0.021482
C39   C     C_R   0.973612 0.544272 0.076584 0.014103
C40   C     C_R   0.013114 0.553461 0.931760 0.021119
C41   C     C_R   0.982468 0.657472 0.042992 0.027347
C42   C     C_R   0.000341 0.662218 0.969873 0.034806
C43   C     C_R   0.482266 0.157417 0.043125 0.027317
C44   C     C_R   0.500192 0.162226 0.970016 0.034893
C45   C     C_2   0.239832 0.573588 0.915089 -0.138526
C46   C     C_2   0.759871 0.573656 0.084611 -0.143203
C47   C     C_2   0.739854 0.073624 0.915106 -0.138133
C48   C     C_2   0.259891 0.073632 0.084626 -0.143659
C49   C     C_2   0.247739 0.566743 0.070725 -0.086399
C50   C     C_2   0.752258 0.566095 0.929377 -0.086005
C51   C     C_2   0.747756 0.066778 0.070737 -0.086119
C52   C     C_2   0.252276 0.066059 0.929389 -0.086285
C53   C     C_2   0.277896 0.485023 0.025116 -0.044930
C54   C     C_2   0.721612 0.484017 0.974592 -0.046171
C55   C     C_2   0.777931 0.985076 0.025130 -0.044990
C56   C     C_2   0.221661 0.983955 0.974608 -0.046097
C57   C     C_2   0.286116 0.508804 0.949268 -0.158296
C58   C     C_2   0.713891 0.507122 0.050665 -0.161007
C59   C     C_2   0.786154 0.008876 0.949287 -0.158039
C60   C     C_2   0.213932 0.007055 0.050682 -0.161200
H1    H     H_    0.330561 0.469907 0.920529 0.138740
H2    H     H_    0.669114 0.468797 0.079381 0.142817
H3    H     H_    0.830595 0.969973 0.920545 0.138790
H4    H     H_    0.169154 0.968726 0.079395 0.142747
H5    H     H_    0.231122 0.653829 0.051317 0.085904
H6    H     H_    0.769172 0.653110 0.949076 0.085304
H7    H     H_    0.731133 0.153864 0.051332 0.085964
H8    H     H_    0.269171 0.153084 0.949087 0.085259
H9    H     H_    0.191138 0.599572 0.941712 0.108498
H10   H     H_    0.808422 0.600723 0.057864 0.112281
H11   H     H_    0.691160 0.099597 0.941732 0.108510
H12   H     H_    0.308442 0.100714 0.057882 0.112279
C61   C     C_2   0.486830 0.827555 0.571735 -0.053680
C62   C     C_2   0.488800 0.837838 0.416810 -0.065962
C63   C     C_2   0.011087 0.338070 0.583150 -0.065405
C64   C     C_2   0.013131 0.327598 0.428242 -0.053915
C65   C     C_2   0.469693 0.740595 0.453826 -0.171102
C66   C     C_2   0.454467 0.748361 0.529059 -0.158273
C67   C     C_2   0.045325 0.248717 0.470832 -0.158196
C68   C     C_2   0.030040 0.240912 0.546026 -0.171439
H13   H     H_    0.470204 0.650956 0.430233 0.183739
H14   H     H_    0.418932 0.679907 0.550558 0.167745
H15   H     H_    0.080788 0.180528 0.449282 0.168082
H16   H     H_    0.029415 0.151322 0.569499 0.183878
H17   H     H_    0.484221 0.927529 0.439667 0.204744
H18   H     H_    0.522651 0.896616 0.551870 0.172846
H19   H     H_    0.977374 0.396393 0.448143 0.172605
H20   H     H_    0.015761 0.427707 0.560368 0.204762
C69   C     C_2   0.247342 0.569535 0.582413 -0.113163
C70   C     C_2   0.751572 0.572134 0.418460 -0.107045
C71   C     C_2   0.748109 0.071902 0.581477 -0.107755
C72   C     C_2   0.252323 0.069797 0.417543 -0.112770
C73   C     C_2   0.237556 0.572271 0.427750 -0.136722
C74   C     C_2   0.760730 0.574300 0.573301 -0.133277
C75   C     C_2   0.739369 0.074840 0.426656 -0.132981
C76   C     C_2   0.262482 0.071830 0.572235 -0.136809
C77   C     C_2   0.183204 0.601761 0.472440 0.146777
C78   C     C_2   0.813857 0.610309 0.528917 0.145930
C79   C     C_2   0.686312 0.110822 0.471008 0.145999
C80   C     C_2   0.316864 0.101436 0.527501 0.146692
C81   C     C_2   0.185975 0.585797 0.550072 0.161304
C82   C     C_2   0.812492 0.589913 0.451547 0.155020
C83   C     C_2   0.687351 0.089890 0.548292 0.154119
C84   C     C_2   0.313825 0.085902 0.449812 0.162112
H21   H     H_    0.287455 0.541999 0.446600 0.079987
H22   H     H_    0.712367 0.537203 0.554046 0.090133
H23   H     H_    0.787539 0.037756 0.445925 0.089647
H24   H     H_    0.212436 0.041455 0.553412 0.080503
H25   H     H_    0.294077 0.537428 0.555179 0.082292
H26   H     H_    0.704059 0.543145 0.445705 0.097729
H27   H     H_    0.795516 0.042724 0.554286 0.097214
H28   H     H_    0.205455 0.037893 0.444811 0.082835
C85   C     C_3   0.451236 0.603122 0.946848 -0.364459
H29   H     H_    0.399126 0.628795 0.928660 0.175456
H30   H     H_    0.481850 0.551952 0.906180 0.155783
H31   H     H_    0.441436 0.542194 0.992717 0.109703
C86   C     C_3   0.560631 0.612784 0.049655 -0.361432
H32   H     H_    0.610918 0.649706 0.067512 0.171420
H33   H     H_    0.534806 0.553235 0.089691 0.154559
H34   H     H_    0.573512 0.556151 0.002554 0.115475
C87   C     C_3   0.951463 0.103017 0.946801 -0.364369
H35   H     H_    0.899320 0.128542 0.928640 0.175609
H36   H     H_    0.982109 0.051956 0.906109 0.155297
H37   H     H_    0.941734 0.042037 0.992658 0.109747
C88   C     C_3   0.060842 0.112939 0.049617 -0.361539
H38   H     H_    0.111097 0.149979 0.067484 0.171215
H39   H     H_    0.035059 0.053312 0.089638 0.154955
H40   H     H_    0.073768 0.056350 0.002509 0.115449
N1    N     N_R   0.119955 0.652631 0.445544 0.148842
O53   O     O_R   0.120870 0.760804 0.418614 -0.290105
O54   O     O_R   0.060994 0.593824 0.451286 -0.254627
N2    N     N_R   0.874674 0.669938 0.556057 0.145881
O55   O     O_R   0.868758 0.776016 0.585387 -0.302731
O56   O     O_R   0.935440 0.617179 0.553032 -0.242079
N3    N     N_R   0.625950 0.171004 0.443914 0.145602
O57   O     O_R   0.632814 0.276552 0.414181 -0.304372
O58   O     O_R   0.564787 0.118771 0.446748 -0.240747
N4    N     N_R   0.380463 0.151949 0.554412 0.148831
O59   O     O_R   0.380270 0.260177 0.581484 -0.288878
O60   O     O_R   0.439075 0.092919 0.548333 -0.255663
N5    N     N_R   0.122652 0.603515 0.592248 0.114805
O61   O     O_R   0.084725 0.699757 0.583961 -0.218025
O62   O     O_R   0.109752 0.534463 0.646701 -0.360830
N6    N     N_R   0.876621 0.604707 0.410267 0.119679
O63   O     O_R   0.914430 0.702156 0.416400 -0.213260
O64   O     O_R   0.891285 0.529526 0.359067 -0.359956
N7    N     N_R   0.623197 0.104627 0.589470 0.119411
O65   O     O_R   0.585906 0.202207 0.583592 -0.213072
O66   O     O_R   0.608183 0.029495 0.640540 -0.357012
N8    N     N_R   0.377155 0.103633 0.407577 0.115355
O67   O     O_R   0.415477 0.199930 0.415953 -0.218553
O68   O     O_R   0.389854 0.034231 0.353160 -0.364361
C89   C     C_3   0.436401 0.039378 0.148606 -0.334707
H41   H     H_    0.420409 0.946611 0.164315 0.136857
H42   H     H_    0.469052 0.081278 0.189869 0.179830
H43   H     H_    0.387359 0.090157 0.147033 0.143591
C90   C     C_3   0.554433 0.060169 0.862555 -0.341570
H44   H     H_    0.578069 0.972035 0.847472 0.138513
H45   H     H_    0.521412 0.093656 0.819328 0.174713
H46   H     H_    0.598488 0.124233 0.867874 0.137968
C91   C     C_3   0.936500 0.539574 0.148467 -0.335699
H47   H     H_    0.920441 0.446838 0.164173 0.137315
H48   H     H_    0.969142 0.581438 0.189748 0.178979
H49   H     H_    0.887492 0.590457 0.146838 0.142858
C92   C     C_3   0.054514 0.560068 0.862410 -0.340691
H50   H     H_    0.078144 0.471923 0.847338 0.138435
H51   H     H_    0.021471 0.593512 0.819188 0.175382
H52   H     H_    0.098566 0.624148 0.867680 0.138459
C93   C     C_3   0.980582 0.771305 0.088189 -0.403345
H53   H     H_    0.980294 0.856443 0.057820 0.113036
H54   H     H_    0.933622 0.773605 0.123429 0.131759
H55   H     H_    0.027440 0.772665 0.121860 0.144232
C94   C     C_3   0.003148 0.783476 0.932604 -0.402378
H56   H     H_    0.951694 0.828927 0.939708 0.124280
H57   H     H_    0.044749 0.840953 0.955045 0.114089
H58   H     H_    0.012935 0.777680 0.874848 0.132603
C95   C     C_3   0.480330 0.271229 0.088342 -0.403562
H59   H     H_    0.479812 0.356376 0.057978 0.112917
H60   H     H_    0.433456 0.273327 0.123716 0.131865
H61   H     H_    0.527286 0.272788 0.121880 0.144339
C96   C     C_3   0.503070 0.283528 0.932797 -0.402341
H62   H     H_    0.451608 0.328979 0.939821 0.124172
H63   H     H_    0.544635 0.340967 0.955342 0.114241
H64   H     H_    0.512966 0.277809 0.875054 0.132632
C97   C     C_3   0.301026 0.362501 0.046747 -0.351451
H65   H     H_    0.327661 0.312582 0.002889 0.100414
H66   H     H_    0.339133 0.370392 0.089403 0.173936
H67   H     H_    0.253153 0.312168 0.062448 0.158399
C98   C     C_3   0.697847 0.361429 0.952517 -0.352374
H68   H     H_    0.671398 0.311332 0.996472 0.098377
H69   H     H_    0.659465 0.367768 0.909711 0.173117
H70   H     H_    0.745724 0.311568 0.937052 0.161168
C99   C     C_3   0.801062 0.862547 0.046753 -0.351429
H71   H     H_    0.827704 0.812639 0.002894 0.100417
H72   H     H_    0.839159 0.870426 0.089418 0.174042
H73   H     H_    0.753190 0.812203 0.062442 0.158407
C100  C     C_3   0.197924 0.861357 0.952531 -0.352395
H74   H     H_    0.171466 0.811258 0.996479 0.098378
H75   H     H_    0.159551 0.867680 0.909718 0.173042
H76   H     H_    0.245811 0.811515 0.937074 0.161082

loop_
_geom_bond_atom_site_label_1
_geom_bond_atom_site_label_2
_geom_bond_distance
_ccdc_geom_bond_type
C18   O42   1.272033 A    
Cr11  O51   1.991901 S    
C61   C66   1.348541 D    
O4    C12   1.258851 A    
O47   Cr11  1.981754 S    
C29   C30   1.415927 A    
C24   C72   1.452173 S    
C26   C30   1.435949 A    
O39   C19   1.272761 A    
O20   Cr12  2.109169 S    
C66   H14   1.087447 S    
C79   C83   1.481726 S    
C31   C32   1.415949 A    
C64   C67   1.348721 D    
C28   C32   1.435857 A    
C68   H16   1.086687 S    
C47   H11   1.085614 S    
Cr7   O51   1.985617 S    
C33   C34   1.349495 A    
N4    O60   1.299834 A    
O1    C9    1.261333 A    
C51   H7    1.082955 S    
C86   H32   1.101853 S    
C89   H43   1.094361 S    
C67   H15   1.087455 S    
N1    O53   1.301359 A    
C39   C91   1.519100 S    
C97   H65   1.109955 S    
C92   H50   1.109726 S    
C49   H5    1.082927 S    
C77   C81   1.482169 S    
C76   C80   1.362522 D    
C48   C60   1.320931 D    
C90   H46   1.103828 S    
O25   C21   1.271931 A    
O38   C18   1.272375 A    
C98   H68   1.110325 S    
N8    O68   1.301888 A    
C87   H36   1.110400 S    
C36   C88   1.509811 S    
C72   C84   1.347146 D    
C67   C68   1.448205 S    
C69   H25   1.080023 S    
C63   H20   1.084456 S    
O8    Cr4   1.964791 S    
C91   H49   1.094434 S    
O23   Cr11  1.923657 S    
C88   H39   1.109921 S    
C99   H71   1.109970 S    
C54   C58   1.465600 S    
C84   N8    1.445499 S    
O32   Cr4   1.949336 S    
C3    C50   1.473883 S    
C53   C57   1.464228 S    
O44   Cr12  2.041226 S    
O7    C3    1.271132 A    
C1    O9    1.280261 A    
C92   H51   1.109650 S    
C73   H21   1.079520 S    
C78   C82   1.481802 S    
C3    O11   1.280277 A    
O28   Cr4   2.088732 S    
O11   Cr7   2.052410 S    
C4    O12   1.282281 A    
O21   C9    1.283312 A    
C71   C83   1.347483 D    
N6    O63   1.301442 A    
C85   H30   1.110398 S    
C42   C94   1.516758 S    
C12   C48   1.453608 S    
C43   C44   1.418065 A    
C38   C44   1.420440 A    
C95   H60   1.104385 S    
C7    O19   1.270177 A    
C27   C36   1.411301 A    
O3    Cr3   2.068081 S    
C93   H53   1.104287 S    
Cr4   O52   1.984977 S    
C26   C33   1.415790 A    
O47   C23   1.279065 A    
O2    Cr2   2.065903 S    
C65   H13   1.086698 S    
C60   H4    1.086568 S    
Cr6   O50   1.992288 S    
N5    O62   1.301898 A    
O42   Cr10  2.041226 S    
C79   N3    1.438259 S    
N3    O57   1.301772 A    
O18   Cr10  2.109169 S    
C22   C70   1.451514 S    
C94   H56   1.109936 S    
O17   Cr9   2.105952 S    
C50   H6    1.082521 S    
C80   N4    1.438153 S    
C13   C76   1.459178 S    
C82   N6    1.444631 S    
C48   H12   1.086198 S    
C5    O17   1.270257 A    
O34   Cr6   2.094375 S    
C40   C42   1.420384 A    
C31   C39   1.420321 A    
O6    Cr2   1.964791 S    
O35   Cr7   2.100568 S    
C5    C26   1.460463 S    
C86   H33   1.109933 S    
C62   H17   1.084605 S    
O31   Cr3   1.952237 S    
O24   Cr12  1.924958 S    
O9    Cr5   2.052410 S    
O30   Cr2   1.949336 S    
C97   H66   1.102610 S    
N4    O59   1.301352 A    
O22   C10   1.281332 A    
C45   H9    1.085624 S    
O48   Cr12  1.985893 S    
O14   Cr6   1.977098 S    
C8    O20   1.264132 A    
C80   C84   1.482315 S    
O32   C16   1.282887 A    
O48   C24   1.276315 A    
N2    O56   1.300075 A    
C19   C63   1.444991 S    
C2    O10   1.282287 A    
C29   C37   1.420331 A    
C100  H75   1.107625 S    
C96   H62   1.109936 S    
O16   Cr8   1.977098 S    
N8    O67   1.301433 A    
C74   H22   1.079709 S    
C87   H37   1.111705 S    
O7    Cr3   1.960604 S    
N1    O54   1.299853 A    
C89   H41   1.108561 S    
N5    O61   1.301448 A    
O29   Cr1   1.952237 S    
C44   C96   1.516782 S    
O13   C5    1.277322 A    
C52   C56   1.368541 D    
C51   C55   1.367548 D    
O43   Cr11  2.040182 S    
C33   C85   1.513132 S    
O12   Cr8   2.051276 S    
C58   H2    1.086563 S    
C88   H40   1.111668 S    
O15   C7    1.277381 A    
O21   Cr9   1.923657 S    
C57   H1    1.086135 S    
C90   H44   1.109718 S    
C54   C98   1.490491 S    
O46   Cr10  1.985893 S    
O39   Cr7   1.930728 S    
C63   C68   1.329392 D    
C16   C73   1.458954 S    
O45   Cr9   1.981754 S    
N7    O65   1.301559 A    
C52   H8    1.082504 S    
C13   O33   1.259122 A    
O8    C4    1.275759 A    
C85   H31   1.111719 S    
C23   C71   1.451507 S    
C100  H76   1.102182 S    
O13   Cr5   1.982529 S    
C91   H47   1.108559 S    
C76   H24   1.079545 S    
C17   C61   1.445669 S    
C39   C41   1.413076 A    
O29   C13   1.280195 A    
Cr2   O50   1.984977 S    
O15   Cr7   1.982529 S    
C93   H54   1.104268 S    
C64   H19   1.084866 S    
Cr1   O49   1.985132 S    
C50   C54   1.368545 D    
C75   H23   1.079737 S    
C20   C64   1.445494 S    
C49   C53   1.367551 D    
Cr3   O51   1.985132 S    
O26   C22   1.269626 A    
C55   C99   1.488208 S    
C18   C62   1.445328 S    
C85   H29   1.098636 S    
O31   C15   1.278823 A    
O27   Cr3   2.083556 S    
C94   H57   1.107406 S    
O30   C14   1.281489 A    
O37   Cr5   1.930728 S    
C10   C46   1.453598 S    
C75   C79   1.359545 D    
C61   H18   1.084799 S    
C46   H10   1.086186 S    
C9    C45   1.453319 S    
O3    C11   1.261350 A    
C8    C27   1.454799 S    
C73   C77   1.362435 D    
C59   H3    1.086127 S    
C35   C87   1.513214 S    
C11   C47   1.453286 S    
C98   H69   1.107662 S    
C4    C49   1.475176 S    
O26   Cr2   2.088732 S    
C86   H34   1.111664 S    
C71   H27   1.079940 S    
N7    O66   1.301712 A    
C32   C40   1.425013 A    
O25   Cr1   2.083556 S    
C94   H58   1.106087 S    
C72   H28   1.080033 S    
C97   H67   1.102879 S    
C53   C97   1.488172 S    
O22   Cr10  1.924958 S    
O28   C24   1.269791 A    
C69   C81   1.347224 D    
O2    C10   1.258874 A    
O14   C6    1.277804 A    
C1    C52   1.473895 S    
C41   C93   1.520978 S    
O5    Cr1   1.960604 S    
C70   C82   1.347319 D    
Cr12  O52   1.985473 S    
C38   C90   1.516915 S    
O5    C1    1.271144 A    
N2    O55   1.301294 A    
C62   C65   1.329699 D    
O37   C17   1.280338 A    
O6    C2    1.275749 A    
C98   H70   1.102162 S    
C15   O35   1.260939 A    
C47   C59   1.321445 D    
O24   C12   1.281354 A    
C17   O41   1.262196 A    
C55   C59   1.464191 S    
C89   H42   1.110340 S    
C41   C42   1.418013 A    
C14   O34   1.263652 A    
C19   O43   1.272354 A    
O40   Cr8   1.929384 S    
C35   C36   1.349503 A    
C25   C34   1.411353 A    
C20   O44   1.261614 A    
C95   H61   1.110584 S    
O1    Cr1   2.068081 S    
C99   H73   1.102879 S    
C34   C86   1.509891 S    
C96   H63   1.107450 S    
C83   N7    1.444671 S    
Cr8   O52   1.992288 S    
N6    O64   1.301662 A    
Cr10  O50   1.985473 S    
C65   C66   1.448533 S    
C46   C58   1.320959 D    
C45   C57   1.321431 D    
C87   H35   1.098624 S    
C100  H74   1.110313 S    
C40   C92   1.516964 S    
C95   H59   1.104419 S    
O45   C21   1.278544 A    
C14   C75   1.457466 S    
O19   Cr11  2.105952 S    
C91   H48   1.110330 S    
C6    C25   1.454698 S    
O33   Cr5   2.100568 S    
O23   C11   1.283279 A    
O10   Cr6   2.051276 S    
C25   C29   1.425618 A    
C88   H38   1.101875 S    
C93   H55   1.110523 S    
C21   C69   1.452098 S    
O4    Cr4   2.065903 S    
C77   N1    1.438216 S    
C74   C78   1.359624 D    
Cr5   O49   1.985617 S    
C92   H52   1.103779 S    
C37   C89   1.519182 S    
C16   O36   1.261814 A    
C70   H26   1.079964 S    
O40   C20   1.279935 A    
O46   C22   1.276782 A    
C30   C38   1.424991 A    
C27   C31   1.425725 A    
C90   H45   1.109650 S    
C56   C100  1.490444 S    
C6    O18   1.264010 A    
C96   H64   1.106095 S    
C78   N2    1.437921 S    
C37   C43   1.413100 A    
N3    O58   1.300343 A    
O27   C23   1.271750 A    
C7    C28   1.460372 S    
C43   C95   1.521017 S    
O41   Cr9   2.040182 S    
C99   H72   1.102609 S    
O36   Cr8   2.094375 S    
C81   N5    1.445634 S    
O16   C8    1.277725 A    
Cr9   O49   1.991901 S    
C2    C51   1.475150 S    
C56   C60   1.465619 S    
C28   C35   1.415832 A    
O38   Cr6   1.929384 S    
C15   C74   1.457729 S    
