data_mof_unit_66534.cif
_audit_creation_date              2012-12-10T16:47:58-0500
_audit_creation_method            fapswitch 2.2
_symmetry_space_group_name_H-M    P1
_symmetry_Int_Tables_number       1
_space_group_crystal_system       triclinic
_cell_length_a                    7.901262
_cell_length_b                    8.549149
_cell_length_c                    10.581014
_cell_angle_alpha                 91.002478
_cell_angle_beta                  83.478876
_cell_angle_gamma                 94.150159
_cell_volume                      708.220210991

loop_
_atom_site_label
_atom_site_type_symbol
_atom_type_description
_atom_site_fract_x
_atom_site_fract_y
_atom_site_fract_z
_atom_type_partial_charge
C1    C     C_R   0.545300 0.794032 0.504987 1.023533
C2    C     C_2   0.567546 0.958755 0.509829 -0.341323
C3    C     C_R   0.825754 0.585384 0.074659 0.156630
C4    C     C_R   0.929493 0.474066 0.112969 -0.141661
C5    C     C_R   0.066969 0.522096 0.177385 -0.157196
C6    C     C_R   0.096767 0.680912 0.208577 -0.066850
C7    C     C_R   0.007098 0.793740 0.157140 -0.144835
C8    C     C_R   0.873460 0.746210 0.087342 -0.119930
C9    C     C_2   0.480812 0.747094 0.123189 0.303863
C10   C     C_R   0.709901 0.319792 0.884944 0.159005
C11   C     C_R   0.885053 0.333804 0.842334 -0.131026
C12   C     C_2   0.432226 0.045034 0.541409 -0.163036
C13   C     C_R   0.970255 0.200341 0.804378 -0.131394
C14   C     C_R   0.880065 0.053172 0.804605 -0.140923
C15   C     C_R   0.704560 0.039501 0.841768 -0.144977
C16   C     C_R   0.619638 0.172110 0.882367 -0.139811
C17   C     C_2   0.269745 0.989343 0.617317 0.390416
C18   C     C_R   0.496638 0.494480 0.738094 0.934610
C19   C     C_R   0.454265 0.205844 0.509957 0.866529
C20   C     C_R   0.504361 0.516434 0.262255 0.958840
C21   C     C_2   0.650191 0.533512 0.052690 -0.100695
C22   C     C_2   0.520628 0.580396 0.133858 -0.207027
C23   C     C_2   0.616927 0.457694 0.932665 -0.027895
C24   C     C_2   0.491104 0.506831 0.873088 -0.415299
H1    H     H_    0.397476 0.582251 0.918741 0.158402
H2    H     H_    0.469603 0.796427 0.031109 0.092108
H3    H     H_    0.955779 0.447235 0.839980 0.142549
H4    H     H_    0.106257 0.211661 0.775489 0.150080
H5    H     H_    0.945141 0.949210 0.776100 0.166840
H6    H     H_    0.634794 0.925885 0.840247 0.143251
H7    H     H_    0.483831 0.159640 0.913084 0.140330
H8    H     H_    0.149882 0.028701 0.593695 0.059884
H9    H     H_    0.691400 0.008668 0.468013 0.159985
H10   H     H_    0.009831 0.371181 0.414129 0.181167
H11   H     H_    0.988889 0.625003 0.589763 0.196008
H12   H     H_    0.894440 0.349750 0.104678 0.138277
H13   H     H_    0.139565 0.432317 0.209935 0.151748
H14   H     H_    0.185906 0.717917 0.274400 0.208040
H15   H     H_    0.035314 0.917002 0.176722 0.140533
H16   H     H_    0.799439 0.834585 0.052874 0.139625
N1    N     N_2   0.950320 0.457950 0.466680 -0.175330
N2    N     N_2   0.049680 0.542050 0.533320 -0.180742
O1    O     O_R   0.389250 0.738570 0.508180 -0.569955
O2    O     O_2   0.270237 0.904493 0.708996 -0.601233
O3    O     O_R   0.678390 0.711630 0.486820 -0.638167
O4    O     O_R   0.355470 0.513470 0.691600 -0.606452
O5    O     O_R   0.644610 0.486520 0.670240 -0.611017
O6    O     O_R   0.321610 0.288370 0.513180 -0.649651
O7    O     O_R   0.610750 0.261430 0.491820 -0.606752
O8    O     O_R   0.355390 0.513480 0.329760 -0.649535
O9    O     O_R   0.644530 0.486530 0.308400 -0.595206
O10   O     O_2   0.472070 0.834295 0.216025 -0.611038
Zn1   Zn    Zn3+2 0.306940 0.517990 0.514260 0.950169
Zn2   Zn    Zn3+2 0.693060 0.482010 0.485740 0.956533

loop_
_geom_bond_atom_site_label_1
_geom_bond_atom_site_label_2
_ccdc_geom_bond_type
C12   C17   S    
C9    H2    S    
C23   C24   D    
C6    H14   S    
C13   H4    S    
C6    C7    A    
C5    H13   S    
C10   C23   S    
N1    N2    D    
C19   O7    A    
C11   H3    S    
O9    Zn2   S    
C2    C12   D    
C18   O5    A    
C4    H12   S    
C17   O2    D    
C7    C8    A    
O7    Zn2   S    
C10   C16   A    
C21   C22   D    
C16   H7    S    
C11   C13   A    
C9    O10   D    
C1    O3    A    
C5    C6    A    
H10   N1    S    
O5    Zn2   S    
C18   C24   S    
C18   O4    A    
O4    Zn1   S    
O1    Zn1   S    
O3    Zn2   S    
C1    C2    S    
C20   O9    A    
C21   C23   S    
N2    Zn1   S    
O6    Zn1   S    
N1    Zn2   S    
C9    C22   S    
C3    C21   S    
O8    Zn1   S    
C10   C11   A    
C20   C22   S    
C14   H5    S    
C15   C16   A    
C24   H1    S    
C12   C19   S    
C15   H6    S    
C3    C8    A    
C17   H8    S    
H11   N2    S    
C7    H15   S    
C14   C15   A    
C20   O8    A    
C8    H16   S    
C13   C14   A    
C1    O1    A    
C19   O6    A    
C3    C4    A    
C2    H9    S    
C4    C5    A    
