data_mof_unit_8722.cif
_audit_creation_date              2013-03-05T16:33:12-0500
_audit_creation_method            fapswitch 2.2
_symmetry_space_group_name_H-M    P1
_symmetry_Int_Tables_number       1
_space_group_crystal_system       triclinic
_cell_length_a                    27.792237
_cell_length_b                    10.860008
_cell_length_c                    9.535977
_cell_angle_alpha                 89.877589
_cell_angle_beta                  90.140081
_cell_angle_gamma                 90.17161
_cell_volume                      2878.15788659

loop_
_atom_site_label
_atom_site_type_symbol
_atom_site_description
_atom_site_fract_x
_atom_site_fract_y
_atom_site_fract_z
_atom_type_partial_charge
O1    O     O_R   0.500000 0.319640 0.618810 -0.564562
O2    O     O_R   0.500010 0.319680 0.381230 -0.592847
C1    C     C_R   0.499881 0.262648 0.499978 0.821154
O3    O     O_R   0.430260 0.500000 0.618780 -0.583407
O4    O     O_R   0.430270 0.500040 0.381190 -0.583744
C2    C     C_R   0.407425 0.499804 0.499855 0.819950
Cu1   Cu    Cu3+1 0.500000 0.499980 0.640670 0.958329
Cu2   Cu    Cu3+1 0.500000 0.500020 0.359330 0.945013
O5    O     O_R   0.499990 0.680320 0.618770 -0.578310
O6    O     O_R   0.500000 0.680360 0.381190 -0.587319
O7    O     O_R   0.569730 0.499960 0.618810 -0.585764
O8    O     O_R   0.569740 0.500000 0.381220 -0.586051
C3    C     C_R   0.500221 0.737283 0.499704 0.816678
C4    C     C_R   0.592541 0.500252 0.500023 0.793871
C5    C     C_R   0.177796 0.388065 0.522551 0.536090
O9    O     O_2   0.202749 0.283494 0.545537 -0.529185
N1    N     N_R   0.201818 0.495903 0.497288 -0.464821
C6    C     C_R   0.177752 0.603080 0.470579 0.535000
C7    C     C_R   0.278582 0.509438 0.627447 0.207052
C8    C     C_R   0.329006 0.510092 0.626425 -0.190141
C9    C     C_R   0.328770 0.487372 0.373429 -0.213601
C10   C     C_R   0.278651 0.486126 0.373676 -0.140247
C11   C     C_R   0.253402 0.496868 0.499796 0.361146
C12   C     C_R   0.101764 0.495895 0.501749 -0.047373
C13   C     C_R   0.127305 0.385934 0.525046 -0.024730
C14   C     C_R   0.101999 0.276888 0.551277 -0.140635
C15   C     C_R   0.127271 0.605167 0.472303 -0.018223
C16   C     C_R   0.354402 0.499130 0.499787 -0.077772
H1    H     H_    0.347406 0.478626 0.274352 0.165022
H2    H     H_    0.259273 0.476758 0.275592 0.146816
H3    H     H_    0.120800 0.191407 0.571582 0.190454
C17   C     C_R   0.645491 0.500715 0.499485 -0.035337
C18   C     C_R   0.974299 0.384398 0.516537 0.061005
C19   C     C_R   0.975028 0.611843 0.512641 -0.075727
C20   C     C_R   0.949382 0.498468 0.512422 0.032052
C21   C     C_R   0.947225 0.274117 0.509454 -0.197525
C22   C     C_R   0.897279 0.275942 0.502607 -0.135631
C23   C     C_R   0.872409 0.387593 0.502916 -0.005971
C24   C     C_R   0.898342 0.499112 0.508516 -0.049945
C25   C     C_R   0.873127 0.611234 0.510078 -0.112465
C26   C     C_R   0.822630 0.609918 0.504610 0.558831
N2    N     N_R   0.798133 0.500522 0.499181 -0.466098
C27   C     C_R   0.821924 0.390393 0.498282 0.536461
C28   C     C_R   0.720987 0.459968 0.380695 -0.096015
C29   C     C_R   0.670781 0.459824 0.381013 -0.219222
C30   C     C_R   0.671269 0.542583 0.616918 -0.221683
C31   C     C_R   0.721411 0.542653 0.616514 -0.098381
C32   C     C_R   0.746489 0.501231 0.498558 0.347013
O10   O     O_2   0.796777 0.283924 0.494675 -0.533662
C33   C     C_R   0.025299 0.384331 0.525652 0.042364
C34   C     C_R   0.050747 0.496540 0.507169 0.083562
C35   C     C_R   0.025671 0.609367 0.492492 0.036485
C36   C     C_R   0.051951 0.275732 0.550967 -0.207816
H4    H     H_    0.651805 0.426332 0.289394 0.148259
H5    H     H_    0.740110 0.427956 0.289002 0.144962
H6    H     H_    0.878203 0.188934 0.496860 0.195399
H7    H     H_    0.963716 0.184523 0.504785 0.159699
H8    H     H_    0.035092 0.188613 0.574499 0.152330
O11   O     O_2   0.202645 0.707338 0.443648 -0.528745
C37   C     C_R   0.101873 0.713191 0.443085 -0.152382
H9    H     H_    0.348408 0.519718 0.724504 0.159944
H10   H     H_    0.120485 0.797138 0.413742 0.191857
C38   C     C_R   0.948567 0.722991 0.532447 0.372077
C39   C     C_R   0.898555 0.721816 0.523321 -0.124426
O12   O     O_2   0.798169 0.717106 0.504360 -0.533865
C40   C     C_R   0.051921 0.714751 0.450713 -0.215653
H11   H     H_    0.652802 0.576972 0.708188 0.148320
H12   H     H_    0.879542 0.808237 0.534362 0.207635
H13   H     H_    0.740856 0.574816 0.707984 0.144764
H14   H     H_    0.034258 0.798940 0.419525 0.197002
C41   C     C_R   0.499820 0.061473 0.621368 0.161422
C42   C     C_R   0.499889 0.129986 0.498382 -0.121024
C43   C     C_R   0.500270 0.064816 0.370333 -0.210710
H15   H     H_    0.500334 0.112827 0.270650 0.163093
C44   C     C_R   0.500534 0.935673 0.370090 -0.206811
H16   H     H_    0.500702 0.888196 0.270308 0.163386
C45   C     C_R   0.500505 0.869820 0.497898 -0.087187
C46   C     C_R   0.500451 0.937433 0.621007 0.060710
C47   C     C_3   0.500161 0.926964 0.776785 -0.503921
C48   C     C_3   0.499360 0.068923 0.777470 0.197587
H17   H     H_    0.466667 0.883007 0.816569 0.226230
H18   H     H_    0.534220 0.887760 0.818315 0.158290
H19   H     H_    0.531880 0.114324 0.822402 0.100291
C49   C     C_R   0.524291 0.589241 0.073747 0.255304
N3    N     N_R   0.500300 0.500930 0.147930 -0.185609
C50   C     C_R   0.471959 0.420272 0.074443 -0.085556
H20   H     H_    0.450023 0.354071 0.130347 0.142663
C51   C     C_R   0.471804 0.420695 0.925463 -0.076659
H21   H     H_    0.449463 0.355685 0.869414 0.186573
N4    N     N_R   0.500310 0.500890 0.852020 -0.190146
C52   C     C_R   0.524514 0.588733 0.926260 0.261332
C53   C     C_3   0.577313 0.612462 0.921847 -0.515515
C54   C     C_3   0.576914 0.615123 0.080686 -0.490940
H22   H     H_    0.597564 0.532522 0.880343 0.216296
H23   H     H_    0.586228 0.702869 0.873571 0.190916
H24   H     H_    0.597825 0.538512 0.127849 0.217623
H25   H     H_    0.584714 0.707747 0.124785 0.196376
C55   C     C_3   0.251930 0.523108 0.763701 -0.827527
H26   H     H_    0.276967 0.534417 0.853770 0.223171
H27   H     H_    0.228352 0.605368 0.758798 0.243653
H28   H     H_    0.229497 0.440125 0.783173 0.249696
O13   O     O_3   0.969420 0.832212 0.574317 -0.749518
H29   H     H_    0.996754 0.811889 0.637158 0.329960
O14   O     O_3   0.455622 0.115602 0.826346 -0.706536
H30   H     H_    0.457980 0.113653 0.930154 0.315773

loop_
_geom_bond_atom_site_label_1
_geom_bond_atom_site_label_2
_geom_bond_distance
_ccdc_geom_bond_type
C26   N2    1.368525 A    
C17   C29   1.405507 A    
C20   C24   1.418949 A    
C7    C8    1.401447 A    
C12   C15   1.408599 A    
Cu1   Cu2   2.682850 S    
C40   H14   1.079903 S    
C45   C46   1.386023 A    
Cu1   O7    1.949639 S    
N1    C11   1.433780 S    
C48   O14   1.399755 S    
C39   H12   1.083879 S    
C53   C54   1.515088 S    
C21   C22   1.389699 A    
Cu2   N3    2.015947 S    
C15   C37   1.398129 A    
C38   O13   1.378049 S    
O4    C2    1.298883 A    
O7    C4    1.299432 A    
C50   C51   1.420662 A    
C5    C13   1.403644 A    
C5    O9    1.349651 S    
C18   C21   1.414130 A    
C37   H10   1.083413 S    
C19   C20   1.420837 A    
C43   H15   1.083208 S    
C8    H9    1.083537 S    
O5    C3    1.291864 A    
C41   C48   1.491038 S    
C22   H6    1.083512 S    
C2    C16   1.473631 S    
C49   C52   1.406486 A    
C12   C34   1.419000 A    
C37   C40   1.390491 A    
C14   H3    1.083497 S    
O1    Cu1   1.969999 S    
C9    C10   1.392949 A    
C43   C44   1.402548 A    
O3    Cu1   1.948935 S    
O14   H30   0.992096 S    
C7    C55   1.505035 S    
C33   C34   1.418019 A    
C3    C45   1.439418 S    
C33   C36   1.414586 A    
C34   C35   1.417927 A    
C49   N3    1.363949 A    
O3    C2    1.298211 A    
C21   H7    1.077833 S    
C4    C17   1.471633 S    
C52   C53   1.489767 S    
C47   H17   1.112041 S    
C50   H20   1.081711 S    
C27   O10   1.349732 S    
C26   O12   1.349790 S    
C8    C16   1.405687 A    
C18   C33   1.419860 A    
N3    C50   1.369139 A    
Cu1   N4    2.015472 S    
C9    H1    1.083051 S    
C53   H23   1.111056 S    
C38   C39   1.392485 A    
C30   H11   1.079407 S    
O1    C1    1.292346 A    
C7    C11   1.409294 A    
C44   H16   1.083232 S    
C22   C23   1.397508 A    
C47   H18   1.110847 S    
C31   C32   1.400455 A    
Cu2   O8    1.948929 S    
C53   H22   1.110220 S    
N1    C6    1.367318 A    
N2    C32   1.435344 S    
C12   C13   1.408002 A    
C44   C45   1.411781 A    
C25   C26   1.404316 A    
C9    C16   1.404124 A    
O8    C4    1.296730 A    
C29   H4    1.082452 S    
C54   H24   1.110084 S    
C55   H27   1.110316 S    
N2    C27   1.368391 A    
C14   C36   1.390941 A    
C54   H25   1.111628 S    
C24   C25   1.406845 A    
C35   C40   1.412535 A    
C28   C29   1.395341 A    
C48   H19   1.113508 S    
Cu1   O5    1.969153 S    
C30   C31   1.393560 A    
C10   H2    1.082981 S    
C46   C47   1.489637 S    
C17   C30   1.403685 A    
O2    Cu2   1.969155 S    
C6    C15   1.403351 A    
C51   N4    1.368429 A    
C42   C43   1.412736 A    
O6    C3    1.289320 A    
O4    Cu2   1.949642 S    
C36   H8    1.077958 S    
C5    N1    1.367550 A    
C55   H28   1.109882 S    
C19   C35   1.421353 A    
C31   H13   1.082938 S    
C25   C39   1.397385 A    
O2    C1    1.289540 A    
C13   C14   1.397948 A    
C23   C27   1.404089 A    
C28   H5    1.082847 S    
N4    C52   1.364000 A    
C23   C24   1.408526 A    
C19   C38   1.428454 A    
C18   C20   1.421437 A    
C1    C42   1.440821 S    
C49   C54   1.489788 S    
O13   H29   0.991527 S    
C47   C48   1.541941 S    
C6    O11   1.349637 S    
C41   C42   1.387564 A    
C51   H21   1.080289 S    
Cu2   O6    1.969998 S    
C55   H26   1.110843 S    
C10   C11   1.399171 A    
C41   C46   1.347257 A    
C28   C32   1.400976 A    
