data_mof_unit_44564.cif
_audit_creation_date              2012-12-11T14:54:28-0500
_audit_creation_method            fapswitch 2.2
_symmetry_space_group_name_H-M    P1
_symmetry_Int_Tables_number       1
_space_group_crystal_system       triclinic
_cell_length_a                    18.958959
_cell_length_b                    10.97435
_cell_length_c                    18.884466
_cell_angle_alpha                 89.988963
_cell_angle_beta                  90.187802
_cell_angle_gamma                 90.38897
_cell_volume                      3929.03281211

loop_
_atom_site_label
_atom_site_type_symbol
_atom_type_description
_atom_site_fract_x
_atom_site_fract_y
_atom_site_fract_z
_atom_type_partial_charge
C1    C     C_R   0.731485 0.378901 0.646892 0.555944
C2    C     C_R   0.298075 0.855953 0.463363 0.003708
C3    C     C_R   0.932218 0.609395 0.477231 -0.108551
C4    C     C_2   0.627723 0.844296 0.076397 0.567014
C5    C     C_2   0.372025 0.842477 0.925063 0.566350
C6    C     C_2   0.127723 0.344224 0.076388 0.567198
C7    C     C_2   0.872029 0.342507 0.925059 0.566315
C8    C     C_2   0.618396 0.901032 0.546156 0.611182
C9    C     C_2   0.339654 0.765532 0.423126 0.595815
C10   C     C_2   0.117259 0.382733 0.549222 0.605946
C11   C     C_2   0.832765 0.257501 0.420816 0.597534
C12   C     C_2   0.911133 0.924316 0.465755 0.599518
C13   C     C_R   0.194232 0.377035 0.532643 0.028363
C14   C     C_2   0.166151 0.095709 0.582943 0.608829
C15   C     C_2   0.407913 0.443727 0.464985 0.595791
C16   C     C_2   0.675070 0.603631 0.585921 0.601416
C17   C     C_R   0.795439 0.351988 0.462219 0.016803
C18   C     C_R   0.710670 0.854165 0.461948 -0.158654
C19   C     C_R   0.299508 0.851418 0.537475 -0.184731
C20   C     C_R   0.210915 0.345560 0.463570 -0.167571
C21   C     C_R   0.796082 0.343968 0.536099 -0.169147
C22   C     C_R   0.779845 0.858226 0.436831 -0.038034
C23   C     C_R   0.254920 0.925966 0.578021 -0.043639
C24   C     C_R   0.279521 0.358214 0.437242 -0.035486
C25   C     C_R   0.289203 0.331759 0.361800 0.554547
C26   C     C_R   0.755307 0.423218 0.577600 -0.040502
C27   C     C_R   0.836307 0.890700 0.484229 0.015427
C28   C     C_R   0.215748 0.017813 0.544230 0.016080
C29   C     C_R   0.335342 0.396907 0.484006 0.013462
C30   C     C_R   0.721946 0.523163 0.545592 0.005531
C31   C     C_R   0.820105 0.903632 0.555604 -0.145578
C32   C     C_R   0.214649 0.022999 0.471172 -0.174182
C33   C     C_R   0.319811 0.404635 0.555696 -0.148770
C34   C     C_R   0.720867 0.531004 0.472462 -0.187163
C35   C     C_R   0.750676 0.911153 0.578595 -0.003261
C36   C     C_R   0.231648 0.879830 0.647219 0.556446
C37   C     C_R   0.254635 0.942940 0.429818 -0.038074
C38   C     C_R   0.250559 0.407583 0.579525 -0.007103
C39   C     C_R   0.755696 0.445291 0.430021 -0.032153
C40   C     C_R   0.504084 0.053401 0.964214 -0.110539
C41   C     C_R   0.496368 0.053632 0.036118 -0.115326
C42   C     C_R   0.004105 0.553398 0.964221 -0.110550
C43   C     C_R   0.996392 0.553630 0.036126 -0.115329
C44   C     C_R   0.491059 0.163638 0.073158 0.032384
C45   C     C_R   0.509046 0.163174 0.926836 0.032769
C46   C     C_R   0.991074 0.663637 0.073164 0.032362
C47   C     C_R   0.789503 0.831032 0.361652 0.549971
C48   C     C_R   0.009058 0.663171 0.926842 0.032765
C49   C     C_R   0.495194 0.274751 0.036443 -0.142523
C50   C     C_R   0.504612 0.274527 0.963180 -0.143531
C51   C     C_R   0.995209 0.774749 0.036449 -0.142550
C52   C     C_R   0.004624 0.774525 0.963185 -0.143535
C53   C     C_R   0.531640 0.155473 0.646963 0.542261
C54   C     C_R   0.464172 0.154120 0.355429 0.542169
C55   C     C_R   0.032675 0.655178 0.646388 0.539435
C56   C     C_R   0.965615 0.654403 0.354501 0.536864
C57   C     C_R   0.813195 0.949937 0.960379 -0.125939
C58   C     C_3   0.597492 0.273446 0.441116 -0.264299
C59   C     C_R   0.186924 0.950871 0.039341 -0.128205
C60   C     C_R   0.313185 0.450043 0.960395 -0.126037
C61   C     C_R   0.686921 0.450854 0.039343 -0.128079
C62   C     C_R   0.816347 0.943979 0.032787 -0.140796
C63   C     C_R   0.184040 0.944807 0.966940 -0.142684
C64   C     C_R   0.316328 0.444104 0.032804 -0.140774
C65   C     C_R   0.684036 0.444788 0.966942 -0.142722
C66   C     C_R   0.757193 0.907426 0.072657 0.009886
C67   C     C_R   0.242930 0.907408 0.927356 0.006733
C68   C     C_R   0.257182 0.407465 0.072664 0.009793
C69   C     C_3   0.610203 0.278749 0.520270 -0.248589
C70   C     C_R   0.742928 0.407406 0.927356 0.006636
C71   C     C_R   0.693166 0.877606 0.037839 0.037766
C72   C     C_R   0.306499 0.877065 0.962579 0.038213
C73   C     C_R   0.193166 0.377579 0.037837 0.037686
C74   C     C_R   0.806501 0.377078 0.962578 0.038046
C75   C     C_R   0.690696 0.885170 0.964008 -0.135112
C76   C     C_R   0.308646 0.884623 0.036346 -0.129823
C77   C     C_R   0.190705 0.385127 0.964004 -0.135091
C78   C     C_R   0.808649 0.384636 0.036344 -0.129803
C79   C     C_R   0.749944 0.924892 0.925640 0.002492
C80   C     C_3   0.114982 0.705150 0.435181 -0.258929
C81   C     C_R   0.249708 0.925164 0.074391 0.000101
C82   C     C_R   0.249947 0.424909 0.925644 0.002318
C83   C     C_R   0.749709 0.425162 0.074392 0.000267
C84   C     C_R   0.740273 0.969965 0.646824 0.559151
C85   C     C_R   0.259624 0.972943 0.354402 0.565039
C86   C     C_R   0.240329 0.468882 0.647160 0.553453
C87   C     C_R   0.759834 0.473713 0.354541 0.569811
C88   C     C_R   0.729080 0.376612 0.853448 0.576068
C89   C     C_R   0.270919 0.376841 0.146552 0.588081
C90   C     C_R   0.229080 0.876611 0.853448 0.574310
C91   C     C_3   0.130182 0.710174 0.513925 -0.250499
C92   C     C_R   0.770923 0.876830 0.146549 0.588642
C93   C     C_R   0.533501 0.156687 0.854102 0.554733
C94   C     C_R   0.466551 0.157025 0.145910 0.558186
C95   C     C_R   0.033504 0.656687 0.854103 0.555152
C96   C     C_R   0.966555 0.657025 0.145912 0.556861
C97   C     C_R   0.741269 0.970351 0.854140 0.552512
C98   C     C_R   0.258622 0.970675 0.145880 0.555995
C99   C     C_R   0.241269 0.470353 0.854141 0.551424
C100  C     C_R   0.758622 0.470674 0.145880 0.557053
C101  C     C_R   0.478414 0.158359 0.430350 0.053619
C102  C     C_R   0.694550 0.886661 0.530771 0.040295
C103  C     C_R   0.501897 0.168482 0.576723 0.040514
C104  C     C_R   0.981147 0.659100 0.428827 0.062081
C105  C     C_R   0.008746 0.666224 0.574176 0.068484
C106  C     C_R   0.522599 0.246213 0.458423 0.047267
C107  C     C_R   0.534157 0.250609 0.530316 0.056273
C108  C     C_R   0.039422 0.721703 0.453826 0.027611
C109  C     C_R   0.053110 0.724340 0.525514 0.065505
C110  C     C_R   0.450404 0.088747 0.549985 -0.122296
C111  C     C_R   0.438291 0.084834 0.476784 -0.103623
C112  C     C_R   0.946309 0.611659 0.550008 -0.119270
Cr1   Cr    Cr6+3 0.771950 0.169480 0.750100 1.070142
Cr2   Cr    Cr6+3 0.383410 0.010620 0.249390 1.056401
Cr3   Cr    Cr6+3 0.116590 0.510620 0.750610 1.085452
Cr4   Cr    Cr6+3 0.883410 0.510620 0.249390 1.058735
Cr5   Cr    Cr6+3 0.228050 0.169480 0.249900 1.068333
Cr6   Cr    Cr6+3 0.271950 0.669480 0.750100 1.069999
Cr7   Cr    Cr6+3 0.728050 0.669480 0.249900 1.066420
Cr8   Cr    Cr6+3 0.614930 0.323340 0.749170 1.049597
Cr9   Cr    Cr6+3 0.385070 0.323340 0.250830 1.069859
Cr10  Cr    Cr6+3 0.114930 0.823340 0.749170 1.058342
Cr11  Cr    Cr6+3 0.885070 0.823340 0.250830 1.070314
Cr12  Cr    Cr6+3 0.616590 0.010620 0.750610 1.086139
H1    H     H_    0.859606 0.980616 0.931928 0.160973
H2    H     H_    0.357985 0.867259 0.063587 0.167623
H3    H     H_    0.141030 0.368322 0.937014 0.155289
H4    H     H_    0.857991 0.367284 0.063583 0.167652
H5    H     H_    0.624485 0.196037 0.414854 0.174708
H6    H     H_    0.620580 0.371441 0.539565 0.190638
H7    H     H_    0.125769 0.614633 0.411198 0.182985
H8    H     H_    0.157788 0.793714 0.529368 0.152368
H9    H     H_    0.667341 0.832118 0.426463 0.180920
H10   H     H_    0.329445 0.779810 0.562948 0.181917
H11   H     H_    0.168187 0.317939 0.428704 0.181934
H12   H     H_    0.140730 0.982133 0.067524 0.164948
H13   H     H_    0.822219 0.267025 0.560525 0.176927
H14   H     H_    0.861838 0.922344 0.593482 0.194434
H15   H     H_    0.182145 0.092035 0.446620 0.170794
H16   H     H_    0.361703 0.423932 0.593314 0.191949
H17   H     H_    0.691694 0.604953 0.448604 0.161937
H18   H     H_    0.489880 0.360774 0.063926 0.132401
H19   H     H_    0.509679 0.360457 0.935401 0.128558
H20   H     H_    0.989894 0.860772 0.063931 0.132543
H21   H     H_    0.009687 0.860455 0.935405 0.128631
H22   H     H_    0.423392 0.025027 0.584483 0.131466
H23   H     H_    0.359590 0.480776 0.931954 0.160906
H24   H     H_    0.399969 0.021263 0.455974 0.143657
H25   H     H_    0.910358 0.567586 0.586549 0.126931
H26   H     H_    0.884352 0.566139 0.458414 0.119083
H27   H     H_    0.566421 0.868865 0.162327 0.342856
H28   H     H_    0.461206 0.743030 0.925989 0.341297
H29   H     H_    0.066406 0.368760 0.162312 0.342877
H30   H     H_    0.961215 0.243072 0.925978 0.341468
H31   H     H_    0.136460 0.784423 0.405500 0.161091
H32   H     H_    0.152181 0.625271 0.536400 0.142408
H33   H     H_    0.603690 0.363203 0.414513 0.169411
H34   H     H_    0.640725 0.482104 0.067529 0.164847
H35   H     H_    0.645711 0.206256 0.540533 0.140732
H36   H     H_    0.534313 0.850373 0.604322 0.341565
H37   H     H_    0.346519 0.656662 0.337455 0.365161
H38   H     H_    0.036843 0.339033 0.614223 0.339981
H39   H     H_    0.835755 0.153363 0.332914 0.367455
H40   H     H_    0.008733 0.964016 0.501402 0.379988
H41   H     H_    0.062637 0.123350 0.600712 0.365733
H42   H     H_    0.498017 0.524027 0.498765 0.381414
H43   H     H_    0.572894 0.629168 0.610281 0.369746
H44   H     H_    0.509004 0.965744 0.938531 0.177221
H45   H     H_    0.866774 0.965110 0.057116 0.158571
H46   H     H_    0.491637 0.966004 0.062019 0.180615
H47   H     H_    0.009028 0.465740 0.938539 0.177236
H48   H     H_    0.991665 0.466001 0.062028 0.180692
H49   H     H_    0.133951 0.966511 0.942425 0.155039
H50   H     H_    0.366744 0.465306 0.057138 0.158505
H51   H     H_    0.633944 0.466480 0.942429 0.154947
H52   H     H_    0.641012 0.868421 0.937025 0.155119
O1    O     O_R   0.787510 0.042610 0.670410 -0.532735
O2    O     O_R   0.454250 0.051070 0.169440 -0.524436
O3    O     O_R   0.045750 0.551070 0.830560 -0.507519
O4    O     O_R   0.954250 0.551070 0.169440 -0.525222
O5    O     O_R   0.681210 0.959150 0.825320 -0.505537
O6    O     O_R   0.318790 0.959150 0.174680 -0.503779
O7    O     O_R   0.181210 0.459150 0.825320 -0.504793
O8    O     O_R   0.818790 0.459150 0.174680 -0.503396
O9    O     O_3   0.667820 0.167810 0.749960 -0.281515
O10   O     O_3   0.332180 0.167810 0.250040 -0.303974
O11   O     O_3   0.167820 0.667810 0.749960 -0.282739
O12   O     O_R   0.212490 0.042610 0.329590 -0.528453
O13   O     O_3   0.832180 0.667810 0.250040 -0.304711
O14   O     O_R   0.765670 0.292090 0.675090 -0.507444
O15   O     O_R   0.234330 0.292090 0.324910 -0.503212
O16   O     O_R   0.265670 0.792090 0.675090 -0.508443
O17   O     O_R   0.734330 0.792090 0.324910 -0.502634
O18   O     O_R   0.670220 0.409020 0.668560 -0.485791
O19   O     O_R   0.329780 0.409020 0.331440 -0.451900
O20   O     O_R   0.170220 0.909020 0.668560 -0.474922
O21   O     O_R   0.829780 0.909020 0.331440 -0.452038
O22   O     O_R   0.556580 0.251590 0.674980 -0.500779
O23   O     O_R   0.287510 0.542610 0.670410 -0.527295
O24   O     O_R   0.443420 0.251590 0.325020 -0.476985
O25   O     O_R   0.056580 0.751590 0.674980 -0.492856
O26   O     O_R   0.943420 0.751590 0.325020 -0.484077
O27   O     O_R   0.545890 0.049670 0.670030 -0.492542
O28   O     O_R   0.454110 0.049670 0.329970 -0.499067
O29   O     O_R   0.045890 0.549670 0.670030 -0.496567
O30   O     O_R   0.954110 0.549670 0.329970 -0.495976
O31   O     O_R   0.681340 0.957860 0.676500 -0.437037
O32   O     O_R   0.318660 0.957860 0.323500 -0.473236
O33   O     O_R   0.181340 0.457860 0.676500 -0.438464
O34   O     O_R   0.712490 0.542610 0.329590 -0.531054
O35   O     O_R   0.818660 0.457860 0.323500 -0.469874
O36   O     O_R   0.787380 0.044010 0.830940 -0.511216
O37   O     O_R   0.212620 0.044010 0.169060 -0.506972
O38   O     O_R   0.287380 0.544010 0.830940 -0.511646
O39   O     O_R   0.712620 0.544010 0.169060 -0.507188
O40   O     O_R   0.765540 0.293390 0.823910 -0.460731
O41   O     O_R   0.234460 0.293390 0.176090 -0.455841
O42   O     O_R   0.265540 0.793390 0.823910 -0.461414
O43   O     O_R   0.734460 0.793390 0.176090 -0.455641
O44   O     O_R   0.670090 0.410410 0.829090 -0.524466
O45   O     O_R   0.556450 0.252890 0.823790 -0.513548
O46   O     O_R   0.329910 0.410410 0.170910 -0.527614
O47   O     O_R   0.170090 0.910410 0.829090 -0.524846
O48   O     O_R   0.829910 0.910410 0.170910 -0.527760
O49   O     O_2   0.586199 0.770878 0.050522 -0.544751
O50   O     O_R   0.612318 0.899558 0.141220 -0.678327
O51   O     O_2   0.387028 0.889579 0.868323 -0.511281
O52   O     O_R   0.418090 0.758866 0.956153 -0.710756
O53   O     O_2   0.086215 0.270786 0.050508 -0.544415
O54   O     O_R   0.112299 0.399475 0.141210 -0.679534
O55   O     O_2   0.887027 0.389620 0.868321 -0.510309
O56   O     O_R   0.443550 0.252890 0.176210 -0.507997
O57   O     O_R   0.918098 0.258899 0.956144 -0.710686
O58   O     O_2   0.581078 0.953790 0.503276 -0.535965
O59   O     O_R   0.587728 0.845785 0.605058 -0.625426
O60   O     O_2   0.396879 0.732249 0.445757 -0.480037
O61   O     O_R   0.312873 0.716295 0.360188 -0.678501
O62   O     O_2   0.076257 0.420618 0.504279 -0.529843
O63   O     O_R   0.090309 0.337347 0.612676 -0.617308
O64   O     O_2   0.887424 0.213760 0.443753 -0.468977
O65   O     O_R   0.804765 0.216216 0.356497 -0.679753
O66   O     O_2   0.929062 0.951215 0.405905 -0.445758
O67   O     O_R   0.056450 0.752890 0.823790 -0.513745
O68   O     O_R   0.961147 0.936581 0.519886 -0.708505
O69   O     O_2   0.185253 0.149264 0.636541 -0.475612
O70   O     O_R   0.095598 0.096902 0.561663 -0.688619
O71   O     O_2   0.430172 0.444392 0.404701 -0.469958
O72   O     O_R   0.451333 0.493262 0.517936 -0.691326
O73   O     O_2   0.697131 0.657925 0.638096 -0.484000
O74   O     O_R   0.603382 0.604019 0.568944 -0.699413
O75   O     O_R   0.943550 0.752890 0.176210 -0.508003
O76   O     O_R   0.545750 0.051070 0.830560 -0.508393

loop_
_geom_bond_atom_site_label_1
_geom_bond_atom_site_label_2
_ccdc_geom_bond_type
C3    C104  A    
C44   C49   A    
Cr1   O1    S    
C21   C26   A    
C7    O57   S    
C100  O39   A    
Cr7   O39   S    
Cr8   O45   S    
C51   C52   A    
C97   O36   A    
C91   H32   S    
C76   H2    S    
C82   C99   S    
C57   C79   A    
C54   C101  S    
C84   O31   A    
C86   O33   A    
C39   C87   S    
Cr4   O13   S    
C35   C102  A    
C45   C93   S    
Cr8   O9    S    
C69   C107  S    
C94   O56   A    
C57   C62   A    
C34   H17   S    
C7    O55   D    
C51   H20   S    
C19   H10   S    
Cr1   O14   S    
C53   O27   A    
H43   O74   S    
C55   C105  S    
C103  C110  A    
C53   O22   A    
C64   C68   A    
Cr10  O25   S    
C37   C85   S    
C48   C95   S    
C5    C72   S    
Cr11  O21   S    
Cr5   O10   S    
C17   C39   A    
Cr12  O9    S    
C56   O26   A    
C81   C98   S    
C42   H47   S    
C33   H16   S    
C16   C30   S    
C65   C70   A    
C55   O25   A    
C29   C33   A    
C59   H12   S    
C54   O24   A    
C108  C109  A    
C18   H9    S    
C67   C72   A    
C18   C102  A    
C49   C50   A    
C24   C29   A    
Cr12  O5    S    
Cr5   O15   S    
C69   H35   S    
Cr9   O10   S    
C110  C111  A    
Cr6   O16   S    
C78   C83   A    
C20   C24   A    
C69   H6    S    
C12   O68   S    
H36   O59   S    
C4    O49   D    
C70   C74   A    
Cr8   O22   S    
Cr9   O46   S    
Cr5   O41   S    
Cr6   O42   S    
C60   H23   S    
C21   H13   S    
Cr11  O13   S    
C56   O30   A    
C93   O45   A    
C99   O7    A    
C77   H3    S    
C93   O76   A    
C72   C76   A    
C86   O23   A    
C14   O69   D    
C1    O14   A    
C85   O12   A    
C36   O16   A    
C22   C47   S    
C75   H52   S    
C70   C88   S    
C10   O63   S    
Cr9   O56   S    
H28   O52   S    
C65   H51   S    
C9    O60   D    
Cr7   O43   S    
C75   C79   A    
C60   C82   A    
Cr6   O23   S    
C43   H48   S    
C13   C20   A    
C79   C97   S    
C15   C29   S    
C7    C74   S    
Cr4   O30   S    
C40   C45   A    
C55   O29   A    
C63   C67   A    
C90   O42   A    
C94   O2    A    
C30   C34   A    
Cr12  O27   S    
C27   C31   A    
C34   C39   A    
C59   C81   A    
C92   O48   A    
C62   C66   A    
C24   C25   S    
C56   C104  S    
C32   H15   S    
C80   H7    S    
C61   C83   A    
C89   O46   A    
C52   H21   S    
Cr3   O33   S    
C66   C92   S    
C91   H8    S    
C12   C27   S    
Cr2   O2    S    
C68   C73   A    
Cr2   O6    S    
C46   C51   A    
C10   C13   S    
C67   C90   S    
Cr8   O18   S    
C88   O44   A    
Cr7   O17   S    
C98   O6    A    
C92   O43   A    
C19   C23   A    
C36   O20   A    
Cr9   O24   S    
Cr11  O75   S    
C35   C84   S    
C61   C65   A    
Cr3   O11   S    
C66   C71   A    
C28   C32   A    
C3    C112  A    
Cr8   O44   S    
Cr1   O9    S    
C49   H18   S    
C3    H26   S    
C14   C28   S    
C63   H49   S    
C68   C89   S    
C46   C96   S    
Cr6   O38   S    
C42   C48   A    
C32   C37   A    
C96   O4    A    
C31   H14   S    
Cr5   O37   S    
C13   C38   A    
Cr10  O67   S    
C6    O54   S    
C96   O75   A    
C95   O3    A    
C40   C41   A    
C98   O37   A    
C15   O71   D    
C10   O62   D    
C12   O66   D    
C22   C27   A    
Cr4   O4    S    
Cr12  O31   S    
C9    O61   S    
C1    C26   S    
C11   O65   S    
C41   C44   A    
C31   C35   A    
H29   O54   S    
C23   C28   A    
C42   C43   A    
C105  C112  A    
C38   C86   S    
H40   O68   S    
C104  C108  A    
Cr6   O11   S    
C50   H19   S    
C80   H31   S    
C41   H46   S    
C101  C106  A    
C62   H45   S    
C105  C109  A    
C11   C17   S    
Cr7   O34   S    
C16   O74   S    
C88   O40   A    
Cr11  O26   S    
C2    C19   A    
C18   C22   A    
C87   O35   A    
C47   O17   A    
H41   O70   S    
Cr7   O13   S    
Cr1   O36   S    
Cr10  O20   S    
C58   H33   S    
C25   O19   A    
C76   C81   A    
Cr3   O7    S    
C16   O73   D    
C58   C69   S    
C97   O5    A    
C83   C100  S    
C99   O38   A    
C25   O15   A    
Cr4   O35   S    
Cr11  O48   S    
C80   C108  S    
C59   C63   A    
C33   C38   A    
Cr2   O10   S    
C5    O52   S    
C60   C64   A    
Cr10  O47   S    
H42   O72   S    
C91   C109  S    
C80   C91   S    
Cr3   O29   S    
C1    O18   A    
C11   O64   D    
C90   O47   A    
Cr12  O76   S    
C110  H22   S    
C111  H24   S    
C57   H1    S    
C71   C75   A    
H38   O63   S    
C2    C37   A    
Cr10  O11   S    
C8    C102  S    
C77   C82   A    
C53   C103  S    
C54   O28   A    
C101  C111  A    
Cr4   O8    S    
H30   O57   S    
C74   C78   A    
C87   O34   A    
Cr2   O32   S    
H39   O65   S    
Cr2   O28   S    
C6    C73   S    
C20   H11   S    
C84   O1    A    
C100  O8    A    
C43   C46   A    
C17   C21   A    
C40   H44   S    
C44   C94   S    
C78   H4    S    
C89   O41   A    
C8    O59   S    
C5    O51   D    
C48   C52   A    
H27   O50   S    
H37   O61   S    
C15   O72   S    
C23   C36   S    
C106  C107  A    
C6    O53   D    
Cr5   O12   S    
C73   C77   A    
C112  H25   S    
C47   O21   A    
C103  C107  A    
C45   C50   A    
C58   H5    S    
Cr1   O40   S    
C58   C106  S    
C61   H34   S    
C2    C9    S    
C64   H50   S    
C4    O50   S    
Cr9   O19   S    
C4    C71   S    
Cr3   O3    S    
C85   O32   A    
C95   O67   A    
C14   O70   S    
C26   C30   A    
C8    O58   D    
