data_mof_unit_21535.cif
_audit_creation_date              2012-12-11T14:07:18-0500
_audit_creation_method            fapswitch 2.2
_symmetry_space_group_name_H-M    P1
_symmetry_Int_Tables_number       1
_space_group_crystal_system       triclinic
_cell_length_a                    19.635615
_cell_length_b                    17.010047
_cell_length_c                    15.441859
_cell_angle_alpha                 90.080797
_cell_angle_beta                  53.638788
_cell_angle_gamma                 89.974002
_cell_volume                      4153.40043419

loop_
_atom_site_label
_atom_site_type_symbol
_atom_type_description
_atom_site_fract_x
_atom_site_fract_y
_atom_site_fract_z
_atom_type_partial_charge
C1    C     C_R   0.378024 0.199136 0.993512 0.630629
C2    C     C_R   0.341382 0.823377 0.047451 0.708936
C3    C     C_R   0.878024 0.699136 0.993512 0.630635
C4    C     C_R   0.841383 0.323377 0.047450 0.708938
C5    C     C_R   0.670327 0.918791 0.049227 -0.063052
C6    C     C_R   0.630738 0.105239 0.109145 -0.076870
C7    C     C_R   0.170327 0.418791 0.049226 -0.063061
C8    C     C_R   0.130739 0.605239 0.109144 -0.076876
C9    C     C_R   0.642471 0.184801 0.084762 0.072112
C10   C     C_R   0.712814 0.855799 0.978770 0.061112
C11   C     C_R   0.142474 0.684800 0.084758 0.072120
C12   C     C_R   0.212815 0.355800 0.978768 0.061125
C13   C     C_R   0.601171 0.813108 0.702381 -0.065839
C14   C     C_R   0.680775 0.147582 0.674610 0.014248
C15   C     C_R   0.101166 0.313106 0.702387 -0.065767
C16   C     C_R   0.180784 0.647577 0.674612 0.014296
C17   C     C_3   0.193981 0.133142 0.514532 -0.532175
C18   C     C_3   0.265329 0.809742 0.469800 -0.591584
C19   C     C_3   0.693985 0.633135 0.514546 -0.532203
C20   C     C_3   0.765334 0.309757 0.469810 -0.591566
C21   C     C_3   0.145936 0.177585 0.621675 0.676898
C22   C     C_3   0.199644 0.758118 0.561616 0.661607
C23   C     C_3   0.645962 0.677582 0.621684 0.676863
C24   C     C_3   0.699644 0.258142 0.561634 0.661616
C25   C     C_3   0.311641 0.236071 0.451995 0.705066
C26   C     C_3   0.392814 0.749685 0.453485 0.693819
C27   C     C_3   0.811636 0.736078 0.451979 0.705069
C28   C     C_3   0.892816 0.249663 0.453465 0.693820
C29   C     C_3   0.703812 0.749325 0.410095 -0.439110
C30   C     C_3   0.829564 0.182497 0.369054 -0.431270
C31   C     C_3   0.203836 0.249344 0.410085 -0.439048
C32   C     C_3   0.329595 0.682486 0.369053 -0.431300
C33   C     C_3   0.257811 0.189924 0.422377 0.000171
C34   C     C_3   0.350263 0.764340 0.394591 -0.018277
C35   C     C_3   0.757803 0.689916 0.422377 0.000190
C36   C     C_3   0.850256 0.264340 0.394588 -0.018286
C37   C     C_3   0.656909 0.768138 0.600845 -0.128150
C38   C     C_3   0.744433 0.186777 0.571621 -0.110580
C39   C     C_3   0.156913 0.268138 0.600850 -0.128190
C40   C     C_3   0.244443 0.686773 0.571622 -0.110594
C41   C     C_3   0.751126 0.791146 0.549375 0.252584
C42   C     C_3   0.823928 0.212589 0.565459 0.232456
C43   C     C_3   0.251125 0.291108 0.549428 0.252585
C44   C     C_3   0.323921 0.712617 0.565481 0.232457
C45   C     C_R   0.406947 0.799615 0.204164 -0.027241
C46   C     C_R   0.352849 0.175238 0.219604 -0.039197
C47   C     C_R   0.906946 0.299615 0.204162 -0.027244
C48   C     C_R   0.852843 0.675232 0.219604 -0.039178
C49   C     C_3   0.636659 0.786954 0.519335 -0.375269
C50   C     C_3   0.776737 0.133262 0.471988 -0.407455
C51   C     C_3   0.136705 0.286995 0.519314 -0.375500
C52   C     C_3   0.276778 0.633249 0.471988 -0.407450
C53   C     C_2   0.183082 0.742380 0.109797 -0.094300
C54   C     C_2   0.288626 0.319722 0.956549 -0.131571
C55   C     C_2   0.683081 0.242380 0.109798 -0.094294
C56   C     C_2   0.788625 0.819721 0.956551 -0.131567
C57   C     C_2   0.711478 0.309269 0.052388 -0.035419
C58   C     C_2   0.820773 0.754448 0.896522 -0.007409
C59   C     C_2   0.211478 0.809270 0.052389 -0.035406
C60   C     C_2   0.320773 0.254447 0.896521 -0.007422
C61   C     C_R   0.329001 0.909714 0.951981 0.407341
C62   C     C_R   0.375459 0.116934 0.886595 0.476171
C63   C     C_R   0.829001 0.409714 0.951980 0.407332
C64   C     C_R   0.875459 0.616935 0.886595 0.476174
C65   C     C_R   0.361652 0.081809 0.314909 -0.048756
C66   C     C_R   0.412958 0.892078 0.299569 -0.127639
C67   C     C_R   0.861650 0.581806 0.314910 -0.048746
C68   C     C_R   0.912959 0.392076 0.299567 -0.127647
C69   C     C_R   0.355279 0.192777 0.925673 -0.195511
C70   C     C_R   0.287358 0.848648 0.024993 -0.223783
C71   C     C_R   0.855279 0.692777 0.925673 -0.195513
C72   C     C_R   0.787358 0.348647 0.024992 -0.223777
C73   C     C_R   0.400030 0.813136 0.297148 0.138797
C74   C     C_R   0.314678 0.145282 0.322307 0.073190
C75   C     C_R   0.900027 0.313135 0.297146 0.138818
C76   C     C_R   0.814670 0.645274 0.322307 0.073170
C77   C     C_R   0.613505 0.201004 0.025212 0.023981
C78   C     C_R   0.662158 0.823641 0.952457 -0.059626
C79   C     C_R   0.113509 0.701004 0.025206 0.023973
C80   C     C_R   0.162159 0.323641 0.952456 -0.059594
C81   C     C_R   0.594168 0.799490 0.796187 0.464469
C82   C     C_R   0.643403 0.178419 0.777921 0.556908
C83   C     C_R   0.094164 0.299489 0.796192 0.464472
C84   C     C_R   0.143403 0.678419 0.777923 0.556898
C85   C     C_R   0.635035 0.082322 0.683938 -0.107853
C86   C     C_R   0.585666 0.892090 0.701666 -0.035951
C87   C     C_R   0.135040 0.582319 0.683939 -0.107828
C88   C     C_R   0.085661 0.392088 0.701670 -0.035934
H1    H     H_    0.148471 0.110185 0.499941 0.189974
H2    H     H_    0.239938 0.829919 0.425338 0.192309
H3    H     H_    0.648463 0.610177 0.499980 0.189973
H4    H     H_    0.739936 0.329944 0.425358 0.192293
H5    H     H_    0.577887 0.661247 0.670484 0.109172
H6    H     H_    0.655498 0.235905 0.544255 0.088611
H7    H     H_    0.077858 0.161273 0.670434 0.109149
H8    H     H_    0.155517 0.735860 0.544217 0.088613
H9    H     H_    0.762732 0.783467 0.611193 0.161036
H10   H     H_    0.803598 0.258952 0.626149 0.191193
H11   H     H_    0.262698 0.283361 0.611261 0.161075
H12   H     H_    0.303572 0.758992 0.626160 0.191195
H13   H     H_    0.744576 0.796639 0.352569 0.233427
H14   H     H_    0.887780 0.149737 0.306918 0.249222
H15   H     H_    0.244611 0.296647 0.352537 0.233378
H16   H     H_    0.387820 0.649737 0.306918 0.249216
H17   H     H_    0.672221 0.719592 0.378386 0.229236
H18   H     H_    0.792260 0.190816 0.336635 0.204219
H19   H     H_    0.172228 0.219615 0.378393 0.229225
H20   H     H_    0.292291 0.690787 0.336632 0.204210
H21   H     H_    0.572906 0.763906 0.550451 0.227173
H22   H     H_    0.723899 0.107941 0.473597 0.184885
H23   H     H_    0.072939 0.264006 0.550416 0.227205
H24   H     H_    0.223958 0.607897 0.473583 0.184870
H25   H     H_    0.636271 0.850756 0.505379 0.235082
H26   H     H_    0.814976 0.083610 0.468964 0.294482
H27   H     H_    0.136382 0.350799 0.505347 0.235069
H28   H     H_    0.315034 0.583618 0.468974 0.294473
H29   H     H_    0.411738 0.742678 0.169980 0.196334
H30   H     H_    0.335172 0.227108 0.197350 0.174199
H31   H     H_    0.911739 0.242678 0.169976 0.196344
H32   H     H_    0.835162 0.727101 0.197354 0.174204
H33   H     H_    0.202674 0.723085 0.158603 0.207617
H34   H     H_    0.305169 0.337989 0.008967 0.215184
H35   H     H_    0.702673 0.223086 0.158605 0.207618
H36   H     H_    0.805167 0.837987 0.008970 0.215189
H37   H     H_    0.688608 0.328989 0.007325 0.197174
H38   H     H_    0.805088 0.738162 0.842356 0.177359
H39   H     H_    0.188607 0.828990 0.007326 0.197169
H40   H     H_    0.305088 0.238162 0.842356 0.177352
H41   H     H_    0.353106 0.046447 0.378545 0.147422
H42   H     H_    0.413896 0.925099 0.358302 0.184955
H43   H     H_    0.853106 0.546445 0.378545 0.147408
H44   H     H_    0.913901 0.425094 0.358301 0.184944
H45   H     H_    0.593163 0.257960 0.018055 0.177967
H46   H     H_    0.674694 0.773322 0.902343 0.160943
H47   H     H_    0.093168 0.757959 0.018048 0.177976
H48   H     H_    0.174695 0.273323 0.902340 0.160918
H49   H     H_    0.643060 0.045039 0.622059 0.160313
H50   H     H_    0.577641 0.922761 0.647164 0.154049
H51   H     H_    0.143067 0.545035 0.622060 0.160271
H52   H     H_    0.077632 0.422758 0.647170 0.153995
H53   H     H_    0.691680 0.953212 0.087708 0.119397
H54   H     H_    0.636005 0.076894 0.167579 0.125146
H55   H     H_    0.191681 0.453213 0.087706 0.119390
H56   H     H_    0.136005 0.576895 0.167578 0.125136
H57   H     H_    0.224862 0.080793 0.520207 0.246656
H58   H     H_    0.275275 0.863148 0.502783 0.254547
H59   H     H_    0.724871 0.580791 0.520215 0.246658
H60   H     H_    0.775297 0.363157 0.502784 0.254556
N1    N     N_R   0.408680 0.130160 0.995800 -0.149387
N2    N     N_R   0.408680 0.869840 0.995800 -0.138630
N3    N     N_R   0.908680 0.630160 0.995800 -0.149392
N4    N     N_R   0.908680 0.369840 0.995800 -0.138634
N5    N     N_R   0.421680 0.867580 0.153120 -0.061377
N6    N     N_R   0.421680 0.132420 0.153120 -0.048735
N7    N     N_R   0.921680 0.367580 0.153120 -0.061382
N8    N     N_R   0.921680 0.632420 0.153120 -0.048724
N9    N     N_R   0.403730 0.921770 0.935950 -0.135089
N10   N     N_R   0.403730 0.078230 0.935950 -0.141189
N11   N     N_R   0.903730 0.421770 0.935950 -0.135095
N12   N     N_R   0.903730 0.578230 0.935950 -0.141194
N13   N     N_R   0.426630 0.075970 0.212960 -0.057901
N14   N     N_R   0.426630 0.924030 0.212960 -0.075666
N15   N     N_R   0.926630 0.575970 0.212960 -0.057902
N16   N     N_R   0.926630 0.424030 0.212960 -0.075667
N17   N     N_R   0.591320 0.134600 0.004200 -0.062680
N18   N     N_R   0.591320 0.865400 0.004200 -0.049404
N19   N     N_R   0.091320 0.634600 0.004200 -0.062683
N20   N     N_R   0.091320 0.365400 0.004200 -0.049405
N21   N     N_R   0.578320 0.867660 0.846880 -0.103796
N22   N     N_R   0.578320 0.132340 0.846880 -0.106872
N23   N     N_R   0.078320 0.367660 0.846880 -0.103788
N24   N     N_R   0.078320 0.632340 0.846880 -0.106869
N25   N     N_R   0.573370 0.074390 0.787040 -0.076655
N26   N     N_R   0.573370 0.925610 0.787040 -0.072032
N27   N     N_R   0.073370 0.574390 0.787040 -0.076652
N28   N     N_R   0.073370 0.425610 0.787040 -0.072008
N29   N     N_R   0.596270 0.927870 0.064040 -0.055658
N30   N     N_R   0.596270 0.072130 0.064040 -0.063751
N31   N     N_R   0.096270 0.427870 0.064040 -0.055657
N32   N     N_R   0.096270 0.572130 0.064040 -0.063749
Ni1   Ni    Ni4+2 0.500000 0.131190 0.000000 0.316745
Ni2   Ni    Ni4+2 0.500000 0.868810 0.000000 0.296453
Ni3   Ni    Ni4+2 0.000000 0.631190 0.000000 0.316764
Ni4   Ni    Ni4+2 0.000000 0.368810 0.000000 0.296459
Ni5   Ni    Ni4+2 0.488650 0.000000 0.862740 0.280263
Ni6   Ni    Ni4+2 0.988650 0.500000 0.862740 0.280265
Ni7   Ni    Ni4+2 0.511350 0.000000 0.137260 0.241878
Ni8   Ni    Ni4+2 0.011350 0.500000 0.137260 0.241872
F1    F     F_    0.400399 0.267234 0.016113 -0.679903
F2    F     F_    0.336509 0.755919 0.096854 -0.716036
F3    F     F_    0.900398 0.767234 0.016114 -0.679879
F4    F     F_    0.836510 0.255917 0.096851 -0.716029
F5    F     F_    0.178914 0.153511 0.675620 -0.596779
F6    F     F_    0.151395 0.803979 0.652973 -0.613812
F7    F     F_    0.678987 0.653540 0.675587 -0.596747
F8    F     F_    0.651422 0.304005 0.652991 -0.613809
Cl1   Cl    Cl    0.362037 0.170623 0.490035 -0.518271
Cl2   Cl    Cl    0.431609 0.836413 0.477719 -0.599829
Cl3   Cl    Cl    0.862011 0.670646 0.490060 -0.518197
Cl4   Cl    Cl    0.931627 0.336380 0.477698 -0.599867
Cl5   Cl    Cl    0.398831 0.288746 0.337571 -0.523127
Cl6   Cl    Cl    0.485352 0.688669 0.370701 -0.541092
Cl7   Cl    Cl    0.898844 0.788723 0.337540 -0.523122
Cl8   Cl    Cl    0.985347 0.188642 0.370659 -0.541041
Cl9   Cl    Cl    0.771457 0.894574 0.515903 -0.588126
Cl10  Cl    Cl    0.863220 0.134859 0.604182 -0.506728
Cl11  Cl    Cl    0.271490 0.394539 0.516071 -0.588055
Cl12  Cl    Cl    0.363217 0.634919 0.604242 -0.506742
Cl13  Cl    Cl    0.295427 0.951940 0.879910 -0.467199
Cl14  Cl    Cl    0.410195 0.094840 0.754873 -0.495246
Cl15  Cl    Cl    0.795426 0.451941 0.879911 -0.467207
Cl16  Cl    Cl    0.910195 0.594841 0.754873 -0.495231
Cl17  Cl    Cl    0.554553 0.712650 0.872612 -0.527540
Cl18  Cl    Cl    0.665472 0.267978 0.813653 -0.528768
Cl19  Cl    Cl    0.054538 0.212654 0.872624 -0.527472
Cl20  Cl    Cl    0.165445 0.767992 0.813656 -0.528737

loop_
_geom_bond_atom_site_label_1
_geom_bond_atom_site_label_2
_ccdc_geom_bond_type
C61   C70   A    
C2    N2    A    
C49   H25   S    
C82   N22   A    
C64   Cl16  S    
C84   N24   A    
C24   H6    S    
N2    N9    A    
C83   Cl19  S    
C4    F4    S    
N6    N13   A    
C39   C51   S    
N18   Ni2   S    
N12   Ni6   S    
C25   C43   S    
C6    C9    A    
C7    H55   S    
C53   C59   D    
C26   C44   S    
C48   H32   S    
C29   C49   S    
C68   C75   A    
C20   H4    S    
N25   Ni5   S    
C28   Cl4   S    
C17   C33   S    
C37   C41   S    
C27   Cl7   S    
C56   H36   S    
N11   Ni6   S    
C26   Cl6   S    
N9    Ni5   S    
C38   C42   S    
C25   Cl5   S    
C42   H10   S    
N26   Ni5   S    
C57   H37   S    
N14   Ni7   S    
C58   C71   S    
C52   H24   S    
C77   N17   A    
N6    Ni1   S    
C13   C81   A    
C16   C84   A    
C66   N14   A    
C45   C73   A    
C64   C71   A    
C68   H44   S    
C48   C76   A    
C88   H52   S    
N32   Ni8   S    
C82   Cl18  S    
C5    H53   S    
C26   C34   S    
N19   Ni3   S    
C20   C24   S    
N8    N15   A    
N20   Ni4   S    
C83   N23   A    
C13   C86   A    
C16   C87   A    
C85   N25   A    
N21   N26   A    
C31   C33   S    
C1    N1    A    
C9    C55   S    
C81   N21   A    
C6    H54   S    
C10   C56   S    
N1    N10   A    
C21   F5    S    
C13   C37   S    
C11   C53   S    
N24   N27   A    
C53   H33   S    
C47   H31   S    
N19   N32   A    
C30   C50   S    
N4    N11   A    
C44   Cl12  S    
C12   C54   S    
C6    N30   A    
N1    Ni1   S    
N17   N30   A    
C29   H17   S    
C77   H45   S    
C79   H47   S    
C50   H22   S    
C46   N6    A    
N8    Ni3   S    
C55   H35   S    
C52   H28   S    
C10   C78   A    
C7    C12   A    
C4    N4    A    
C81   Cl17  S    
C35   C76   S    
C78   N18   A    
C8    N32   A    
C43   Cl11  S    
C18   H2    S    
C41   Cl9   S    
C32   C52   S    
N23   Ni4   S    
C60   H40   S    
C17   H1    S    
N2    Ni2   S    
C31   C51   S    
C86   H50   S    
N7    Ni4   S    
C54   C60   D    
N31   Ni8   S    
C21   H7    S    
C18   H58   S    
C34   C73   S    
C40   C52   S    
C66   C73   A    
C22   H8    S    
C1    C69   A    
C65   C74   A    
C23   H5    S    
C62   C69   A    
N15   Ni8   S    
C86   N26   A    
C32   C34   S    
C17   H57   S    
C17   C21   S    
C63   N11   A    
C36   C75   S    
C61   N9    A    
C65   H41   S    
C14   C38   S    
C37   C49   S    
C27   C41   S    
C24   C38   S    
C21   C39   S    
C22   C40   S    
C64   N12   A    
C25   C33   S    
C62   N10   A    
C62   Cl14  S    
C29   H13   S    
C8    H56   S    
N18   N29   A    
C61   Cl13  S    
N5    Ni2   S    
N28   Ni6   S    
C78   H46   S    
C46   C74   A    
C15   C39   S    
C11   C79   A    
C30   H14   S    
C16   C40   S    
N30   Ni7   S    
C5    N29   A    
C55   C57   D    
N22   Ni1   S    
C41   H9    S    
C46   H30   S    
N4    Ni4   S    
C14   C82   A    
C65   N13   A    
N10   Ni5   S    
C85   H49   S    
C4    C72   A    
C87   N27   A    
C19   C23   S    
C49   H21   S    
C45   H29   S    
N29   Ni7   S    
C51   H23   S    
C18   C22   S    
C31   H19   S    
C19   H3    S    
C67   H43   S    
C2    F2    S    
C14   C85   A    
C87   H51   S    
N16   Ni8   S    
C80   H48   S    
C15   C83   A    
C27   Cl3   S    
N3    Ni3   S    
C3    C71   A    
C38   C50   S    
N7    N16   A    
N20   N31   A    
C32   H16   S    
N23   N28   A    
C29   C35   S    
C3    N3    A    
C88   N28   A    
C30   C36   S    
N5    N14   A    
C7    N31   A    
C27   C35   S    
N3    N12   A    
C58   H38   S    
C19   H59   S    
C9    C77   A    
C68   N16   A    
N17   Ni1   S    
C5    C10   A    
N13   Ni7   S    
C23   C37   S    
C43   H11   S    
N27   Ni6   S    
C44   H12   S    
N24   Ni3   S    
C20   H60   S    
C28   Cl8   S    
C47   N7    A    
C60   C69   S    
C18   C34   S    
C8    C11   A    
C12   C80   A    
C28   C42   S    
C56   C58   D    
C42   Cl10  S    
C57   C72   S    
C54   H34   S    
C3    F3    S    
C26   Cl2   S    
C63   Cl15  S    
N21   Ni2   S    
C25   Cl1   S    
C51   H27   S    
C59   C70   S    
C47   C75   A    
C20   C36   S    
C67   N15   A    
C33   C74   S    
C40   C44   S    
C45   N5    A    
C63   C72   A    
C28   C36   S    
C32   H20   S    
C39   C43   S    
C23   F7    S    
C50   H26   S    
C48   N8    A    
C24   F8    S    
C22   F6    S    
C19   C35   S    
C67   C76   A    
C79   N19   A    
C2    C70   A    
C59   H39   S    
C80   N20   A    
C30   H18   S    
C84   Cl20  S    
C31   H15   S    
C15   C88   A    
C66   H42   S    
N22   N25   A    
C1    F1    S    
