data_mof_unit_20119.cif
_audit_creation_date              2012-12-10T18:43:43-0500
_audit_creation_method            fapswitch 2.2
_symmetry_space_group_name_H-M    P1
_symmetry_Int_Tables_number       1
_space_group_crystal_system       triclinic
_cell_length_a                    10.836865
_cell_length_b                    10.759764
_cell_length_c                    9.927828
_cell_angle_alpha                 90.723162
_cell_angle_beta                  105.144719
_cell_angle_gamma                 92.795421
_cell_volume                      1115.68499161

loop_
_atom_site_label
_atom_site_type_symbol
_atom_type_description
_atom_site_fract_x
_atom_site_fract_y
_atom_site_fract_z
_atom_type_partial_charge
C1    C     C_R   0.507243 0.260699 0.501017 0.981345
C2    C     C_R   0.501345 0.740064 0.500983 0.994139
C3    C     C_R   0.258750 0.497817 0.440724 0.771920
C4    C     C_R   0.740655 0.495934 0.558985 0.740362
C5    C     C_R   0.577249 0.584386 0.098763 0.406461
C6    C     C_R   0.410042 0.428259 0.901145 0.379267
C7    C     C_R   0.580752 0.583415 0.954819 0.304840
C8    C     C_R   0.405647 0.434089 0.044325 0.352605
C9    C     C_2   0.120728 0.487411 0.406266 0.426005
C10   C     C_2   0.877312 0.486432 0.592745 0.448313
C11   C     C_2   0.065909 0.471417 0.511115 -0.238862
C12   C     C_2   0.930043 0.465946 0.487517 -0.253914
C13   C     C_R   0.491808 0.061287 0.375163 0.462056
C14   C     C_R   0.548482 0.940610 0.629417 0.514566
C15   C     C_R   0.481844 0.934275 0.375070 0.542605
C16   C     C_R   0.555962 0.068374 0.628917 0.481469
C17   C     C_R   0.508228 0.873113 0.502427 -0.559062
C18   C     C_R   0.519500 0.128862 0.501787 -0.508327
H1    H     H_    0.872537 0.451431 0.380477 0.202439
H2    H     H_    0.122084 0.467557 0.618687 0.265964
N1    N     N_R   0.499970 0.499970 0.857200 -0.189493
N2    N     N_R   0.500030 0.500030 0.142800 -0.190641
O1    O     O_R   0.499990 0.316750 0.614620 -0.577780
O2    O     O_R   0.500010 0.683250 0.385380 -0.496785
O3    O     O_R   0.499990 0.316780 0.385290 -0.596827
O4    O     O_R   0.500010 0.683220 0.614710 -0.547925
O5    O     O_R   0.317810 0.500000 0.571850 -0.605974
O6    O     O_R   0.682190 0.500000 0.428150 -0.651976
O7    O     O_R   0.317810 0.500030 0.342520 -0.542936
O8    O     O_R   0.682190 0.499970 0.657480 -0.628747
Zn1   Zn    Zn3+2 0.500000 0.499980 0.653120 1.036758
Zn2   Zn    Zn3+2 0.500000 0.500020 0.346880 1.056380
O9    O     O_3   0.616770 0.689685 0.184392 -0.489845
C19   C     C_3   0.749906 0.714772 0.219335 0.186469
H3    H     H_    0.770087 0.784428 0.146861 0.205514
H4    H     H_    0.804838 0.629880 0.218755 0.127380
C20   C     C_3   0.793838 0.779508 0.362569 -0.783981
H5    H     H_    0.768278 0.722085 0.443669 0.234807
H6    H     H_    0.899376 0.797335 0.390898 0.211849
H7    H     H_    0.748167 0.869896 0.360786 0.257937
O10   O     O_3   0.305669 0.375343 0.801545 -0.564410
C21   C     C_3   0.317821 0.246066 0.785775 0.158658
H8    H     H_    0.281835 0.193816 0.863316 0.139391
H9    H     H_    0.418011 0.221487 0.797157 0.213454
C22   C     C_3   0.234413 0.199504 0.644007 -0.802406
H10   H     H_    0.260175 0.250593 0.558287 0.233219
H11   H     H_    0.247189 0.098853 0.629596 0.213259
H12   H     H_    0.132092 0.212695 0.637937 0.255084
F1    F     F_    0.948839 0.502703 0.727278 -0.653844
F2    F     F_    0.050692 0.494582 0.271311 -0.666603
O11   O     O_3   0.640469 0.687874 0.912623 -0.523405
C23   C     C_3   0.754448 0.660770 0.876109 0.230262
H13   H     H_    0.739111 0.685184 0.765395 0.211611
H14   H     H_    0.782575 0.562858 0.895415 0.169364
C24   C     C_3   0.869157 0.747471 0.947817 -0.833646
H15   H     H_    0.917850 0.713357 0.052158 0.244563
H16   H     H_    0.940973 0.748377 0.885742 0.262238
H17   H     H_    0.839661 0.844251 0.954981 0.287764
O12   O     O_3   0.287670 0.412229 0.072084 -0.527276
C25   C     C_3   0.270652 0.289051 0.113248 0.197787
H18   H     H_    0.288783 0.286984 0.227988 0.186479
H19   H     H_    0.334234 0.223557 0.081743 0.167715
C26   C     C_3   0.131620 0.243418 0.052364 -0.747736
H20   H     H_    0.118438 0.144438 0.078429 0.209800
H21   H     H_    0.067866 0.299765 0.096796 0.298984
H22   H     H_    0.103753 0.251919 0.937192 0.275938
F3    F     F_    0.475259 0.116722 0.250752 -0.642544
F4    F     F_    0.581879 0.884263 0.753927 -0.561263
F5    F     F_    0.444606 0.872367 0.249619 -0.544666
F6    F     F_    0.602919 0.132118 0.752078 -0.616144

loop_
_geom_bond_atom_site_label_1
_geom_bond_atom_site_label_2
_ccdc_geom_bond_type
C2    O4    A    
C8    N2    A    
C11   C12   S    
C26   H21   S    
C15   C17   A    
C20   H5    S    
C3    C9    S    
C8    O12   S    
C20   H7    S    
C19   C20   S    
N1    Zn1   S    
O10   C21   S    
C23   C24   S    
O6    Zn2   S    
C24   H15   S    
C4    O8    A    
O3    Zn2   S    
O2    Zn2   S    
O9    C19   S    
C26   H22   S    
C7    O11   S    
O12   C25   S    
C20   H6    S    
C16   C18   A    
C22   H10   S    
C6    N1    A    
C2    C17   S    
C1    O3    A    
C9    C11   D    
C14   C17   A    
C1    C18   S    
N2    Zn2   S    
C13   C18   A    
C25   C26   S    
C10   C12   D    
C12   H1    S    
C3    O5    A    
C4    O6    A    
C23   H14   S    
C1    O1    A    
O7    Zn2   S    
C19   H4    S    
C24   H16   S    
C13   C15   A    
C2    O2    A    
O8    Zn1   S    
C15   F5    S    
C14   C16   A    
C11   H2    S    
C24   H17   S    
C21   H8    S    
C9    F2    S    
O5    Zn1   S    
C26   H20   S    
O4    Zn1   S    
C16   F6    S    
C23   H13   S    
C25   H19   S    
C19   H3    S    
C13   F3    S    
C22   H11   S    
C3    O7    A    
C14   F4    S    
C5    C7    A    
C6    C8    A    
C22   H12   S    
C7    N1    A    
C10   F1    S    
C4    C10   S    
C21   C22   S    
C21   H9    S    
C5    N2    A    
O11   C23   S    
O1    Zn1   S    
C25   H18   S    
C6    O10   S    
C5    O9    S    
