data_mof_unit_21292.cif
_audit_creation_date              2012-10-26T19:15:26-0400
_audit_creation_method            fapswitch 2.2
_symmetry_space_group_name_H-M    P1
_symmetry_Int_Tables_number       1
_space_group_crystal_system       triclinic
_cell_length_a                    15.976873
_cell_length_b                    10.854826
_cell_length_c                    9.60335
_cell_angle_alpha                 89.363418
_cell_angle_beta                  90.597387
_cell_angle_gamma                 90.981181
_cell_volume                      1665.0380208

loop_
_atom_site_label
_atom_site_type_symbol
_atom_type_description
_atom_site_fract_x
_atom_site_fract_y
_atom_site_fract_z
_atom_type_partial_charge
C1    C     C_R   0.500308 0.262388 0.500747 0.546184
C2    C     C_R   0.508500 0.937337 0.373164 -0.157291
C3    C     C_R   0.496055 0.869965 0.496930 0.011885
C4    C     C_R   0.341452 0.499783 0.499340 0.551279
C5    C     C_R   0.476097 0.932964 0.616989 -0.008476
C6    C     C_3   0.508683 0.920619 0.762312 -0.260617
C7    C     C_3   0.506927 0.061626 0.767821 0.028584
C8    C     C_R   0.555157 0.573628 0.073319 0.162516
C9    C     C_R   0.437880 0.440820 0.071975 0.109854
C10   C     C_R   0.437135 0.445570 0.923648 0.037118
C11   C     C_R   0.556319 0.570704 0.926619 0.135866
C12   C     C_R   0.043940 0.515544 0.627344 0.018987
C13   C     C_3   0.649300 0.565409 0.921502 -0.229954
C14   C     C_3   0.648999 0.573080 0.080054 -0.124892
C15   C     C_R   0.500299 0.737232 0.499201 0.546849
C16   C     C_R   0.658515 0.500412 0.500632 0.546181
C17   C     C_R   0.956177 0.515520 0.623455 -0.071525
C18   C     C_R   0.912405 0.502612 0.497374 -0.026378
C19   C     C_R   0.955866 0.489720 0.371388 0.024612
C20   C     C_R   0.043650 0.489498 0.375295 -0.063933
C21   C     C_R   0.087443 0.502065 0.501463 -0.028744
C22   C     C_2   0.089131 0.529562 0.762550 0.253415
C23   C     C_1   0.822669 0.502128 0.500402 -0.080267
C24   C     C_2   0.593231 0.120981 0.781936 0.256526
C25   C     C_2   0.371278 0.365409 0.139050 0.231619
C26   C     C_3   0.688864 0.691941 0.141530 -0.275411
C27   C     C_3   0.657678 0.813634 0.078346 -0.429679
C28   C     C_2   0.910570 0.476482 0.236143 0.236309
C29   C     C_3   0.438839 0.109333 0.865527 -0.216677
C30   C     C_3   0.460594 0.090599 0.019142 -0.425075
C31   C     C_1   0.177217 0.500966 0.498822 -0.062760
C32   C     C_1   0.252310 0.500250 0.498136 -0.004191
C33   C     C_1   0.747602 0.501374 0.501564 -0.038018
C34   C     C_R   0.475911 0.059675 0.619321 -0.003306
C35   C     C_R   0.497160 0.128627 0.500416 -0.004003
C36   C     C_R   0.510126 0.065726 0.375560 -0.164485
Cu1   Cu    Cu3+1 0.500000 0.499980 0.640670 0.971117
Cu2   Cu    Cu3+1 0.500000 0.500020 0.359330 0.936138
H1    H     H_    0.387150 0.400927 0.865534 0.151063
H2    H     H_    0.572390 0.880767 0.766398 0.109681
H3    H     H_    0.156962 0.528078 0.767447 0.124494
H4    H     H_    0.646076 0.080372 0.730367 0.096546
H5    H     H_    0.381014 0.320647 0.238223 0.162478
H6    H     H_    0.682891 0.829189 0.972360 0.145048
H7    H     H_    0.588346 0.815375 0.073557 0.142687
H8    H     H_    0.679873 0.891351 0.144084 0.148259
H9    H     H_    0.676519 0.692964 0.255002 0.174706
H10   H     H_    0.757833 0.688409 0.129040 0.155197
H11   H     H_    0.842739 0.478385 0.231325 0.099300
H12   H     H_    0.671133 0.474919 0.884283 0.180792
H13   H     H_    0.478178 0.993817 0.041101 0.134292
H14   H     H_    0.513008 0.153257 0.049343 0.186635
H15   H     H_    0.405525 0.112132 0.083409 0.151876
H16   H     H_    0.429488 0.208093 0.844097 0.176403
H17   H     H_    0.378025 0.061407 0.843798 0.145231
H18   H     H_    0.677412 0.645667 0.865687 0.129478
H19   H     H_    0.673406 0.487981 0.130353 0.156121
H20   H     H_    0.921403 0.525356 0.718980 0.176520
H21   H     H_    0.078405 0.479544 0.279777 0.193341
H22   H     H_    0.525702 0.115662 0.281528 0.134444
H23   H     H_    0.521146 0.891484 0.276477 0.131769
H24   H     H_    0.462611 0.872028 0.830385 0.144031
N1    N     N_R   0.500520 0.500930 0.147930 -0.266566
N2    N     N_R   0.500520 0.500890 0.852020 -0.241000
O1    O     O_R   0.500000 0.319640 0.618810 -0.470485
O2    O     O_2   0.604421 0.215829 0.847221 -0.512913
O3    O     O_2   0.303609 0.349366 0.081090 -0.531098
O4    O     O_2   0.948562 0.463163 0.127822 -0.451683
O5    O     O_R   0.500010 0.319680 0.381230 -0.540746
O6    O     O_R   0.380300 0.499950 0.618760 -0.510949
O7    O     O_R   0.380310 0.499990 0.381180 -0.502373
O8    O     O_R   0.499990 0.680320 0.618770 -0.501653
O9    O     O_R   0.500000 0.680360 0.381190 -0.503744
O10   O     O_R   0.619690 0.500010 0.618820 -0.484586
O11   O     O_R   0.619700 0.500050 0.381240 -0.514859
O12   O     O_2   0.051054 0.543207 0.870734 -0.447099

loop_
_geom_bond_atom_site_label_1
_geom_bond_atom_site_label_2
_ccdc_geom_bond_type
C30   H13   S    
C7    C29   S    
C16   O11   A    
C24   H4    S    
C35   C36   A    
C25   O3    D    
C22   O12   D    
Cu1   O10   S    
C25   H5    S    
C4    O6    A    
C9    C25   S    
C15   O8    A    
C21   C31   S    
C26   C27   S    
C29   C30   S    
C16   O10   A    
C28   O4    D    
C18   C19   A    
C5    C6    S    
C22   H3    S    
C29   H16   S    
C7    C24   S    
C12   C22   S    
C34   C35   A    
C27   H6    S    
C19   C20   A    
C23   C33   T    
Cu1   O1    S    
C12   C17   A    
C1    O1    A    
C9    C10   A    
C2    H23   S    
C26   H10   S    
C17   H20   S    
C13   H18   S    
C27   H7    S    
Cu2   O5    S    
Cu1   O6    S    
Cu2   O11   S    
C30   H15   S    
C18   C23   S    
C11   N2    A    
C29   H17   S    
C3    C5    A    
C12   C21   A    
C1    O5    A    
C10   H1    S    
Cu1   Cu2   S    
C16   C33   S    
C28   H11   S    
C31   C32   T    
C5    C34   A    
C17   C18   A    
C14   C26   S    
C20   H21   S    
C19   C28   S    
C4    C32   S    
C26   H9    S    
C27   H8    S    
C15   O9    A    
C7    C34   S    
C6    H2    S    
Cu1   N2    S    
C3    C15   S    
C1    C35   S    
Cu2   N1    S    
C2    C36   A    
C14   H19   S    
C30   H14   S    
Cu2   O7    S    
C8    C14   S    
C9    N1    A    
C10   N2    A    
C36   H22   S    
C6    C7    S    
C24   O2    D    
C6    H24   S    
C2    C3    A    
C11   C13   S    
C8    C11   A    
C8    N1    A    
C13   H12   S    
C20   C21   A    
Cu1   O8    S    
C13   C14   S    
C4    O7    A    
Cu2   O9    S    
