data_mof_unit_19681.cif
_audit_creation_date              2012-12-11T16:48:30-0500
_audit_creation_method            fapswitch 2.2
_symmetry_space_group_name_H-M    P1
_symmetry_Int_Tables_number       1
_space_group_crystal_system       triclinic
_cell_length_a                    17.380017
_cell_length_b                    24.341213
_cell_length_c                    15.093194
_cell_angle_alpha                 90.096574
_cell_angle_beta                  125.771424
_cell_angle_gamma                 89.297943
_cell_volume                      5180.14876981

loop_
_atom_site_label
_atom_site_type_symbol
_atom_type_description
_atom_site_fract_x
_atom_site_fract_y
_atom_site_fract_z
_atom_type_partial_charge
Br1   Br    Br    0.545604 0.735715 0.331235 -0.536975
Br2   Br    Br    0.738249 0.381892 0.353579 -0.585793
Br3   Br    Br    0.689517 0.887060 0.649803 -0.579172
Br4   Br    Br    0.238249 0.881892 0.353579 -0.585793
Br5   Br    Br    0.551214 0.753432 0.925999 -0.564895
Br6   Br    Br    0.045604 0.235715 0.331235 -0.536975
Br7   Br    Br    0.051214 0.253432 0.925999 -0.564895
Br8   Br    Br    0.514605 0.385403 0.333683 -0.526015
Br9   Br    Br    0.401670 0.383831 0.634712 -0.512441
Br10  Br    Br    0.014605 0.885403 0.333683 -0.526015
Br11  Br    Br    0.901670 0.883831 0.634712 -0.512441
Br12  Br    Br    0.189517 0.387060 0.649803 -0.579172
C1    C     C_R   0.354517 0.348007 0.909792 -0.098788
C2    C     C_R   0.434166 0.500971 0.636299 -0.001437
C3    C     C_R   0.101022 0.876450 0.910797 -0.096237
C4    C     C_R   0.380769 0.317327 0.998803 0.001059
C5    C     C_R   0.692092 0.365569 0.003931 0.020103
C6    C     C_R   0.880769 0.817327 0.998803 0.001059
C7    C     C_R   0.192092 0.865569 0.003931 0.020103
C8    C     C_3   0.941687 0.344649 0.304495 -0.722778
C9    C     C_3   0.167485 0.344214 0.913248 -0.816994
C10   C     C_3   0.441687 0.844649 0.304495 -0.722778
C11   C     C_3   0.667485 0.844214 0.913248 -0.816994
C12   C     C_3   0.348197 0.700955 0.207841 -1.047344
C13   C     C_R   0.966076 0.002110 0.290197 -0.056575
C14   C     C_3   0.531409 0.726798 0.725945 -0.999030
C15   C     C_3   0.848197 0.200955 0.207841 -1.047345
C16   C     C_3   0.031409 0.226798 0.725945 -0.999030
C17   C     C_3   0.236662 0.569714 0.211199 -0.971903
C18   C     C_3   0.207956 0.463156 0.373099 -0.813937
C19   C     C_3   0.736662 0.069714 0.211199 -0.971904
C20   C     C_3   0.707956 0.963156 0.373099 -0.813938
C21   C     C_R   0.934166 0.000971 0.636299 -0.001437
C22   C     C_R   0.173682 0.501877 0.695668 0.043396
C23   C     C_R   0.794363 0.498228 0.370216 0.063271
C24   C     C_R   0.673682 0.001877 0.695668 0.043396
C25   C     C_R   0.294363 0.998228 0.370216 0.063271
C26   C     C_2   0.923096 0.457470 0.543653 -0.063696
C27   C     C_2   0.021778 0.465171 0.634272 -0.115772
C28   C     C_2   0.423096 0.957470 0.543653 -0.063696
C29   C     C_R   0.691595 0.379804 0.092020 -0.115494
C30   C     C_2   0.521778 0.965171 0.634272 -0.115772
C31   C     C_2   0.867139 0.500681 0.487648 -0.163469
C32   C     C_2   0.071448 0.504186 0.626960 -0.146156
C33   C     C_2   0.367139 0.000681 0.487648 -0.163469
C34   C     C_2   0.571448 0.004186 0.626960 -0.146156
C35   C     C_R   0.388770 0.766136 0.106777 0.046896
C36   C     C_R   0.698557 0.712775 0.902478 -0.020335
C37   C     C_R   0.888770 0.266136 0.106777 0.046896
C38   C     C_R   0.198557 0.212775 0.902478 -0.020335
C39   C     C_R   0.357551 0.740505 0.007366 0.053090
C40   C     C_R   0.854517 0.848007 0.909792 -0.098788
C41   C     C_R   0.742460 0.676212 0.991388 0.080662
C42   C     C_R   0.857551 0.240505 0.007366 0.053090
C43   C     C_R   0.242460 0.176212 0.991388 0.080662
C44   C     C_R   0.300241 0.771975 0.911107 -0.114674
C45   C     C_R   0.839965 0.680316 0.074381 -0.175864
C46   C     C_R   0.800241 0.271975 0.911107 -0.114674
C47   C     C_R   0.339965 0.180316 0.074381 -0.175864
C48   C     C_R   0.756709 0.320537 0.912068 -0.172379
C49   C     C_R   0.389896 0.224957 0.074528 -0.163606
C50   C     C_R   0.256709 0.820537 0.912068 -0.172379
C51   C     C_R   0.191595 0.879804 0.092020 -0.115494
C52   C     C_R   0.889896 0.724957 0.074528 -0.163606
C53   C     C_R   0.770305 0.337781 0.009368 0.044196
C54   C     C_R   0.341396 0.264954 0.991871 0.100212
C55   C     C_R   0.270305 0.837781 0.009368 0.044196
C56   C     C_R   0.841396 0.764954 0.991871 0.100212
C57   C     C_R   0.441673 0.650554 0.090627 -0.129646
C58   C     C_R   0.599032 0.621427 0.909495 -0.073008
C59   C     C_R   0.941674 0.150554 0.090627 -0.129646
C60   C     C_R   0.099032 0.121427 0.909495 -0.073008
C61   C     C_R   0.849078 0.315546 0.107747 0.040505
C62   C     C_R   0.377188 0.682371 0.001902 0.090863
C63   C     C_R   0.247423 0.256690 0.904380 0.021315
C64   C     C_R   0.349078 0.815546 0.107747 0.040505
C65   C     C_R   0.747423 0.756690 0.904380 0.021315
C66   C     C_3   0.870136 0.303804 0.217790 -0.128280
C67   C     C_3   0.162070 0.294567 0.846633 -0.076183
C68   C     C_3   0.370135 0.803804 0.217790 -0.128281
C69   C     C_3   0.662070 0.794567 0.846633 -0.076183
C70   C     C_3   0.410329 0.747880 0.215173 0.509285
C71   C     C_3   0.605956 0.745483 0.843610 0.529533
C72   C     C_3   0.910330 0.247880 0.215173 0.509286
C73   C     C_R   0.684319 0.638565 0.999725 0.048809
C74   C     C_3   0.105956 0.245483 0.843610 0.529533
C75   C     C_R   0.362031 0.509219 0.441895 0.086352
C76   C     C_R   0.370283 0.510674 0.358900 0.077006
C77   C     C_R   0.862031 0.009220 0.441895 0.086352
C78   C     C_R   0.870283 0.010674 0.358901 0.077007
C79   C     C_R   0.440693 0.502103 0.548113 0.077881
C80   C     C_R   0.457558 0.504903 0.377020 0.078491
C81   C     C_R   0.940693 0.002103 0.548113 0.077881
C82   C     C_R   0.957558 0.004903 0.377020 0.078491
C83   C     C_R   0.531066 0.497992 0.570245 -0.179461
C84   C     C_R   0.877188 0.182371 0.001902 0.090863
C85   C     C_R   0.539592 0.499585 0.484312 -0.103029
C86   C     C_R   0.031066 0.997992 0.570245 -0.179461
C87   C     C_R   0.039592 0.999585 0.484312 -0.103029
C88   C     C_3   0.265908 0.515079 0.273389 0.030277
C89   C     C_3   0.256439 0.514246 0.369482 -0.052930
C90   C     C_3   0.765908 0.015079 0.273389 0.030276
C91   C     C_3   0.756439 0.014246 0.369482 -0.052929
C92   C     C_R   0.492820 0.455013 0.262994 0.355218
C93   C     C_R   0.449575 0.454770 0.696356 0.313857
C94   C     C_R   0.992820 0.955013 0.262994 0.355218
C95   C     C_R   0.184319 0.138565 0.999725 0.048809
C96   C     C_R   0.949575 0.954770 0.696356 0.313857
C97   C     C_R   0.231291 0.546970 0.734924 -0.192848
C98   C     C_R   0.751407 0.544150 0.304963 -0.212534
C99   C     C_R   0.731291 0.046970 0.734924 -0.192848
C100  C     C_R   0.251406 0.044150 0.304963 -0.212534
C101  C     C_R   0.488684 0.547071 0.256039 -0.185999
C102  C     C_R   0.451808 0.545913 0.698929 -0.226983
C103  C     C_R   0.988684 0.047071 0.256039 -0.185999
C104  C     C_R   0.951808 0.045913 0.698929 -0.226983
C105  C     C_R   0.230484 0.454900 0.728083 0.316776
C106  C     C_R   0.466076 0.502110 0.290197 -0.056574
C107  C     C_R   0.747577 0.452941 0.305495 0.278970
C108  C     C_R   0.730484 0.954900 0.728083 0.316776
C109  C     C_R   0.247577 0.952941 0.305495 0.278970
C110  C     C_R   0.348381 0.651423 0.909664 -0.095265
C111  C     C_R   0.688805 0.625962 0.092416 -0.059298
C112  C     C_R   0.848381 0.151423 0.909664 -0.095265
C113  C     C_R   0.188805 0.125962 0.092416 -0.059298
C114  C     C_R   0.443928 0.346914 0.090202 -0.052064
C115  C     C_R   0.601022 0.376450 0.910797 -0.096237
C116  C     C_R   0.943929 0.846914 0.090202 -0.052064
H1    H     H_    0.321181 0.332259 0.828700 0.182230
H2    H     H_    0.875442 0.651424 0.142033 0.128556
H3    H     H_    0.780068 0.256553 0.833125 0.139280
H4    H     H_    0.375441 0.151424 0.142033 0.128556
H5    H     H_    0.703431 0.339746 0.834552 0.142956
H6    H     H_    0.463564 0.230094 0.142132 0.139574
H7    H     H_    0.203431 0.839746 0.834552 0.142956
H8    H     H_    0.963564 0.730094 0.142132 0.139574
H9    H     H_    0.806384 0.299362 0.217328 0.179035
H10   H     H_    0.142699 0.307023 0.765019 0.190408
H11   H     H_    0.306384 0.799361 0.217328 0.179035
H12   H     H_    0.751115 0.382256 0.175317 0.138902
H13   H     H_    0.642699 0.807023 0.765019 0.190408
H14   H     H_    0.594147 0.493258 0.653186 0.137268
H15   H     H_    0.609072 0.495502 0.500853 0.157423
H16   H     H_    0.094147 0.993257 0.653186 0.137268
H17   H     H_    0.109072 0.995502 0.500853 0.157423
H18   H     H_    0.237450 0.478417 0.219641 0.167988
H19   H     H_    0.230479 0.553332 0.382382 0.161566
H20   H     H_    0.737450 0.978417 0.219641 0.167988
H21   H     H_    0.730479 0.053332 0.382382 0.161566
H22   H     H_    0.492152 0.664181 0.172427 0.164220
H23   H     H_    0.821181 0.832259 0.828700 0.182230
H24   H     H_    0.575259 0.623557 0.825922 0.108688
H25   H     H_    0.992152 0.164181 0.172427 0.164220
H26   H     H_    0.075259 0.123557 0.825922 0.108688
H27   H     H_    0.210015 0.589791 0.720663 0.127339
H28   H     H_    0.760794 0.586016 0.333476 0.139588
H29   H     H_    0.710014 0.089791 0.720663 0.127339
H30   H     H_    0.260794 0.086016 0.333476 0.139588
H31   H     H_    0.487161 0.589615 0.275201 0.152169
H32   H     H_    0.439790 0.588435 0.672811 0.131711
H33   H     H_    0.987161 0.089615 0.275201 0.152169
H34   H     H_    0.251115 0.882256 0.175317 0.138902
H35   H     H_    0.939790 0.088435 0.672811 0.131711
H36   H     H_    0.309774 0.666360 0.826579 0.100130
H37   H     H_    0.745240 0.634766 0.176553 0.107500
H38   H     H_    0.809774 0.166360 0.826579 0.100130
H39   H     H_    0.245240 0.134766 0.176553 0.107500
H40   H     H_    0.491852 0.329634 0.170616 0.174632
H41   H     H_    0.577201 0.371693 0.827635 0.145293
H42   H     H_    0.991852 0.829634 0.170616 0.174632
H43   H     H_    0.077201 0.871693 0.827635 0.145293
H44   H     H_    0.906525 0.416372 0.511705 0.192426
H45   H     H_    0.887328 0.541334 0.523778 0.138876
H46   H     H_    0.057658 0.432480 0.694795 0.161647
H47   H     H_    0.406525 0.916372 0.511705 0.192426
H48   H     H_    0.557658 0.932480 0.694795 0.161647
H49   H     H_    0.003182 0.350219 0.300901 0.273476
H50   H     H_    0.908119 0.385622 0.291827 0.210037
H51   H     H_    0.967253 0.329761 0.387090 0.284932
H52   H     H_    0.202861 0.333119 0.000474 0.278971
H53   H     H_    0.206841 0.378074 0.908279 0.232519
H54   H     H_    0.094891 0.360255 0.878163 0.266478
H55   H     H_    0.503182 0.850219 0.300901 0.273476
H56   H     H_    0.037439 0.536631 0.565720 0.137223
H57   H     H_    0.408119 0.885622 0.291827 0.210037
H58   H     H_    0.467253 0.829761 0.387090 0.284932
H59   H     H_    0.702862 0.833119 0.000474 0.278971
H60   H     H_    0.706841 0.878074 0.908279 0.232519
H61   H     H_    0.594891 0.860255 0.878163 0.266478
H62   H     H_    0.375812 0.660285 0.206013 0.259553
H63   H     H_    0.347568 0.701641 0.280993 0.277174
H64   H     H_    0.273983 0.705431 0.133813 0.247052
H65   H     H_    0.484298 0.762081 0.676691 0.278851
H66   H     H_    0.565325 0.710885 0.687216 0.247340
H67   H     H_    0.387328 0.041334 0.523778 0.138876
H68   H     H_    0.485704 0.694652 0.723589 0.257040
H69   H     H_    0.875812 0.160285 0.206013 0.259554
H70   H     H_    0.847568 0.201641 0.280993 0.277174
H71   H     H_    0.773983 0.205431 0.133813 0.247052
H72   H     H_    0.984298 0.262081 0.676691 0.278851
H73   H     H_    0.065325 0.210885 0.687216 0.247340
H74   H     H_    0.985704 0.194652 0.723589 0.257040
H75   H     H_    0.268954 0.604975 0.268132 0.261375
H76   H     H_    0.259932 0.570209 0.156576 0.261291
H77   H     H_    0.158298 0.574420 0.160703 0.262479
H78   H     H_    0.537439 0.036631 0.565720 0.137223
H79   H     H_    0.239072 0.424948 0.365061 0.277181
H80   H     H_    0.216231 0.461721 0.451810 0.277417
H81   H     H_    0.131162 0.465134 0.305382 0.236808
H82   H     H_    0.768954 0.104976 0.268133 0.261376
H83   H     H_    0.759932 0.070209 0.156576 0.261291
H84   H     H_    0.658298 0.074420 0.160703 0.262479
H85   H     H_    0.739072 0.924949 0.365061 0.277181
H86   H     H_    0.716232 0.961721 0.451810 0.277417
H87   H     H_    0.631162 0.965134 0.305382 0.236808
H88   H     H_    0.280068 0.756553 0.833125 0.139280
N1    N     N_R   0.395410 0.396350 0.944340 -0.056508
N2    N     N_R   0.474920 0.471030 0.794350 -0.080714
N3    N     N_R   0.025080 0.971030 0.205650 -0.067402
N4    N     N_R   0.974920 0.971030 0.794350 -0.080714
N5    N     N_R   0.320260 0.527820 0.794570 -0.059484
N6    N     N_R   0.679740 0.527820 0.205430 -0.062606
N7    N     N_R   0.820260 0.027820 0.794570 -0.059484
N8    N     N_R   0.179740 0.027820 0.205430 -0.062606
N9    N     N_R   0.524590 0.527840 0.205200 -0.058117
N10   N     N_R   0.475410 0.527840 0.794800 -0.061515
N11   N     N_R   0.024590 0.027840 0.205200 -0.058117
N12   N     N_R   0.604590 0.396350 0.055660 -0.037273
N13   N     N_R   0.975410 0.027840 0.794800 -0.061515
N14   N     N_R   0.320750 0.471000 0.795020 -0.070641
N15   N     N_R   0.679250 0.471000 0.204980 -0.076836
N16   N     N_R   0.820750 0.971000 0.795020 -0.070641
N17   N     N_R   0.179250 0.971000 0.204980 -0.076836
N18   N     N_R   0.393620 0.602490 0.942710 -0.044641
N19   N     N_R   0.606380 0.602490 0.057290 -0.039259
N20   N     N_R   0.893620 0.102490 0.942710 -0.044641
N21   N     N_R   0.106380 0.102490 0.057290 -0.039259
N22   N     N_R   0.451720 0.396350 0.057510 -0.053721
N23   N     N_R   0.895410 0.896350 0.944340 -0.056508
N24   N     N_R   0.548280 0.396350 0.942490 -0.039621
N25   N     N_R   0.951720 0.896350 0.057510 -0.053721
N26   N     N_R   0.048280 0.896350 0.942490 -0.039621
N27   N     N_R   0.104590 0.896350 0.055660 -0.037273
N28   N     N_R   0.449930 0.602500 0.055880 -0.047767
N29   N     N_R   0.550070 0.602500 0.944120 -0.034447
N30   N     N_R   0.949930 0.102500 0.055880 -0.047767
N31   N     N_R   0.050070 0.102500 0.944120 -0.034447
N32   N     N_R   0.525080 0.471030 0.205650 -0.067402
Ni1   Ni    Ni4+2 0.435420 0.434270 0.870230 0.271349
Ni2   Ni    Ni4+2 0.564580 0.434270 0.129770 0.272177
Ni3   Ni    Ni4+2 0.935420 0.934270 0.870230 0.271349
Ni4   Ni    Ni4+2 0.064580 0.934270 0.129770 0.272177
Ni5   Ni    Ni4+2 0.563430 0.564580 0.128740 0.231931
Ni6   Ni    Ni4+2 0.436570 0.564580 0.871260 0.219754
Ni7   Ni    Ni4+2 0.063430 0.064580 0.128740 0.231931
Ni8   Ni    Ni4+2 0.936570 0.064580 0.871260 0.219754

loop_
_geom_bond_atom_site_label_1
_geom_bond_atom_site_label_2
_ccdc_geom_bond_type
C58   C73   A    
C33   H67   S    
C51   H34   S    
C75   C76   A    
C52   H8    S    
C116  H42   S    
C14   C71   S    
C17   H75   S    
C43   C47   A    
C104  N13   A    
C104  H35   S    
C23   C107  A    
C15   H69   S    
C39   C62   S    
C37   C61   A    
C14   H68   S    
C108  N16   A    
C18   H81   S    
C12   H62   S    
C110  H36   S    
C3    C7    A    
C115  N24   A    
N25   Ni4   S    
C16   H72   S    
C63   C67   S    
C100  H30   S    
C50   C55   A    
C88   C89   S    
C1    N1    A    
C16   H73   S    
C52   C56   A    
C37   C72   S    
C90   H20   S    
C15   C72   S    
C113  H39   S    
C35   C64   A    
N12   N24   A    
C75   C79   A    
C13   C103  A    
C42   C46   A    
C26   C27   S    
Br5   C71   S    
Br7   C74   S    
N30   Ni7   S    
C18   H79   S    
Br9   C93   S    
C37   C42   A    
C59   H25   S    
C105  N14   A    
C17   H77   S    
C80   C85   A    
N21   N31   A    
C39   C44   A    
C30   C34   D    
C35   C70   S    
C12   C70   S    
C85   H15   S    
C29   H12   S    
C80   C106  S    
C40   N23   A    
C6    C116  A    
C75   C89   S    
C20   H87   S    
C13   C82   S    
C49   C54   A    
C9    H52   S    
C78   C90   S    
C19   H84   S    
C76   C80   A    
C88   H18   S    
C25   C100  A    
N5    N14   A    
C49   H6    S    
C61   C66   S    
C7    C55   S    
N14   Ni1   S    
C23   C31   S    
C32   H56   S    
C92   C106  A    
C107  N15   A    
C20   H86   S    
N31   Ni8   S    
C22   C105  A    
C69   H13   S    
C94   N3    A    
C87   H17   S    
C3    N26   A    
C51   N27   A    
N24   Ni1   S    
C17   H76   S    
N22   Ni2   S    
C44   H88   S    
C116  N25   A    
C100  N8    A    
C9    H54   S    
C15   H70   S    
N1    Ni1   S    
C24   C99   A    
C27   H46   S    
C97   H27   S    
N7    Ni8   S    
C103  H33   S    
C69   C71   S    
N32   Ni2   S    
C13   C94   A    
C78   C82   A    
C8    H51   S    
N12   Ni2   S    
C2    C93   A    
C28   C33   D    
C47   H4    S    
C47   C49   A    
C60   H26   S    
C84   C112  A    
N23   Ni3   S    
C19   C90   S    
N20   N30   A    
C45   H2    S    
C15   H71   S    
C95   C113  A    
N23   N25   A    
C53   C61   A    
C7    C51   A    
C41   C45   A    
C5    C115  A    
N11   Ni7   S    
C59   C84   A    
C58   N29   A    
C92   N32   A    
Br1   C70   S    
C2    C102  A    
C46   C48   A    
N20   Ni8   S    
Br12  C105  S    
C43   C95   S    
C96   N4    A    
C50   H7    S    
C6    C40   A    
C38   C74   S    
C9    H53   S    
N8    N17   A    
C114  N22   A    
C103  N11   A    
C10   H55   S    
C112  H38   S    
C102  N10   A    
C101  N9    A    
C60   C95   A    
C65   C69   S    
C46   H3    S    
C42   C84   S    
C18   H80   S    
C9    C67   S    
C36   C65   A    
N4    Ni3   S    
N26   N27   A    
N15   Ni2   S    
C20   C91   S    
C22   C32   S    
C57   C62   A    
C12   H64   S    
N16   Ni3   S    
C99   N7    A    
C101  H31   S    
C24   C34   S    
Br8   C92   S    
C102  H32   S    
C76   C88   S    
C23   C98   A    
C110  N18   A    
C21   C96   A    
C20   H85   S    
N4    N13   A    
C111  H37   S    
C68   C70   S    
C62   C110  A    
N18   Ni6   S    
C48   C53   A    
C86   C87   A    
C109  N17   A    
N3    Ni4   S    
C16   C74   S    
C3    H43   S    
N2    Ni1   S    
C25   C109  A    
Br10  C94   S    
C4    C54   S    
N26   Ni3   S    
C27   C32   D    
C25   C33   S    
C14   H66   S    
Br6   C72   S    
C11   H61   S    
N13   Ni8   S    
C113  N21   A    
N7    N16   A    
C60   N31   A    
C45   C52   A    
C111  N19   A    
N6    Ni5   S    
C56   C65   A    
C34   H78   S    
C58   H24   S    
C57   H22   S    
N5    Ni6   S    
C89   H19   S    
C21   C104  A    
N27   Ni4   S    
C11   C69   S    
C17   C88   S    
C86   H16   S    
C5    C53   S    
N21   Ni7   S    
C64   C68   S    
C97   N5    A    
C21   C81   S    
N6    N15   A    
C28   H47   S    
C35   C39   A    
Br2   C107  S    
C83   C85   A    
C57   N28   A    
C26   H44   S    
C8    H49   S    
C36   C41   A    
C115  H41   S    
C68   H11   S    
C66   H9    S    
N29   Ni6   S    
C114  H40   S    
C38   C43   A    
C36   C71   S    
C8    C66   S    
N28   Ni5   S    
C16   H74   S    
C81   C86   A    
C10   H57   S    
C99   H29   S    
C10   C68   S    
C26   C31   D    
C30   H48   S    
C38   C63   A    
C11   H59   S    
C31   H45   S    
C11   H60   S    
C19   H82   S    
C4    C114  A    
C82   C87   A    
N9    N32   A    
C40   H23   S    
C8    H50   S    
C54   C63   A    
C48   H5    S    
C18   C89   S    
C28   C30   S    
C10   H58   S    
N2    N10   A    
Br4   C109  S    
C73   C111  A    
C12   H63   S    
C44   C50   A    
C77   C81   A    
C90   C91   S    
C24   C108  A    
C5    C29   A    
C2    C79   S    
C29   N12   A    
C98   H28   S    
Br3   C108  S    
C91   H21   S    
N19   Ni5   S    
C79   C83   A    
C101  C106  A    
C112  N20   A    
C66   C72   S    
N10   Ni6   S    
C67   H10   S    
C19   H83   S    
N8    Ni7   S    
C83   H14   S    
N9    Ni5   S    
C93   N2    A    
C1    C4    A    
Br11  C96   S    
C22   C97   A    
C1    H1    S    
C41   C73   S    
C55   C64   A    
C59   N30   A    
N3    N11   A    
C77   C78   A    
C14   H65   S    
C6    C56   S    
N1    N22   A    
N19   N29   A    
C67   C74   S    
C77   C91   S    
N17   Ni4   S    
N18   N28   A    
C98   N6    A    
