data_mof_unit_68081.cif
_audit_creation_date              2013-03-05T15:51:46-0500
_audit_creation_method            fapswitch 2.2
_symmetry_space_group_name_H-M    P1
_symmetry_Int_Tables_number       1
_space_group_crystal_system       triclinic
_cell_length_a                    8.140818
_cell_length_b                    12.328612
_cell_length_c                    29.390002
_cell_angle_alpha                 90.0
_cell_angle_beta                  90.001257
_cell_angle_gamma                 89.999766
_cell_volume                      2949.72715278

loop_
_atom_site_label
_atom_site_type_symbol
_atom_site_description
_atom_site_fract_x
_atom_site_fract_y
_atom_site_fract_z
_atom_type_partial_charge
O1    O     O_R   0.647170 0.849180 0.201220 -0.585357
O2    O     O_R   0.352830 0.150820 0.798780 -0.585547
O3    O     O_R   0.352830 0.150820 0.701220 -0.585362
O4    O     O_R   0.647170 0.849180 0.298780 -0.585553
O5    O     O_R   0.147170 0.650820 0.298780 -0.585369
O6    O     O_R   0.852830 0.349180 0.701220 -0.585560
O7    O     O_R   0.852830 0.349180 0.798780 -0.585361
O8    O     O_R   0.147170 0.650820 0.201220 -0.585550
O9    O     O_R   0.317430 0.862210 0.298450 -0.584660
O10   O     O_R   0.682570 0.137790 0.701550 -0.584746
O11   O     O_R   0.682570 0.137790 0.798450 -0.584663
O12   O     O_R   0.317430 0.862210 0.201550 -0.584749
O13   O     O_R   0.817430 0.637790 0.201550 -0.584680
O14   O     O_R   0.182570 0.362210 0.798450 -0.584767
O15   O     O_R   0.182570 0.362210 0.701550 -0.584650
O16   O     O_R   0.817430 0.637790 0.298450 -0.584736
C1    C     C_R   0.484607 0.879818 0.313267 0.851815
C2    C     C_R   0.515370 0.120325 0.686723 0.852977
C3    C     C_R   0.515395 0.120174 0.813266 0.851792
C4    C     C_R   0.484628 0.879682 0.186724 0.852955
C5    C     C_R   0.984605 0.620178 0.186734 0.851785
C6    C     C_R   0.015372 0.379677 0.813277 0.852948
C7    C     C_R   0.015393 0.379822 0.686734 0.851806
C8    C     C_R   0.984630 0.620323 0.313277 0.852970
H1    H     H_    0.999254 0.587243 0.693713 0.099652
H2    H     H_    0.003483 0.413263 0.306223 0.099356
H3    H     H_    0.000749 0.412750 0.193711 0.099628
H4    H     H_    0.996514 0.586744 0.806225 0.099330
H5    H     H_    0.499295 0.912740 0.806288 0.099671
H6    H     H_    0.503438 0.086758 0.193776 0.099375
H7    H     H_    0.500774 0.087233 0.306288 0.099643
H8    H     H_    0.496488 0.913269 0.693777 0.099349
H9    H     H_    0.026693 0.336862 0.597686 0.112093
H10   H     H_    0.970724 0.663179 0.402294 0.112606
H11   H     H_    0.973242 0.663134 0.097684 0.112073
H12   H     H_    0.029343 0.336826 0.902296 0.112586
H13   H     H_    0.526709 0.163131 0.902314 0.112093
H14   H     H_    0.470716 0.836829 0.097706 0.112607
H15   H     H_    0.473270 0.836857 0.402316 0.112088
H16   H     H_    0.529312 0.163180 0.597704 0.112602
O17   O     O_3   0.480630 0.680630 0.250000 -0.376619
O18   O     O_3   0.519370 0.319370 0.750000 -0.376619
O19   O     O_3   0.980630 0.819370 0.250000 -0.376598
O20   O     O_3   0.019370 0.180630 0.750000 -0.376598
V1    V     V_3+5 0.205800 0.762860 0.250000 1.087179
V2    V     V_3+5 0.794200 0.237140 0.750000 1.087178
V3    V     V_3+5 0.705800 0.737140 0.250000 1.087177
V4    V     V_3+5 0.294200 0.262860 0.750000 1.087177
H17   H     H_    0.994283 0.289709 0.532167 0.134457
H18   H     H_    0.005238 0.710140 0.467711 0.134567
H19   H     H_    0.005704 0.710294 0.032166 0.134459
H20   H     H_    0.994764 0.289859 0.967712 0.134569
H21   H     H_    0.494226 0.210292 0.967831 0.134452
H22   H     H_    0.505295 0.789860 0.032291 0.134563
H23   H     H_    0.505684 0.789706 0.467835 0.134461
H24   H     H_    0.494785 0.210139 0.532287 0.134571
C9    C     C_R   0.992126 0.543785 0.351980 -0.095447
C10   C     C_R   0.008167 0.456477 0.648010 -0.095326
C11   C     C_R   0.007880 0.456216 0.851980 -0.095438
C12   C     C_R   0.991826 0.543522 0.148010 -0.095313
C13   C     C_R   0.492119 0.956224 0.148021 -0.095448
C14   C     C_R   0.508175 0.043516 0.851989 -0.095326
C15   C     C_R   0.507872 0.043789 0.648020 -0.095449
C16   C     C_R   0.491834 0.956470 0.351991 -0.095327
C17   C     C_R   0.000895 0.354689 0.375320 0.000261
C18   C     C_R   0.999593 0.645638 0.624574 -0.000171
C19   C     C_R   0.999135 0.645310 0.875321 0.000290
C20   C     C_R   0.000373 0.354363 0.124573 -0.000140
C21   C     C_R   0.500856 0.145321 0.124680 0.000277
C22   C     C_R   0.499631 0.854353 0.875426 -0.000155
C23   C     C_R   0.499098 0.854695 0.624680 0.000269
C24   C     C_R   0.500410 0.145629 0.375426 -0.000166
C25   C     C_R   0.002090 0.435333 0.341925 -0.211826
C26   C     C_R   0.999509 0.565068 0.658027 -0.211928
C27   C     C_R   0.997909 0.564669 0.841927 -0.211850
C28   C     C_R   0.000490 0.434931 0.158025 -0.211953
C29   C     C_R   0.502066 0.064679 0.158075 -0.211879
C30   C     C_R   0.499530 0.934923 0.841973 -0.211980
C31   C     C_R   0.497891 0.935339 0.658074 -0.211814
C32   C     C_R   0.500508 0.065059 0.341974 -0.211913
C33   C     C_R   0.982450 0.577124 0.397459 -0.294664
C34   C     C_R   0.016357 0.422995 0.602517 -0.292486
C35   C     C_R   0.017586 0.422879 0.897460 -0.294583
C36   C     C_R   0.983605 0.577004 0.102517 -0.292404
C37   C     C_R   0.482445 0.922884 0.102541 -0.294644
C38   C     C_R   0.516367 0.076999 0.897483 -0.292462
C39   C     C_R   0.517567 0.077126 0.602540 -0.294660
C40   C     C_R   0.483623 0.922989 0.397484 -0.292476
C41   C     C_R   0.989821 0.501483 0.434472 0.112155
C42   C     C_R   0.009031 0.498552 0.565474 0.111745
C43   C     C_R   0.010199 0.498518 0.934472 0.112193
C44   C     C_R   0.990944 0.501448 0.065474 0.111782
C45   C     C_R   0.489820 0.998523 0.065528 0.112134
C46   C     C_R   0.509035 0.001444 0.934526 0.111720
C47   C     C_R   0.510189 0.001484 0.565528 0.112178
C48   C     C_R   0.490955 0.998547 0.434527 0.111766
C49   C     C_R   0.989966 0.386734 0.423483 0.017389
C50   C     C_R   0.009574 0.613359 0.576417 0.018264
C51   C     C_R   0.010059 0.613267 0.923483 0.017421
C52   C     C_R   0.990396 0.386642 0.076416 0.018295
C53   C     C_R   0.489948 0.113273 0.076517 0.017403
C54   C     C_R   0.509593 0.886636 0.923584 0.018279
C55   C     C_R   0.510036 0.886735 0.576518 0.017392
C56   C     C_R   0.490419 0.113353 0.423583 0.018270
C57   C     C_R   0.999081 0.537917 0.481742 0.047100
C58   C     C_R   0.999478 0.462020 0.518196 0.046028
C59   C     C_R   0.000919 0.462083 0.981742 0.047021
C60   C     C_R   0.000516 0.537982 0.018196 0.045953
C61   C     C_R   0.499092 0.962085 0.018258 0.047104
C62   C     C_R   0.499470 0.037980 0.981803 0.046032
C63   C     C_R   0.500923 0.037916 0.518258 0.047070
C64   C     C_R   0.500514 0.962016 0.481804 0.045996
C65   C     C_R   0.997538 0.350993 0.506298 -0.308717
C66   C     C_R   0.001463 0.648913 0.493598 -0.308896
C67   C     C_R   0.002460 0.649010 0.006298 -0.308708
C68   C     C_R   0.998529 0.351085 0.993598 -0.308887
C69   C     C_R   0.497510 0.149008 0.993700 -0.308725
C70   C     C_R   0.501494 0.851087 0.006404 -0.308906
C71   C     C_R   0.502448 0.850989 0.493703 -0.308708
C72   C     C_R   0.498543 0.148913 0.506401 -0.308891
C73   C     C_R   0.989193 0.312162 0.461177 -0.012650
C74   C     C_R   0.010112 0.687812 0.538677 -0.013210
C75   C     C_R   0.010823 0.687841 0.961176 -0.012653
C76   C     C_R   0.989863 0.312186 0.038678 -0.013211
C77   C     C_R   0.489180 0.187842 0.038821 -0.012654
C78   C     C_R   0.510127 0.812186 0.961324 -0.013214
C79   C     C_R   0.510808 0.812160 0.538825 -0.012649
C80   C     C_R   0.489880 0.187810 0.461322 -0.013208
C81   C     C_R   0.986545 0.191498 0.456580 0.090373
C82   C     C_R   0.111867 0.128357 0.475161 -0.187029
C83   C     C_R   0.122546 0.017449 0.464874 -0.045269
C84   C     C_R   0.006617 0.967736 0.437377 -0.148764
C85   C     C_R   0.872815 0.027303 0.422834 -0.095664
C86   C     C_R   0.862010 0.137663 0.433308 -0.112994
H25   H     H_    0.195373 0.164707 0.498909 0.142654
H26   H     H_    0.206757 0.966075 0.482196 0.144414
H27   H     H_    0.016646 0.882542 0.429051 0.099098
H28   H     H_    0.786816 0.989946 0.400034 0.148306
H29   H     H_    0.769477 0.184008 0.418211 0.117504
C87   C     C_R   0.013943 0.808461 0.543141 0.090621
C88   C     C_R   0.138857 0.861788 0.566436 -0.113156
C89   C     C_R   0.128806 0.972177 0.576930 -0.094694
C90   C     C_R   0.995607 0.032258 0.562321 -0.149192
C91   C     C_R   0.879215 0.982957 0.534839 -0.046197
C92   C     C_R   0.889175 0.872043 0.524517 -0.186330
H30   H     H_    0.230953 0.814945 0.581541 0.117383
H31   H     H_    0.214745 0.009186 0.599833 0.148691
H32   H     H_    0.986150 0.117443 0.570708 0.098949
H33   H     H_    0.794990 0.034582 0.517630 0.144382
H34   H     H_    0.805374 0.835965 0.500783 0.142624
C93   C     C_R   0.013480 0.808509 0.956576 0.090372
C94   C     C_R   0.888148 0.871659 0.975148 -0.187017
C95   C     C_R   0.877471 0.982566 0.964855 -0.045281
C96   C     C_R   0.993422 0.032271 0.937363 -0.148739
C97   C     C_R   0.127237 0.972696 0.922830 -0.095606
C98   C     C_R   0.138034 0.862338 0.933308 -0.112964
H35   H     H_    0.804637 0.835316 0.998895 0.142658
H36   H     H_    0.793247 0.033949 0.982170 0.144390
H37   H     H_    0.983403 0.117464 0.929030 0.099084
H38   H     H_    0.213266 0.010047 0.900034 0.148304
H39   H     H_    0.230582 0.815989 0.918217 0.117510
C99   C     C_R   0.986027 0.191533 0.043144 0.090619
C100  C     C_R   0.861097 0.138208 0.066436 -0.113126
C101  C     C_R   0.871144 0.027821 0.076932 -0.094638
C102  C     C_R   0.004358 0.967736 0.062333 -0.149164
C103  C     C_R   0.120769 0.017032 0.034855 -0.046207
C104  C     C_R   0.110807 0.127945 0.024529 -0.186318
H40   H     H_    0.768986 0.185053 0.081535 0.117389
H41   H     H_    0.785178 0.990815 0.099831 0.148686
H42   H     H_    0.013809 0.882551 0.070726 0.098934
H43   H     H_    0.205006 0.965400 0.017653 0.144359
H44   H     H_    0.194610 0.164018 0.000797 0.142626
C105  C     C_R   0.486572 0.308506 0.043419 0.090371
C106  C     C_R   0.611887 0.371627 0.024829 -0.187023
C107  C     C_R   0.622603 0.482533 0.035112 -0.045247
C108  C     C_R   0.506734 0.532264 0.062618 -0.148751
C109  C     C_R   0.372913 0.472723 0.077163 -0.095684
C110  C     C_R   0.362057 0.362365 0.066689 -0.113018
H45   H     H_    0.695359 0.335264 0.001075 0.142644
H46   H     H_    0.706790 0.533894 0.017778 0.144423
H47   H     H_    0.516795 0.617458 0.070941 0.099106
H48   H     H_    0.286916 0.510103 0.099956 0.148283
H49   H     H_    0.269486 0.316039 0.081780 0.117529
C111  C     C_R   0.513916 0.691537 0.956860 0.090619
C112  C     C_R   0.638811 0.638185 0.933567 -0.113182
C113  C     C_R   0.628709 0.527799 0.923072 -0.094715
C114  C     C_R   0.495490 0.467744 0.937681 -0.149179
C115  C     C_R   0.379157 0.517063 0.965174 -0.046170
C116  C     C_R   0.389152 0.627975 0.975492 -0.186327
H50   H     H_    0.730945 0.685010 0.918468 0.117408
H51   H     H_    0.714647 0.490767 0.900176 0.148668
H52   H     H_    0.486001 0.382559 0.929298 0.098957
H53   H     H_    0.294955 0.465450 0.982394 0.144390
H54   H     H_    0.305387 0.664065 0.999231 0.142614
C117  C     C_R   0.513471 0.691493 0.543424 0.090373
C118  C     C_R   0.388143 0.628341 0.524850 -0.187025
C119  C     C_R   0.377479 0.517433 0.535140 -0.045284
C120  C     C_R   0.493435 0.467729 0.562632 -0.148752
C121  C     C_R   0.627237 0.527308 0.577171 -0.095641
C122  C     C_R   0.638021 0.637667 0.566695 -0.112979
H55   H     H_    0.304621 0.664686 0.501104 0.142659
H56   H     H_    0.293258 0.466052 0.517823 0.144402
H57   H     H_    0.483419 0.382535 0.570964 0.099089
H58   H     H_    0.713249 0.489961 0.599972 0.148313
H59   H     H_    0.730548 0.684018 0.581792 0.117499
C123  C     C_R   0.486036 0.308462 0.456856 0.090619
C124  C     C_R   0.361106 0.361781 0.433562 -0.113144
C125  C     C_R   0.371139 0.472169 0.423066 -0.094669
C126  C     C_R   0.504339 0.532260 0.437671 -0.149177
C127  C     C_R   0.620757 0.482967 0.465149 -0.046211
C128  C     C_R   0.610811 0.372053 0.475473 -0.186325
H60   H     H_    0.269016 0.314933 0.418458 0.117378
H61   H     H_    0.285188 0.509168 0.400162 0.148696
H62   H     H_    0.513784 0.617445 0.429278 0.098941
H63   H     H_    0.704991 0.534599 0.482353 0.144371
H64   H     H_    0.694625 0.335981 0.499204 0.142627
C129  C     C_R   0.997921 0.242324 0.354459 0.106686
C130  C     C_R   0.883445 0.217835 0.319832 -0.180524
C131  C     C_R   0.863549 0.112114 0.304509 -0.102025
C132  C     C_R   0.973072 0.032052 0.317118 -0.068861
C133  C     C_R   0.102216 0.057641 0.345537 -0.115002
C134  C     C_R   0.111641 0.160515 0.365091 -0.135436
H65   H     H_    0.804137 0.278821 0.305439 0.138096
H66   H     H_    0.759018 0.091296 0.284501 0.105310
H67   H     H_    0.953068 0.949463 0.307204 0.172439
H68   H     H_    0.181673 0.993821 0.357132 0.158118
H69   H     H_    0.201292 0.171535 0.390604 0.130386
C135  C     C_R   0.001474 0.758305 0.645269 0.106812
C136  C     C_R   0.887435 0.839650 0.634252 -0.134094
C137  C     C_R   0.895638 0.942844 0.653525 -0.115923
C138  C     C_R   0.023734 0.969362 0.682106 -0.067801
C139  C     C_R   0.133786 0.889971 0.695052 -0.101124
C140  C     C_R   0.115398 0.783858 0.679925 -0.181839
H70   H     H_    0.798318 0.828067 0.608658 0.129862
H71   H     H_    0.816220 0.006254 0.641568 0.157934
H72   H     H_    0.042644 0.052228 0.691825 0.171748
H73   H     H_    0.237582 0.911904 0.715124 0.106448
H74   H     H_    0.195328 0.723488 0.694498 0.137705
C141  C     C_R   0.002129 0.757675 0.854464 0.106680
C142  C     C_R   0.116647 0.782172 0.819848 -0.180579
C143  C     C_R   0.136546 0.887891 0.804528 -0.102015
C144  C     C_R   0.026959 0.967938 0.817114 -0.068829
C145  C     C_R   0.897804 0.942342 0.845527 -0.115026
C146  C     C_R   0.888397 0.839476 0.865092 -0.135575
H75   H     H_    0.195986 0.721194 0.805468 0.138134
H76   H     H_    0.241133 0.908716 0.784539 0.105287
H77   H     H_    0.046933 0.050526 0.807196 0.172441
H78   H     H_    0.818329 0.006156 0.857115 0.158141
H79   H     H_    0.798733 0.828440 0.890595 0.130430
C147  C     C_R   0.998471 0.241696 0.145263 0.106807
C148  C     C_R   0.112524 0.160360 0.134250 -0.134230
C149  C     C_R   0.104340 0.057173 0.153534 -0.115951
C150  C     C_R   0.976234 0.030648 0.182109 -0.067768
C151  C     C_R   0.866114 0.110023 0.195032 -0.101109
C152  C     C_R   0.884504 0.216134 0.179907 -0.181898
H80   H     H_    0.201655 0.171960 0.108666 0.129905
H81   H     H_    0.183777 0.993771 0.141583 0.157957
H82   H     H_    0.957355 0.947783 0.191832 0.171750
H83   H     H_    0.762263 0.088082 0.215086 0.106425
H84   H     H_    0.804541 0.276496 0.194467 0.137745
C153  C     C_R   0.497847 0.257690 0.145540 0.106673
C154  C     C_R   0.383275 0.282189 0.180144 -0.180595
C155  C     C_R   0.363380 0.387908 0.195470 -0.101957
C156  C     C_R   0.473029 0.467949 0.182906 -0.068824
C157  C     C_R   0.602193 0.442359 0.154495 -0.115079
C158  C     C_R   0.611596 0.339495 0.134924 -0.135509
H85   H     H_    0.303889 0.221215 0.194508 0.138160
H86   H     H_    0.258744 0.408738 0.215449 0.105249
H87   H     H_    0.453079 0.550539 0.192830 0.172475
H88   H     H_    0.681655 0.506184 0.142906 0.158145
H89   H     H_    0.701255 0.328480 0.109416 0.130428
C159  C     C_R   0.501552 0.741684 0.854732 0.106803
C160  C     C_R   0.387485 0.660340 0.865731 -0.134162
C161  C     C_R   0.395671 0.557157 0.846440 -0.116009
C162  C     C_R   0.523788 0.530643 0.817867 -0.067768
C163  C     C_R   0.633966 0.610016 0.804967 -0.101050
C164  C     C_R   0.615572 0.716124 0.820099 -0.181911
H90   H     H_    0.298356 0.671915 0.891320 0.129904
H91   H     H_    0.316247 0.493741 0.858389 0.157962
H92   H     H_    0.542650 0.447778 0.808137 0.171789
H93   H     H_    0.737869 0.588077 0.784923 0.106381
H94   H     H_    0.695579 0.776486 0.805556 0.137769
C165  C     C_R   0.502078 0.742334 0.645541 0.106679
C166  C     C_R   0.616546 0.717855 0.680171 -0.180503
C167  C     C_R   0.636459 0.612137 0.695494 -0.102023
C168  C     C_R   0.526958 0.532069 0.682881 -0.068887
C169  C     C_R   0.397804 0.557652 0.654464 -0.114973
C170  C     C_R   0.388367 0.660524 0.634909 -0.135460
H95   H     H_    0.695836 0.778847 0.694567 0.138094
H96   H     H_    0.740989 0.591330 0.715502 0.105315
H97   H     H_    0.546980 0.449483 0.692795 0.172432
H98   H     H_    0.318343 0.493834 0.642872 0.158120
H99   H     H_    0.298709 0.671547 0.609399 0.130387
C171  C     C_R   0.498521 0.258292 0.354731 0.106810
C172  C     C_R   0.612549 0.339639 0.365748 -0.134114
C173  C     C_R   0.604332 0.442830 0.346473 -0.115903
C174  C     C_R   0.476227 0.469338 0.317893 -0.067831
C175  C     C_R   0.366198 0.389939 0.304944 -0.101120
C176  C     C_R   0.384607 0.283831 0.320072 -0.181818
H100  H     H_    0.701674 0.328055 0.391340 0.129863
H101  H     H_    0.683755 0.506239 0.358426 0.157936
H102  H     H_    0.457296 0.552201 0.308174 0.171742
H103  H     H_    0.262405 0.411857 0.284869 0.106447
H104  H     H_    0.304698 0.223453 0.305496 0.137703

loop_
_geom_bond_atom_site_label_1
_geom_bond_atom_site_label_2
_geom_bond_distance
_ccdc_geom_bond_type
C7    C10   1.480470 S    
H17   C65   1.072174 S    
C156  H87   1.071551 S    
C112  H50   1.045348 S    
H23   C71   1.072165 S    
C168  H97   1.071506 S    
C166  C167  1.388453 A    
C10   C34   1.400909 A    
C109  H48   1.072971 S    
O3    V4    2.047233 S    
C129  C134  1.404253 A    
C161  C162  1.378371 A    
C136  H70   1.054762 S    
O8    V1    2.047221 S    
C116  H54   1.072282 S    
H5    C30   1.083850 S    
C141  C142  1.412584 A    
C159  C160  1.404472 A    
C174  H102  1.071893 S    
C138  H72   1.071917 S    
H10   C33   1.074662 S    
C165  C170  1.404224 A    
C121  C122  1.397742 A    
C80   C123  1.493578 S    
C135  C136  1.404433 A    
O20   V2    1.960995 S    
C61   C70   1.412240 A    
C67   C75   1.411522 A    
C43   C59   1.462040 A    
H7    C32   1.083861 S    
C87   C88   1.391060 A    
C45   C53   1.451115 A    
C123  C124  1.391081 A    
C91   C92   1.403000 A    
C21   C153  1.515137 S    
C84   H27   1.081543 S    
C12   C28   1.372569 A    
H18   C66   1.072167 S    
C157  H88   1.074082 S    
C136  C137  1.394246 A    
C79   C117  1.493943 S    
C107  C108  1.385364 A    
C56   C80   1.439727 A    
O12   C4    1.445323 A    
C22   C54   1.472481 A    
O13   C5    1.445322 A    
C96   C97   1.381519 A    
C172  H100  1.054763 S    
C13   C37   1.400640 A    
C173  C174  1.378383 A    
C48   C56   1.451492 A    
C121  H58   1.073005 S    
C175  C176  1.389755 A    
C86   H29   1.044409 S    
C94   H35   1.072415 S    
O1    C4    1.440072 A    
O2    C3    1.440624 A    
C118  C119  1.403077 A    
C87   C92   1.394881 A    
H11   C36   1.074643 S    
C21   C53   1.472298 A    
O7    C6    1.440067 A    
C35   C43   1.434052 A    
C160  H90   1.054729 S    
C162  H92   1.071938 S    
C153  C158  1.404289 A    
C17   C129  1.515113 S    
C148  H80   1.054682 S    
C151  H83   1.065515 S    
O10   C2    1.445321 A    
C82   C83   1.403055 A    
C117  C118  1.394681 A    
C46   C54   1.451503 A    
C145  H78   1.074030 S    
C97   C98   1.397744 A    
C115  C116  1.402973 A    
O11   V2    2.086569 S    
C113  C114  1.381569 A    
H4    C27   1.084066 S    
C90   C91   1.385492 A    
C149  C150  1.378375 A    
C164  H94   1.077371 S    
C125  H61   1.072746 S    
C21   C29   1.397079 A    
C63   C64   1.422473 A    
C23   C31   1.397075 A    
C130  H65   1.077526 S    
C14   C38   1.400911 A    
C134  H69   1.055131 S    
C60   C67   1.412880 A    
H1    C26   1.083855 S    
C158  H89   1.055097 S    
C153  C154  1.412633 A    
C127  H63   1.063512 S    
C18   C26   1.397617 A    
C111  C112  1.391076 A    
C143  C144  1.380807 A    
C9    C25   1.371732 A    
C95   H36   1.063195 S    
C106  C107  1.403028 A    
C49   C73   1.439654 A    
C131  H66   1.065726 S    
C37   C45   1.434062 A    
C44   C60   1.462746 A    
C13   C29   1.371761 A    
C8    C9    1.479181 S    
C39   C47   1.434062 A    
C53   C77   1.439653 A    
C59   C60   1.422486 A    
C55   C79   1.439650 A    
C176  H104  1.077395 S    
C92   H34   1.072280 S    
C128  H64   1.072277 S    
C103  C104  1.403021 A    
O15   V4    2.086540 S    
C150  H82   1.071897 S    
O16   V3    2.086537 S    
C132  C133  1.379283 A    
C47   C55   1.451102 A    
C160  C161  1.394324 A    
C90   H32   1.081506 S    
C146  H79   1.055052 S    
C58   C65   1.412854 A    
C161  H91   1.073625 S    
O7    V2    2.047219 S    
H13   C38   1.074649 S    
C83   H26   1.063172 S    
C154  H85   1.077504 S    
O13   V3    2.086566 S    
O14   V4    2.086565 S    
C129  C130  1.412554 A    
C20   C52   1.472434 A    
C133  C134  1.394541 A    
C126  C127  1.385523 A    
O17   V3    1.961001 S    
C119  H56   1.063198 S    
O18   V4    1.961001 S    
O19   V1    1.960996 S    
C135  C140  1.413071 A    
C115  H53   1.063440 S    
C131  C132  1.380775 A    
C19   C27   1.397059 A    
C10   C26   1.372567 A    
C81   C82   1.394644 A    
C20   C147  1.516383 S    
C50   C74   1.439727 A    
C23   C55   1.472270 A    
C152  H84   1.077344 S    
C89   H31   1.072712 S    
C14   C30   1.372592 A    
C54   C78   1.439728 A    
C98   H39   1.044459 S    
C154  C155  1.388478 A    
C20   C28   1.397594 A    
C23   C165  1.515072 S    
C18   C50   1.472479 A    
C100  H40   1.045362 S    
C74   C87   1.493542 S    
C171  C176  1.413050 A    
C24   C32   1.397603 A    
C139  H73   1.065405 S    
C105  C110  1.391450 A    
C19   C141  1.515066 S    
C142  C143  1.388436 A    
C175  H103  1.065384 S    
C119  C120  1.385431 A    
C59   C68   1.412250 A    
C65   C73   1.411506 A    
C163  C164  1.389778 A    
C18   C135  1.516434 S    
C165  C166  1.412536 A    
C169  H98   1.074036 S    
C36   C44   1.434054 A    
C43   C51   1.451102 A    
C118  H55   1.072422 S    
C69   C77   1.411518 A    
C45   C61   1.462033 A    
O4    V3    2.047231 S    
C71   C79   1.411509 A    
C40   C48   1.434063 A    
O9    V1    2.086542 S    
C122  H59   1.044403 S    
C162  C163  1.380515 A    
C148  C149  1.394282 A    
O11   C3    1.445323 A    
C159  C164  1.413144 A    
C101  C102  1.381633 A    
C11   C35   1.400629 A    
C171  C172  1.404408 A    
H12   C35   1.074658 S    
C145  C146  1.394576 A    
H2    C25   1.084048 S    
C113  H51   1.072713 S    
H6    C29   1.084046 S    
C125  C126  1.381625 A    
C93   C94   1.394675 A    
H9    C34   1.074646 S    
C110  H49   1.044445 S    
C19   C51   1.472249 A    
C33   C41   1.434067 A    
C85   H28   1.072972 S    
C16   C32   1.372552 A    
C108  H47   1.081532 S    
H15   C40   1.074649 S    
C62   C69   1.412865 A    
C149  H81   1.073572 S    
C76   C99   1.493591 S    
H20   C68   1.072162 S    
C155  H86   1.065997 S    
C75   C93   1.493954 S    
C124  C125  1.397838 A    
C42   C58   1.462725 A    
C5    C12   1.480488 S    
C6    C11   1.479201 S    
O1    V3    2.047219 S    
C24   C56   1.472451 A    
O2    V4    2.047216 S    
C147  C148  1.404414 A    
O5    V1    2.047234 S    
C133  H68   1.074058 S    
C46   C62   1.462734 A    
H19   C67   1.072166 S    
C143  H76   1.065832 S    
C140  H74   1.077393 S    
C167  C168  1.380750 A    
C169  C170  1.394520 A    
C144  C145  1.379295 A    
C137  H71   1.073599 S    
C93   C98   1.391481 A    
C107  H46   1.063124 S    
C88   H30   1.045313 S    
O4    C1    1.440613 A    
C82   H25   1.072428 S    
C166  H95   1.077527 S    
C85   C86   1.397745 A    
H3    C28   1.083865 S    
C172  C173  1.394226 A    
C99   C100  1.391109 A    
C102  H42   1.081530 S    
C68   C76   1.410781 A    
C73   C81   1.493905 S    
C64   C71   1.412863 A    
C72   C80   1.410766 A    
C104  H44   1.072267 S    
C57   C58   1.422473 A    
C126  H62   1.081525 S    
C34   C42   1.434066 A    
C114  C115  1.385456 A    
C61   C62   1.422476 A    
H8    C31   1.084053 S    
O14   C6    1.445323 A    
C112  C113  1.397846 A    
C150  C151  1.380402 A    
C139  C140  1.389787 A    
C137  C138  1.378362 A    
C81   C86   1.391436 A    
C96   H37   1.081568 S    
C109  C110  1.397750 A    
C120  H57   1.081563 S    
C89   C90   1.381593 A    
C52   C76   1.439724 A    
C16   C40   1.400906 A    
C102  C103  1.385525 A    
C22   C30   1.397611 A    
C174  C175  1.380345 A    
C78   C111  1.493529 S    
C100  C101  1.397840 A    
C77   C105  1.493893 S    
C15   C31   1.371721 A    
C105  C106  1.394596 A    
C48   C64   1.462724 A    
C151  C152  1.389746 A    
H16   C39   1.074664 S    
C1    C16   1.480456 S    
C168  C169  1.379300 A    
H21   C69   1.072187 S    
C2    C15   1.479173 S    
C163  H93   1.065680 S    
C3    C14   1.480498 S    
C4    C13   1.479213 S    
C17   C25   1.397084 A    
O3    C2    1.440062 A    
C38   C46   1.434066 A    
C123  C128  1.394916 A    
C84   C85   1.381479 A    
O10   V2    2.086544 S    
C120  C121  1.381511 A    
C157  C158  1.394616 A    
O15   C7    1.445322 A    
C103  H43   1.063509 S    
O16   C8    1.445321 A    
H24   C72   1.072159 S    
C101  H41   1.072781 S    
C173  H101  1.073577 S    
H14   C37   1.074665 S    
C57   C66   1.412225 A    
C156  C157  1.379291 A    
C170  H99   1.055131 S    
C167  H96   1.065702 S    
C41   C49   1.451107 A    
C63   C72   1.412235 A    
C91   H33   1.063489 S    
C22   C159  1.516457 S    
O8    C5    1.440618 A    
C94   C95   1.403078 A    
C141  C146  1.404232 A    
O9    C1    1.445321 A    
C108  C109  1.381456 A    
H22   C70   1.072180 S    
C124  H60   1.045307 S    
C9    C33   1.400636 A    
C41   C57   1.462021 A    
C11   C27   1.371735 A    
C44   C52   1.451490 A    
C51   C75   1.439648 A    
C117  C122  1.391456 A    
C147  C152  1.413098 A    
O6    V2    2.047236 S    
C15   C39   1.400635 A    
C97   H38   1.073039 S    
O12   V1    2.086571 S    
C144  H77   1.071507 S    
C155  C156  1.380921 A    
C17   C49   1.472293 A    
C47   C63   1.462018 A    
C88   C89   1.397841 A    
C12   C36   1.400902 A    
C130  C131  1.388479 A    
C142  H75   1.077477 S    
O5    C8    1.440065 A    
O6    C7    1.440616 A    
C114  H52   1.081495 S    
C132  H67   1.071529 S    
C99   C104  1.394911 A    
C66   C74   1.410765 A    
C127  C128  1.403021 A    
C138  C139  1.380368 A    
C111  C116  1.394833 A    
C70   C78   1.410779 A    
C95   C96   1.385435 A    
C24   C171  1.516389 S    
C106  H45   1.072431 S    
C42   C50   1.451496 A    
C83   C84   1.385401 A    
