data_mof_unit_16415.cif
_audit_creation_date              2012-10-26T20:13:54-0400
_audit_creation_method            fapswitch 2.2
_symmetry_space_group_name_H-M    P1
_symmetry_Int_Tables_number       1
_space_group_crystal_system       triclinic
_cell_length_a                    8.717139
_cell_length_b                    10.85106
_cell_length_c                    9.581648
_cell_angle_alpha                 90.872552
_cell_angle_beta                  98.163207
_cell_angle_gamma                 91.019873
_cell_volume                      896.860214121

loop_
_atom_site_label
_atom_site_type_symbol
_atom_type_description
_atom_site_fract_x
_atom_site_fract_y
_atom_site_fract_z
_atom_type_partial_charge
C1    C     C_R   0.503760 0.262594 0.499228 0.553992
C2    C     C_R   0.631930 0.527853 0.944454 0.145745
C3    C     C_3   0.725384 0.643620 0.952002 -0.280459
C4    C     C_R   0.203854 0.499951 0.464188 0.546440
C5    C     C_3   0.720861 0.648127 0.109847 -0.284095
C6    C     C_R   0.504437 0.737714 0.501641 0.542246
C7    C     C_R   0.796060 0.508212 0.535624 0.569644
C8    C     C_2   0.037793 0.488329 0.449255 -0.139004
C9    C     C_2   0.960264 0.536721 0.548514 0.105600
C10   C     C_R   0.504092 0.066545 0.621284 -0.029377
C11   C     C_R   0.521121 0.129872 0.499466 0.016159
C12   C     C_R   0.559644 0.933155 0.386233 -0.156700
C13   C     C_R   0.563359 0.062455 0.383591 0.099920
C14   C     C_3   0.077973 0.631802 0.774525 -0.285944
C15   C     C_3   0.761823 0.161434 0.271437 -0.286958
C16   C     C_3   0.634128 0.956125 0.928083 -0.313002
C17   C     C_3   0.230450 0.267548 0.096239 -0.305925
C18   C     C_R   0.523504 0.871076 0.505755 -0.039855
C19   C     C_R   0.514563 0.940522 0.628326 0.046657
C20   C     C_3   0.405008 0.936337 0.736197 0.023940
C21   C     C_3   0.384807 0.074870 0.718011 -0.242087
C22   C     C_R   0.631126 0.529974 0.091204 0.134761
C23   C     C_R   0.378004 0.450591 0.056391 0.235632
C24   C     C_R   0.378745 0.451738 0.907888 -0.024564
Cu1   Cu    Cu3+1 0.499990 0.499980 0.640670 0.930328
Cu2   Cu    Cu3+1 0.500010 0.500020 0.359330 0.965433
H1    H     H_    0.662345 0.717104 0.891270 0.196629
H2    H     H_    0.206288 0.638592 0.789760 0.171992
H3    H     H_    0.040220 0.542813 0.815926 0.136871
H4    H     H_    0.038137 0.710044 0.834838 0.124567
H5    H     H_    0.561650 0.075905 0.169028 0.231898
H6    H     H_    0.837532 0.079779 0.277321 0.119395
H7    H     H_    0.795749 0.221743 0.365961 0.160705
H8    H     H_    0.778720 0.214620 0.176495 0.132505
H9    H     H_    0.581299 0.882107 0.293436 0.124223
H10   H     H_    0.406029 0.908292 0.951765 0.240390
H11   H     H_    0.675929 0.918908 0.033478 0.118177
H12   H     H_    0.651238 0.724636 0.143773 0.143782
H13   H     H_    0.632869 0.057923 0.938374 0.137814
H14   H     H_    0.718248 0.929904 0.856606 0.160765
H15   H     H_    0.422207 0.133312 0.813222 0.148027
H16   H     H_    0.145130 0.442836 0.066991 0.216685
H17   H     H_    0.132460 0.236264 0.150248 0.127044
H18   H     H_    0.337342 0.223720 0.147148 0.194319
H19   H     H_    0.206783 0.237465 0.983714 0.098144
H20   H     H_    0.297881 0.880234 0.701745 0.120853
H21   H     H_    0.269151 0.098150 0.660821 0.096544
H22   H     H_    0.981591 0.426186 0.366620 0.077764
H23   H     H_    0.280153 0.414158 0.838084 0.118697
H24   H     H_    0.842442 0.626280 0.926941 0.119682
H25   H     H_    0.836571 0.637472 0.173676 0.129148
H26   H     H_    0.082352 0.705615 0.575433 0.239761
N1    N     N_R   0.500980 0.500930 0.148050 -0.206378
N2    N     N_R   0.500990 0.500890 0.852140 -0.252179
N3    N     N_2   0.018395 0.644939 0.627198 -0.517172
N4    N     N_2   0.601068 0.122590 0.261851 -0.502577
N5    N     N_2   0.480211 0.905177 0.877052 -0.517080
N6    N     N_2   0.246192 0.400329 0.107920 -0.461419
O1    O     O_R   0.500000 0.319640 0.618810 -0.513364
O2    O     O_R   0.500020 0.319680 0.381230 -0.457785
O3    O     O_R   0.274830 0.499980 0.591380 -0.505274
O4    O     O_R   0.274850 0.500020 0.353800 -0.464478
O5    O     O_R   0.499980 0.680320 0.618770 -0.489914
O6    O     O_R   0.500000 0.680360 0.381190 -0.512751
O7    O     O_R   0.725150 0.499980 0.646200 -0.489221
O8    O     O_R   0.725170 0.500020 0.408620 -0.525317

loop_
_geom_bond_atom_site_label_1
_geom_bond_atom_site_label_2
_ccdc_geom_bond_type
C6    O5    A    
C2    C22   A    
C23   N6    S    
C23   C24   A    
C8    H22   S    
C9    N3    S    
H5    N4    S    
C7    O7    A    
C16   H11   S    
C15   H8    S    
C19   C20   S    
C1    C11   S    
H26   N3    S    
C10   C19   A    
C4    C8    S    
C13   N4    S    
C15   N4    S    
H16   N6    S    
C3    H1    S    
C14   N3    S    
Cu2   O4    S    
C17   H18   S    
C15   H6    S    
Cu1   O3    S    
C5    H12   S    
C12   C13   A    
C12   H9    S    
C11   C13   A    
C16   H14   S    
C21   H15   S    
C24   H23   S    
Cu1   Cu2   S    
C3    H24   S    
C17   H19   S    
C23   N1    A    
C22   N1    A    
C2    C3    S    
C16   N5    S    
C1    O1    A    
C10   C21   S    
C2    N2    A    
C6    C18   S    
C10   C11   A    
C16   H13   S    
C12   C18   A    
Cu2   O8    S    
Cu2   N1    S    
C4    O4    A    
C17   N6    S    
C24   N2    A    
Cu1   O7    S    
Cu1   N2    S    
H10   N5    S    
C20   C21   S    
C18   C19   A    
Cu1   O5    S    
C1    O2    A    
C6    O6    A    
C17   H17   S    
C7    C9    S    
C3    C5    S    
Cu2   O6    S    
C5    H25   S    
Cu1   O1    S    
C14   H2    S    
C20   N5    S    
C14   H4    S    
Cu2   O2    S    
C4    O3    A    
C15   H7    S    
C20   H20   S    
C5    C22   S    
C14   H3    S    
C8    C9    D    
C21   H21   S    
C7    O8    A    
