data_mof_unit_67862.cif
_audit_creation_date              2013-03-05T15:41:51-0500
_audit_creation_method            fapswitch 2.2
_symmetry_space_group_name_H-M    P1
_symmetry_Int_Tables_number       1
_space_group_crystal_system       triclinic
_cell_length_a                    7.813175
_cell_length_b                    8.673216
_cell_length_c                    10.521381
_cell_angle_alpha                 90.976212
_cell_angle_beta                  86.580305
_cell_angle_gamma                 93.162293
_cell_volume                      710.564224854

loop_
_atom_site_label
_atom_site_type_symbol
_atom_site_description
_atom_site_fract_x
_atom_site_fract_y
_atom_site_fract_z
_atom_type_partial_charge
O1    O     O_R   0.389250 0.738570 0.508410 -0.602055
O2    O     O_R   0.610750 0.261430 0.491590 -0.602058
O3    O     O_R   0.678390 0.711620 0.486450 -0.575760
O4    O     O_R   0.321610 0.288380 0.513550 -0.575736
C1    C     C_R   0.544572 0.793607 0.496443 0.904427
C2    C     C_R   0.455428 0.206392 0.503556 0.904436
O5    O     O_R   0.355460 0.513510 0.697030 -0.563473
O6    O     O_R   0.644540 0.486490 0.302970 -0.563468
O7    O     O_R   0.644600 0.486560 0.675070 -0.612232
O8    O     O_R   0.355400 0.513440 0.324930 -0.612232
C3    C     C_R   0.502850 0.500320 0.741873 0.997457
C4    C     C_R   0.497150 0.499680 0.258127 0.997467
Zn1   Zn    Zn3+2 0.306940 0.517990 0.514670 1.183093
Zn2   Zn    Zn3+2 0.693060 0.482010 0.485330 1.183084
N1    N     N_2   0.950320 0.457950 0.465730 0.060162
N2    N     N_2   0.049680 0.542050 0.534270 0.060158
C5    C     C_3   0.395346 0.602942 0.962007 0.453564
C6    C     C_3   0.604655 0.397059 0.037993 0.453578
C7    C     C_3   0.550687 0.639354 0.040490 0.216292
C8    C     C_3   0.449314 0.360647 0.959510 0.216295
C9    C     C_3   0.493253 0.500886 0.123974 -0.230897
C10   C     C_3   0.506747 0.499115 0.876026 -0.230899
C11   C     C_3   0.334923 0.462629 0.045672 -0.397943
C12   C     C_3   0.665078 0.537371 0.954328 -0.397937
H1    H     H_    0.203088 0.428921 0.083220 0.240089
H2    H     H_    0.796912 0.571078 0.916779 0.240088
C13   C     C_2   0.568530 0.955385 0.502824 0.040953
C14   C     C_2   0.431471 0.044615 0.497173 0.040957
N3    N     N_R   0.603259 0.794604 0.082768 0.243286
O9    O     O_R   0.652402 0.898601 0.998846 -0.313040
O10   O     O_R   0.602740 0.830152 0.203238 -0.382952
N4    N     N_R   0.396742 0.205396 0.917232 0.243285
O11   O     O_R   0.347599 0.101399 0.001154 -0.313037
O12   O     O_R   0.397261 0.169849 0.796762 -0.382951
O13   O     O_3   0.295130 0.715285 0.911633 -0.557378
C15   C     C_3   0.167027 0.756717 0.003682 0.059335
H3    H     H_    0.222021 0.792471 0.095566 0.190660
H4    H     H_    0.068217 0.660624 0.018284 0.138954
H5    H     H_    0.101630 0.856349 0.968106 0.214077
O14   O     O_3   0.704870 0.284716 0.088368 -0.557386
C16   C     C_3   0.832977 0.243285 0.996320 0.059325
H6    H     H_    0.931786 0.339379 0.981721 0.138953
H7    H     H_    0.777984 0.207533 0.904435 0.190669
H8    H     H_    0.898373 0.143653 0.031896 0.214073
N5    N     N_R   0.015288 0.439053 0.341645 0.305867
O15   O     O_R   0.006943 0.550727 0.261668 -0.405706
O16   O     O_R   0.044153 0.300966 0.298490 -0.319945
N6    N     N_R   0.984719 0.560936 0.658357 0.305876
O17   O     O_R   0.993003 0.449236 0.738310 -0.405699
O18   O     O_R   0.955967 0.699022 0.701546 -0.319948
N7    N     N_R   0.739617 0.015333 0.524237 0.241661
O19   O     O_R   0.855442 0.020841 0.430185 -0.226110
O20   O     O_R   0.781590 0.054259 0.638710 -0.302420
N8    N     N_R   0.260383 0.984667 0.475759 0.241668
O21   O     O_R   0.144555 0.979165 0.569808 -0.226102
O22   O     O_R   0.218414 0.945736 0.361285 -0.302425

loop_
_geom_bond_atom_site_label_1
_geom_bond_atom_site_label_2
_geom_bond_distance
_ccdc_geom_bond_type
N6    O17   1.300610 A    
N7    O20   1.301235 A    
O7    Zn2   2.009733 S    
N3    O9    1.299671 A    
C6    C9    1.533512 S    
C16   H7    1.113565 S    
C16   H6    1.110612 S    
C3    C10   1.413856 S    
C5    C10   1.533512 S    
O1    C1    1.279198 A    
C8    C11   1.538258 S    
C1    C13   1.406286 S    
O6    C4    1.281806 A    
N4    O11   1.299671 A    
N2    N6    1.382670 S    
N6    O18   1.300101 A    
C7    C12   1.538257 S    
N7    O19   1.300177 A    
N3    O10   1.299176 A    
O2    C2    1.279198 A    
N5    O15   1.300667 A    
O5    C3    1.281807 A    
O7    C3    1.285962 A    
C12   H2    1.106660 S    
C5    C11   1.549932 S    
O3    Zn2   2.000850 S    
O8    C4    1.285962 A    
C6    C12   1.549932 S    
C10   C12   1.544706 S    
C15   H4    1.110610 S    
C15   H3    1.113565 S    
C7    C9    1.531229 S    
C13   N7    1.436389 S    
C6    C8    1.524158 S    
C11   H1    1.106660 S    
C9    C11   1.544705 S    
O2    Zn2   1.985325 S    
C16   H8    1.109255 S    
N8    O22   1.301236 A    
Zn1   N2    2.030173 S    
O1    Zn1   1.985325 S    
N1    N5    1.382675 S    
N1    N2    1.281071 D    
C7    N3    1.456050 S    
O5    Zn1   1.979266 S    
C6    O14   1.412337 S    
O4    C2    1.294697 A    
C8    N4    1.456050 S    
N5    O16   1.300188 A    
C13   C14   1.360081 D    
C14   N8    1.436389 S    
N8    O21   1.300177 A    
O14   C16   1.407508 S    
O6    Zn2   1.979265 S    
C5    O13   1.412336 S    
C5    C7    1.524158 S    
Zn2   N1    2.030173 S    
C4    C9    1.413856 S    
C15   H5    1.109254 S    
C2    C14   1.406286 S    
O13   C15   1.407507 S    
O4    Zn1   2.000850 S    
C8    C10   1.531228 S    
O3    C1    1.294696 A    
O8    Zn1   2.009733 S    
N4    O12   1.299176 A    
