data_mof_unit_11837.cif
_audit_creation_date              2013-03-05T15:39:27-0500
_audit_creation_method            fapswitch 2.2
_symmetry_space_group_name_H-M    P1
_symmetry_Int_Tables_number       1
_space_group_crystal_system       triclinic
_cell_length_a                    16.962013
_cell_length_b                    16.961685
_cell_length_c                    16.961768
_cell_angle_alpha                 67.426202
_cell_angle_beta                  67.426703
_cell_angle_gamma                 67.427279
_cell_volume                      3997.62017868

loop_
_atom_site_label
_atom_site_type_symbol
_atom_site_description
_atom_site_fract_x
_atom_site_fract_y
_atom_site_fract_z
_atom_type_partial_charge
O1    O     O_R   0.124540 0.978640 0.385460 -0.515738
O2    O     O_R   0.875460 0.021360 0.614540 -0.512815
O3    O     O_R   0.978640 0.385460 0.124540 -0.515726
O4    O     O_R   0.021360 0.614540 0.875460 -0.512826
O5    O     O_R   0.385460 0.124540 0.978640 -0.515717
O6    O     O_R   0.614540 0.875460 0.021360 -0.512818
O7    O     O_R   0.614540 0.021360 0.875460 -0.521896
O8    O     O_R   0.385460 0.978640 0.124540 -0.514456
O9    O     O_R   0.875460 0.614540 0.021360 -0.521910
O10   O     O_R   0.124540 0.385460 0.978640 -0.514470
O11   O     O_R   0.021360 0.875460 0.614540 -0.521905
O12   O     O_R   0.978640 0.124540 0.385460 -0.514462
C1    C     C_R   0.598805 0.021479 0.596743 0.174278
C2    C     C_R   0.405716 0.974251 0.401053 0.163118
C3    C     C_R   0.021452 0.596747 0.598817 0.174283
C4    C     C_R   0.974192 0.401068 0.405740 0.163144
C5    C     C_R   0.596753 0.598811 0.021445 0.174243
C6    C     C_R   0.401064 0.405751 0.974178 0.163217
Cu1   Cu    Cu3+1 0.995180 0.995180 0.424630 1.070750
Cu2   Cu    Cu3+1 0.004820 0.004820 0.575370 1.069725
Cu3   Cu    Cu3+1 0.995180 0.424630 0.995180 1.070785
Cu4   Cu    Cu3+1 0.004820 0.575370 0.004820 1.069700
Cu5   Cu    Cu3+1 0.424630 0.995180 0.995180 1.070755
Cu6   Cu    Cu3+1 0.575370 0.004820 0.004820 1.069721
C7    C     C_R   0.021680 0.830214 0.567723 0.813203
C8    C     C_R   0.971248 0.170740 0.435160 0.815973
C9    C     C_R   0.830214 0.567721 0.021683 0.813203
C10   C     C_R   0.170738 0.435158 0.971254 0.816008
C11   C     C_R   0.567724 0.021675 0.830216 0.813168
C12   C     C_R   0.435157 0.971254 0.170739 0.816011
C13   C     C_R   0.432100 0.169734 0.979076 0.822294
C14   C     C_R   0.564740 0.829052 0.028816 0.805492
C15   C     C_R   0.979085 0.432096 0.169732 0.822349
C16   C     C_R   0.028827 0.564736 0.829051 0.805495
C17   C     C_R   0.169730 0.979089 0.432094 0.822360
C18   C     C_R   0.829053 0.028817 0.564740 0.805472
O13   O     O_R   0.013780 0.867370 0.487190 -0.608803
O14   O     O_R   0.986220 0.132630 0.512810 -0.603764
O15   O     O_R   0.867370 0.487190 0.013780 -0.608783
O16   O     O_R   0.132630 0.512810 0.986220 -0.603781
O17   O     O_R   0.487190 0.013780 0.867370 -0.608814
O18   O     O_R   0.512810 0.986220 0.132630 -0.603779
O19   O     O_R   0.512810 0.132630 0.986220 -0.597064
O20   O     O_R   0.487190 0.867370 0.013780 -0.604898
O21   O     O_R   0.986220 0.512810 0.132630 -0.597051
O22   O     O_R   0.013780 0.487190 0.867370 -0.604921
O23   O     O_R   0.132630 0.986220 0.512810 -0.597042
O24   O     O_R   0.867370 0.013780 0.487190 -0.604901
C19   C     C_R   0.550422 0.004188 0.548439 -0.137491
C20   C     C_R   0.458660 0.979833 0.452482 -0.161407
C21   C     C_R   0.004125 0.548454 0.550450 -0.137488
C22   C     C_R   0.979755 0.452501 0.458693 -0.161381
C23   C     C_R   0.548452 0.550447 0.004118 -0.137424
C24   C     C_R   0.452482 0.458707 0.979754 -0.161380
C25   C     C_R   0.595041 0.984651 0.465418 0.293713
C26   C     C_R   0.423285 0.972228 0.544880 0.277618
C27   C     C_R   0.984566 0.465443 0.595079 0.293671
C28   C     C_R   0.972158 0.544898 0.423314 0.277598
C29   C     C_R   0.465414 0.595070 0.984618 0.293740
C30   C     C_R   0.544888 0.423361 0.972073 0.277553
C31   C     C_R   0.545023 0.992052 0.411063 0.314622
C32   C     C_R   0.459849 0.003480 0.585886 0.314599
C33   C     C_R   0.411060 0.545052 0.992016 0.314618
C34   C     C_R   0.585916 0.459893 0.003336 0.314420
C35   C     C_R   0.991958 0.411087 0.545065 0.314609
C36   C     C_R   0.003415 0.585902 0.459876 0.314611
C37   C     C_R   0.566669 0.010516 0.689023 -0.212937
C38   C     C_R   0.447054 0.955324 0.318300 -0.205145
C39   C     C_R   0.010489 0.689029 0.566685 -0.212943
C40   C     C_R   0.955278 0.318307 0.447071 -0.205145
C41   C     C_R   0.689029 0.566663 0.010516 -0.212871
C42   C     C_R   0.318295 0.447073 0.955292 -0.205210
C43   C     C_R   0.312474 0.989124 0.433325 -0.199350
C44   C     C_R   0.680930 0.042551 0.553369 -0.212836
C45   C     C_R   0.433363 0.312510 0.989028 -0.199003
C46   C     C_R   0.553377 0.680933 0.042524 -0.212902
C47   C     C_R   0.989081 0.433340 0.312493 -0.199361
C48   C     C_R   0.042553 0.553363 0.680928 -0.212905
H1    H     H_    0.510810 0.984409 0.727595 0.188909
H2    H     H_    0.517899 0.939074 0.291430 0.181826
H3    H     H_    0.984356 0.727607 0.510841 0.188900
H4    H     H_    0.939018 0.291433 0.517917 0.181896
H5    H     H_    0.727611 0.510795 0.984424 0.189073
H6    H     H_    0.291412 0.517918 0.939056 0.181842
H7    H     H_    0.275666 0.012817 0.491519 0.217829
H8    H     H_    0.708797 0.054245 0.482462 0.227627
H9    H     H_    0.491587 0.275719 0.012673 0.217719
H10   H     H_    0.482475 0.708804 0.054209 0.227651
H11   H     H_    0.012766 0.491538 0.275689 0.217834
H12   H     H_    0.054236 0.482458 0.708795 0.227626
C49   C     C_R   0.608357 0.028443 0.734790 -0.193960
C50   C     C_R   0.397271 0.957826 0.267501 -0.177846
C51   C     C_R   0.028450 0.734786 0.608356 -0.193972
C52   C     C_R   0.957806 0.267503 0.397278 -0.177885
C53   C     C_R   0.734788 0.608351 0.028453 -0.194028
C54   C     C_R   0.267498 0.397276 0.957817 -0.177848
C55   C     C_R   0.265167 0.973001 0.391296 -0.207851
C56   C     C_R   0.731796 0.042805 0.602146 -0.199039
C57   C     C_R   0.391311 0.265181 0.972964 -0.207858
C58   C     C_R   0.602146 0.731793 0.042802 -0.199011
C59   C     C_R   0.972984 0.391302 0.265174 -0.207853
C60   C     C_R   0.042828 0.602135 0.731789 -0.199013
C61   C     C_R   0.691247 0.046242 0.690468 0.319206
C62   C     C_R   0.308724 0.955619 0.308063 0.307951
C63   C     C_R   0.046284 0.690451 0.691231 0.319261
C64   C     C_R   0.955611 0.308063 0.308727 0.307947
C65   C     C_R   0.690460 0.691237 0.046260 0.319252
C66   C     C_R   0.308060 0.308724 0.955619 0.307926
O25   O     O_3   0.405467 0.050653 0.648284 -0.587961
C67   C     C_3   0.351041 0.003478 0.723902 0.114364
H13   H     H_    0.359933 0.007085 0.783882 0.150973
H14   H     H_    0.369320 0.931318 0.730882 0.139877
C68   C     C_3   0.253489 0.049708 0.725870 -0.281139
H15   H     H_    0.237412 0.118300 0.729809 0.225359
H16   H     H_    0.241870 0.054337 0.663945 0.252392
C69   C     C_3   0.191860 0.001056 0.805671 -0.922113
H17   H     H_    0.206667 0.932290 0.803258 0.262231
H18   H     H_    0.121788 0.035846 0.804728 0.268573
H19   H     H_    0.199618 0.999450 0.868413 0.267856
O26   O     O_3   0.569156 0.031553 0.319741 -0.597530
C70   C     C_3   0.654659 0.986903 0.275292 0.102350
H20   H     H_    0.649633 0.980154 0.214887 0.150084
H21   H     H_    0.680207 0.917620 0.313698 0.135732
C71   C     C_3   0.718649 0.043290 0.243951 -0.259998
H22   H     H_    0.701454 0.100323 0.187535 0.194972
H23   H     H_    0.711254 0.070574 0.297098 0.265874
C72   C     C_3   0.814873 0.990022 0.214358 -0.915017
H24   H     H_    0.833897 0.934881 0.271612 0.263335
H25   H     H_    0.859104 0.033814 0.188683 0.274473
H26   H     H_    0.823849 0.962425 0.160775 0.257614
O27   O     O_3   0.050590 0.648299 0.405492 -0.587957
C73   C     C_3   0.003420 0.723918 0.351064 0.114358
H27   H     H_    0.007024 0.783897 0.359963 0.150961
H28   H     H_    0.931261 0.730897 0.369338 0.139890
C74   C     C_3   0.049658 0.725890 0.253512 -0.281148
H29   H     H_    0.118246 0.729831 0.237445 0.225360
H30   H     H_    0.054291 0.663965 0.241890 0.252390
C75   C     C_3   0.001016 0.805690 0.191875 -0.922114
H31   H     H_    0.932253 0.803277 0.206673 0.262235
H32   H     H_    0.035815 0.804748 0.121803 0.268576
H33   H     H_    0.999407 0.868432 0.199637 0.267853
O28   O     O_3   0.031442 0.319763 0.569207 -0.597572
C76   C     C_3   0.986801 0.275326 0.654722 0.102486
H34   H     H_    0.980029 0.214923 0.649714 0.150093
H35   H     H_    0.917525 0.313743 0.680283 0.135851
C77   C     C_3   0.043217 0.243982 0.718687 -0.260032
H36   H     H_    0.100235 0.187557 0.701490 0.194972
H37   H     H_    0.070523 0.297124 0.711263 0.265870
C78   C     C_3   0.989969 0.214408 0.814925 -0.915121
H38   H     H_    0.934835 0.271667 0.833945 0.263382
H39   H     H_    0.033775 0.188751 0.859139 0.274470
H40   H     H_    0.962368 0.160817 0.823933 0.257628
O29   O     O_3   0.648345 0.405488 0.050463 -0.588062
C79   C     C_3   0.723911 0.351037 0.003272 0.114205
H41   H     H_    0.783926 0.359874 0.006867 0.150938
H42   H     H_    0.730876 0.369336 0.931111 0.139982
C80   C     C_3   0.725801 0.253502 0.049508 -0.281136
H43   H     H_    0.729734 0.237418 0.118102 0.225327
H44   H     H_    0.663849 0.241944 0.054123 0.252346
C81   C     C_3   0.805560 0.191824 0.000883 -0.922008
H45   H     H_    0.803182 0.206675 0.932095 0.262255
H46   H     H_    0.804528 0.121770 0.035660 0.268553
H47   H     H_    0.868323 0.199488 0.999338 0.267837
O30   O     O_3   0.319742 0.569174 0.031529 -0.597542
C82   C     C_3   0.275285 0.654680 0.986889 0.102380
H48   H     H_    0.214876 0.649655 0.980150 0.150086
H49   H     H_    0.313682 0.680234 0.917602 0.135722
C83   C     C_3   0.243960 0.718667 0.043277 -0.259990
H50   H     H_    0.187539 0.701482 0.100308 0.194953
H51   H     H_    0.297108 0.711256 0.070567 0.265876
C84   C     C_3   0.214387 0.814898 0.990006 -0.915053
H52   H     H_    0.271643 0.833911 0.934862 0.263346
H53   H     H_    0.188731 0.859128 0.033795 0.274464
H54   H     H_    0.160797 0.823892 0.962412 0.257610
O31   O     O_3   0.355187 0.932744 0.595902 -0.623858
C85   C     C_3   0.390222 0.839683 0.608909 -0.004412
H55   H     H_    0.454368 0.813906 0.626309 0.121525
H56   H     H_    0.401370 0.822671 0.547602 0.169354
C86   C     C_3   0.324185 0.793004 0.684949 -0.276917
H57   H     H_    0.309950 0.811809 0.745874 0.191878
H58   H     H_    0.260982 0.814666 0.667244 0.268573
C87   C     C_3   0.360941 0.692081 0.704449 -0.885600
H59   H     H_    0.371053 0.670839 0.646133 0.271867
H60   H     H_    0.313406 0.659957 0.762500 0.275435
H61   H     H_    0.425168 0.669467 0.720447 0.219833
O32   O     O_3   0.686683 0.953566 0.439400 -0.626041
C88   C     C_3   0.713068 0.859767 0.474039 0.033007
H62   H     H_    0.753988 0.830359 0.417881 0.147430
H63   H     H_    0.656722 0.828816 0.510438 0.113550
C89   C     C_3   0.771121 0.833927 0.534836 -0.311596
H64   H     H_    0.831751 0.857125 0.496698 0.225728
H65   H     H_    0.734295 0.865665 0.589485 0.226012
C90   C     C_3   0.797803 0.733894 0.575315 -0.979607
H66   H     H_    0.739594 0.707175 0.603130 0.256559
H67   H     H_    0.827280 0.718810 0.629220 0.272607
H68   H     H_    0.846942 0.701089 0.524091 0.240002
O33   O     O_3   0.595890 0.355354 0.932461 -0.623809
C91   C     C_3   0.608937 0.390591 0.839408 -0.004891
H69   H     H_    0.626763 0.454501 0.813778 0.121719
H70   H     H_    0.547501 0.402264 0.822334 0.169025
C92   C     C_3   0.684602 0.324408 0.792627 -0.275952
H71   H     H_    0.745624 0.309575 0.811554 0.192294
H72   H     H_    0.666399 0.261501 0.814073 0.268420
C93   C     C_3   0.704233 0.361436 0.691711 -0.886369
H73   H     H_    0.645632 0.372586 0.670357 0.271324
H74   H     H_    0.761764 0.313561 0.659509 0.276043
H75   H     H_    0.721131 0.425189 0.669289 0.219749
O34   O     O_3   0.439389 0.686715 0.953546 -0.626057
C94   C     C_3   0.474009 0.713117 0.859746 0.033033
H76   H     H_    0.417845 0.754063 0.830354 0.147433
H77   H     H_    0.510378 0.656778 0.828780 0.113503
C95   C     C_3   0.534833 0.771143 0.833904 -0.311618
H78   H     H_    0.496723 0.831767 0.857117 0.225738
H79   H     H_    0.589488 0.734287 0.865631 0.226048
C96   C     C_3   0.575294 0.797842 0.733870 -0.979559
H80   H     H_    0.603091 0.739644 0.707137 0.256542
H81   H     H_    0.629210 0.827306 0.718785 0.272583
H82   H     H_    0.524067 0.846999 0.701079 0.240001
O35   O     O_3   0.932687 0.595919 0.355206 -0.623860
C97   C     C_3   0.839627 0.608931 0.390231 -0.004405
H83   H     H_    0.813843 0.626334 0.454377 0.121531
H84   H     H_    0.822614 0.547625 0.401379 0.169367
C98   C     C_3   0.792962 0.684970 0.324184 -0.276947
H85   H     H_    0.811769 0.745895 0.309950 0.191886
H86   H     H_    0.814632 0.667262 0.260981 0.268580
C99   C     C_3   0.692040 0.704476 0.360927 -0.885566
H87   H     H_    0.670797 0.646157 0.371045 0.271864
H88   H     H_    0.659926 0.762521 0.313380 0.275429
H89   H     H_    0.669417 0.720484 0.425152 0.219847
O36   O     O_3   0.953509 0.439415 0.686726 -0.626008
C100  C     C_3   0.859719 0.474094 0.713151 0.032900
H90   H     H_    0.830277 0.417955 0.754106 0.147331
H91   H     H_    0.828746 0.510506 0.656821 0.113500
C101  C     C_3   0.833971 0.534906 0.771165 -0.311605
H92   H     H_    0.857183 0.496765 0.831787 0.225796
H93   H     H_    0.865752 0.589521 0.734300 0.226033
C102  C     C_3   0.733960 0.575470 0.797867 -0.979610
H94   H     H_    0.707209 0.603277 0.739682 0.256633
H95   H     H_    0.718967 0.629395 0.827286 0.272577
H96   H     H_    0.701118 0.524298 0.847063 0.239993
N1    N     N_R   0.734044 0.068673 0.734155 0.141212
O37   O     O_R   0.740200 0.149269 0.709078 -0.403022
O38   O     O_R   0.781057 0.006040 0.785558 -0.303314
N2    N     N_R   0.264458 0.933508 0.265543 0.142987
O39   O     O_R   0.214162 0.996204 0.217407 -0.295704
O40   O     O_R   0.284114 0.851598 0.265096 -0.361333
N3    N     N_R   0.068798 0.734106 0.733992 0.141145
O41   O     O_R   0.006222 0.785525 0.781021 -0.303369
O42   O     O_R   0.149409 0.708968 0.740120 -0.402855
N4    N     N_R   0.933523 0.265535 0.264451 0.142997
O43   O     O_R   0.851619 0.265077 0.284093 -0.361318
O44   O     O_R   0.996231 0.217403 0.214157 -0.295700
N5    N     N_R   0.734121 0.734011 0.068752 0.141164
O45   O     O_R   0.785534 0.781038 0.006160 -0.303364
O46   O     O_R   0.709005 0.740137 0.149363 -0.402847
N6    N     N_R   0.265521 0.264437 0.933559 0.143007
O47   O     O_R   0.265070 0.284046 0.851658 -0.361306
O48   O     O_R   0.217392 0.214150 0.996287 -0.295708

loop_
_geom_bond_atom_site_label_1
_geom_bond_atom_site_label_2
_geom_bond_distance
_ccdc_geom_bond_type
C29   O34   1.382675 S    
C38   H2    1.072098 S    
C76   C77   1.529425 S    
O6    C14   1.304278 A    
C84   H52   1.110644 S    
C8    C52   1.474502 S    
C6    C45   1.414124 A    
O7    C11   1.296528 A    
O10   C10   1.300384 A    
C74   C75   1.524557 S    
C15   O21   1.300865 A    
C92   H71   1.109443 S    
C9    C53   1.473015 S    
C98   H85   1.109207 S    
C101  C102  1.519739 S    
C17   O23   1.300872 A    
O8    Cu5   1.971250 S    
C97   H84   1.112601 S    
C23   C29   1.418857 A    
C98   C99   1.527327 S    
C78   H38   1.110647 S    
C74   H29   1.111084 S    
C44   C56   1.408026 A    
C82   H48   1.111177 S    
C24   C30   1.419477 A    
C69   H17   1.108645 S    
C7    C51   1.473003 S    
C57   C66   1.406233 A    
C84   H53   1.110365 S    
O1    C17   1.299186 A    
C38   C50   1.400099 A    
C89   H64   1.111490 S    
C13   O19   1.300886 A    
C15   C59   1.475329 S    
O30   C82   1.414575 S    
C40   C52   1.400102 A    
C39   H3    1.070366 S    
C4    C47   1.414129 A    
C39   C51   1.400993 A    
C78   H39   1.110366 S    
N5    O45   1.302678 A    
C23   C34   1.422319 A    
O9    Cu4   1.971290 S    
C3    C48   1.415281 A    
C41   C53   1.400996 A    
C24   C33   1.418993 A    
O3    C15   1.299188 A    
N4    O44   1.302687 A    
C56   C61   1.402129 A    
C94   C95   1.525237 S    
Cu6   O18   1.972582 S    
N2    O39   1.302687 A    
C65   N5    1.436059 S    
C60   C63   1.402124 A    
C74   H30   1.109963 S    
N1    O37   1.299882 A    
C28   O35   1.383159 S    
C25   O32   1.382677 S    
C67   H13   1.110959 S    
C63   N3    1.436059 S    
C88   C89   1.525245 S    
O5    C13   1.299209 A    
Cu1   O13   1.972569 S    
C89   C90   1.519787 S    
C7    O13   1.302229 A    
C87   H59   1.110666 S    
C47   C59   1.408622 A    
C28   C36   1.419880 A    
C85   C86   1.527330 S    
C53   C65   1.404710 A    
Cu1   Cu2   2.693184 S    
C9    O15   1.302221 A    
C73   H27   1.110958 S    
C70   C71   1.529409 S    
N6    O48   1.302687 A    
C35   O28   1.393836 S    
C5    C46   1.415286 A    
Cu5   Cu6   2.693220 S    
C95   C96   1.519787 S    
C91   H69   1.115541 S    
C16   O22   1.300642 A    
C13   C57   1.475358 S    
C100  C101  1.525270 S    
C46   H10   1.077774 S    
C18   C56   1.480469 S    
C79   H42   1.110810 S    
C68   C69   1.524563 S    
C51   C63   1.404722 A    
C83   H51   1.109705 S    
C54   C66   1.400239 A    
O6    Cu6   1.971247 S    
C80   H44   1.109969 S    
Cu3   Cu4   2.693172 S    
C66   N6    1.436710 S    
C31   O26   1.393844 S    
C80   H43   1.111077 S    
C93   H73   1.111082 S    
C92   H72   1.111238 S    
C61   N1    1.436068 S    
C101  H93   1.104359 S    
C45   C57   1.408625 A    
C97   H83   1.115505 S    
C77   H37   1.109708 S    
C83   C84   1.522942 S    
O10   Cu3   1.971289 S    
C6    C42   1.407950 A    
C33   O30   1.393838 S    
C3    C39   1.407486 A    
C84   H54   1.110838 S    
O4    C16   1.304286 A    
O11   Cu2   1.971240 S    
O1    Cu1   1.971286 S    
C88   H63   1.119642 S    
C99   H87   1.110669 S    
C77   H36   1.106148 S    
C26   O31   1.383160 S    
O2    Cu2   1.971286 S    
Cu2   O23   1.972617 S    
C81   H47   1.110462 S    
C95   H79   1.104377 S    
C37   H1    1.070356 S    
C79   C80   1.528215 S    
C12   C50   1.474512 S    
C96   H82   1.103790 S    
C27   C35   1.419681 A    
O35   C97   1.416517 S    
N5    O46   1.299882 A    
C6    C24   1.518679 S    
Cu1   O24   1.972616 S    
O34   C94   1.419266 S    
C90   H67   1.106627 S    
N4    O43   1.300773 A    
C62   N2    1.436710 S    
C34   O29   1.394701 S    
O36   C100  1.419281 S    
C20   C26   1.419562 A    
Cu5   O20   1.972588 S    
C14   C58   1.480480 S    
O12   C8    1.300398 A    
N1    O38   1.302683 A    
C21   C36   1.422297 A    
C81   H46   1.109088 S    
C43   C55   1.408612 A    
C96   H80   1.106593 S    
C72   H25   1.110367 S    
C52   C64   1.400214 A    
C77   C78   1.522920 S    
O4    Cu4   1.971248 S    
C2    C43   1.414113 A    
O31   C85   1.416517 S    
Cu3   O15   1.972623 S    
C93   H75   1.111140 S    
C90   H68   1.103789 S    
Cu4   O16   1.972622 S    
N6    O47   1.300772 A    
C91   C92   1.527411 S    
C37   C49   1.400990 A    
C94   H76   1.108740 S    
C14   O20   1.300669 A    
N3    O42   1.299883 A    
C4    C40   1.407994 A    
C100  H91   1.119631 S    
C16   C60   1.480484 S    
C44   H8    1.077785 S    
C67   C68   1.528232 S    
C43   H7    1.079068 S    
C70   H20   1.111178 S    
C42   H6    1.072105 S    
C22   C28   1.419558 A    
C30   O33   1.383152 S    
C69   H18   1.109067 S    
C71   C72   1.522933 S    
C1    C19   1.521938 S    
C45   H9    1.079084 S    
C83   H50   1.106138 S    
C93   H74   1.110397 S    
Cu3   O22   1.972573 S    
C82   C83   1.529419 S    
C3    C21   1.521928 S    
C102  H95   1.106650 S    
C92   C93   1.527376 S    
C26   C32   1.419883 A    
C78   H40   1.110836 S    
C46   C58   1.408007 A    
C101  H92   1.111484 S    
O7    Cu6   1.971252 S    
O27   C73   1.416934 S    
C5    C23   1.521987 S    
C11   C49   1.472992 S    
O26   C70   1.414571 S    
O9    C9    1.296524 A    
C71   H23   1.109707 S    
C68   H15   1.111088 S    
C1    C37   1.407480 A    
O2    C18   1.304273 A    
C59   C64   1.406215 A    
C76   H35   1.109624 S    
C85   H55   1.115503 S    
C58   C65   1.402129 A    
C89   H65   1.104385 S    
C19   C32   1.422304 A    
C87   H60   1.110128 S    
C11   O17   1.302232 A    
C47   H11   1.079064 S    
C29   C33   1.419670 A    
C8    O14   1.301599 A    
C4    C22   1.518745 S    
C49   C61   1.404711 A    
C75   H33   1.110460 S    
C91   H70   1.112775 S    
N3    O41   1.302678 A    
C98   H86   1.111085 S    
C5    C41   1.407517 A    
C75   H32   1.109068 S    
C80   C81   1.524536 S    
C99   H89   1.110796 S    
O5    Cu5   1.971246 S    
C99   H88   1.110130 S    
Cu5   O17   1.972583 S    
C69   H19   1.110460 S    
C10   C54   1.474495 S    
C30   C34   1.419883 A    
O8    C12   1.300407 A    
C81   H45   1.108655 S    
C86   C87   1.527330 S    
C96   H81   1.106627 S    
C76   H34   1.111178 S    
O29   C79   1.416923 S    
C72   H26   1.110839 S    
C88   H62   1.108738 S    
C19   C25   1.418830 A    
O25   C67   1.416938 S    
C27   O36   1.382697 S    
C21   C27   1.418842 A    
C64   N4    1.436714 S    
C2    C20   1.518721 S    
C32   O25   1.394729 S    
Cu6   O19   1.972588 S    
C48   H12   1.077788 S    
C73   C74   1.528220 S    
C73   H28   1.110777 S    
C102  H94   1.106570 S    
C25   C31   1.419666 A    
O12   Cu1   1.971240 S    
C85   H56   1.112597 S    
C36   O27   1.394726 S    
C94   H77   1.119643 S    
N2    O40   1.300772 A    
C18   O24   1.300649 A    
Cu2   O14   1.972568 S    
C2    C38   1.407988 A    
O33   C91   1.416498 S    
C40   H4    1.072107 S    
C67   H14   1.110780 S    
C70   H21   1.109590 S    
C55   C62   1.406226 A    
O3    Cu3   1.971247 S    
C75   H31   1.108643 S    
C50   C62   1.400226 A    
C86   H57   1.109203 S    
C42   C54   1.400088 A    
O11   C7    1.296521 A    
C79   H41   1.110966 S    
Cu4   O21   1.972571 S    
C71   H22   1.106132 S    
C95   H78   1.111489 S    
C82   H49   1.109598 S    
C90   H66   1.106587 S    
C102  H96   1.103748 S    
C100  H90   1.108850 S    
C20   C31   1.419011 A    
C10   O16   1.301598 A    
O28   C76   1.414564 S    
C12   O18   1.301614 A    
C41   H5    1.070355 S    
C48   C60   1.408029 A    
C86   H58   1.111085 S    
O32   C88   1.419265 S    
C17   C55   1.475320 S    
C87   H61   1.110791 S    
C97   C98   1.527329 S    
C22   C35   1.419024 A    
C72   H24   1.110647 S    
C1    C44   1.415284 A    
C68   H16   1.109960 S    
