data_mof_unit_55916.cif
_audit_creation_date              2013-03-05T16:31:28-0500
_audit_creation_method            fapswitch 2.2
_symmetry_space_group_name_H-M    P1
_symmetry_Int_Tables_number       1
_space_group_crystal_system       triclinic
_cell_length_a                    15.00339
_cell_length_b                    10.89567
_cell_length_c                    9.641953
_cell_angle_alpha                 91.391351
_cell_angle_beta                  89.742364
_cell_angle_gamma                 91.44815
_cell_volume                      1575.20932673

loop_
_atom_site_label
_atom_site_type_symbol
_atom_site_description
_atom_site_fract_x
_atom_site_fract_y
_atom_site_fract_z
_atom_type_partial_charge
O1    O     O_R   0.500000 0.319640 0.618810 -0.565574
O2    O     O_R   0.500010 0.319680 0.381230 -0.616438
C1    C     C_R   0.498551 0.263151 0.498688 0.792994
O3    O     O_R   0.370250 0.499950 0.618800 -0.577827
O4    O     O_R   0.370260 0.499990 0.381220 -0.581174
C2    C     C_R   0.329208 0.497871 0.499961 0.823967
Cu1   Cu    Cu3+1 0.500000 0.499980 0.640670 0.994459
Cu2   Cu    Cu3+1 0.500000 0.500020 0.359330 0.955516
O5    O     O_R   0.499990 0.680320 0.618770 -0.585305
O6    O     O_R   0.500000 0.680360 0.381190 -0.581256
O7    O     O_R   0.629740 0.500010 0.618780 -0.547027
O8    O     O_R   0.629750 0.500050 0.381200 -0.587508
C3    C     C_R   0.499889 0.737300 0.501118 0.821115
C4    C     C_R   0.670733 0.501057 0.499699 0.835582
C5    C     C_R   0.814495 0.598637 0.438780 -0.207230
C6    C     C_R   0.767017 0.501892 0.498868 -0.044199
C7    C     C_R   0.810923 0.404968 0.556588 -0.226360
C8    C     C_R   0.903436 0.402818 0.553295 0.120507
C9    C     C_R   0.952964 0.501815 0.496030 0.081841
C10   C     C_R   0.908359 0.602177 0.439512 -0.000260
C11   C     C_R   0.946630 0.301808 0.604884 -0.178133
C12   C     C_R   0.038840 0.297555 0.601395 -0.167441
C13   C     C_R   0.090230 0.395978 0.548993 0.067553
C14   C     C_R   0.046606 0.498903 0.494462 0.023845
C15   C     C_R   0.096511 0.598266 0.438799 0.005881
C16   C     C_R   0.052538 0.700104 0.383627 -0.020585
C17   C     C_R   0.958017 0.701301 0.382407 -0.044431
C18   C     C_R   0.184138 0.393771 0.548501 0.239704
C19   C     C_R   0.232554 0.495159 0.498580 -0.028152
C20   C     C_R   0.189803 0.594736 0.443497 -0.252418
H1    H     H_    0.776785 0.670613 0.393169 0.133094
H2    H     H_    0.772745 0.329506 0.600174 0.161352
H3    H     H_    0.908851 0.225119 0.647119 0.157270
H4    H     H_    0.068702 0.216148 0.640400 0.165084
H5    H     H_    0.231145 0.670030 0.406660 0.126793
C21   C     C_R   0.521081 0.067685 0.612755 -0.052519
C22   C     C_R   0.495740 0.130700 0.497046 -0.088850
C23   C     C_R   0.467034 0.060565 0.380314 -0.193789
H6    H     H_    0.443731 0.104840 0.288823 0.147590
C24   C     C_R   0.467518 0.931430 0.382240 -0.173347
H7    H     H_    0.445133 0.879925 0.290858 0.189981
C25   C     C_R   0.496831 0.870423 0.501124 -0.068089
C26   C     C_R   0.523080 0.943711 0.614646 -0.001511
C27   C     C_3   0.564664 0.943882 0.756254 -0.119087
C28   C     C_3   0.562454 0.087796 0.752261 0.171798
C29   C     C_R   0.576512 0.521898 0.073059 0.215477
N1    N     N_R   0.500570 0.500930 0.147930 -0.234172
C30   C     C_R   0.429365 0.451337 0.074116 0.023235
C31   C     C_R   0.428714 0.453243 0.925181 0.034449
N2    N     N_R   0.500570 0.500890 0.852020 -0.233137
C32   C     C_R   0.577086 0.518926 0.927286 0.286247
C33   C     C_3   0.641559 0.624098 0.923347 -0.431768
C34   C     C_3   0.639458 0.629132 0.081511 -0.457429
H8    H     H_    0.707115 0.597499 0.879378 0.218633
H9    H     H_    0.610881 0.702155 0.875030 0.232174
H10   H     H_    0.704109 0.605602 0.128650 0.202238
H11   H     H_    0.608170 0.712637 0.126173 0.249826
C35   C     C_2   0.502303 0.884128 0.859946 0.329553
H12   H     H_    0.438618 0.844365 0.826583 0.106329
O9    O     O_2   0.521996 0.881022 0.982443 -0.589462
C36   C     C_2   0.657773 0.893446 0.756440 0.300791
H13   H     H_    0.699119 0.907859 0.847745 0.113689
O10   O     O_2   0.687378 0.836772 0.656240 -0.564268
N3    N     N_2   0.500266 0.144820 0.849883 -0.405182
H14   H     H_    0.434725 0.114441 0.841139 0.227909
C37   C     C_3   0.529680 0.164929 0.991891 -0.539394
H15   H     H_    0.471793 0.157354 0.063110 0.169080
H16   H     H_    0.559269 0.258559 0.004802 0.231035
H17   H     H_    0.580139 0.097680 0.021513 0.257396
C38   C     C_2   0.651346 0.156704 0.738290 0.376527
H18   H     H_    0.701899 0.121592 0.667980 0.044864
O11   O     O_2   0.666667 0.253228 0.801611 -0.547368
C39   C     C_2   0.359989 0.378304 0.146390 0.451151
H19   H     H_    0.378776 0.301664 0.208048 0.037087
O12   O     O_2   0.281553 0.404869 0.140625 -0.496223
C40   C     C_2   0.355119 0.388820 0.851391 0.455881
H20   H     H_    0.368804 0.313200 0.780383 0.091996
O13   O     O_2   0.278536 0.422112 0.866583 -0.509419
N4    N     N_2   0.231072 0.290818 0.596375 -0.453872
H21   H     H_    0.208244 0.255167 0.688288 0.272262
C41   C     C_3   0.249123 0.197989 0.491052 -0.683639
H22   H     H_    0.185779 0.154910 0.452310 0.267690
H23   H     H_    0.290490 0.125820 0.535870 0.226322
H24   H     H_    0.286480 0.238984 0.403272 0.232300
C42   C     C_2   0.105479 0.806552 0.330237 0.442609
H25   H     H_    0.161702 0.791771 0.261242 0.069057
O14   O     O_2   0.087592 0.911574 0.365271 -0.533414
C43   C     C_2   0.911003 0.804979 0.319464 0.440765
H26   H     H_    0.855014 0.846419 0.372668 0.073172
O15   O     O_2   0.933498 0.843277 0.206259 -0.508412

loop_
_geom_bond_atom_site_label_1
_geom_bond_atom_site_label_2
_geom_bond_distance
_ccdc_geom_bond_type
C37   H16   1.106680 S    
C8    C11   1.394340 A    
C39   H19   1.080595 S    
C9    C10   1.417679 A    
C41   H22   1.111401 S    
Cu1   Cu2   2.712678 S    
C42   H25   1.084744 S    
C27   C28   1.570643 S    
Cu1   O7    1.956997 S    
C16   C17   1.418629 A    
C19   C20   1.391705 A    
C20   H5    1.081828 S    
C18   C19   1.400653 A    
C40   O13   1.220752 D    
C23   H6    1.079406 S    
O7    C4    1.300247 A    
C37   H17   1.109835 S    
C11   H3    1.084351 S    
C35   O9    1.220271 D    
C5    C6    1.393626 A    
C8    C9    1.416058 A    
C36   O10   1.221898 D    
C18   N4    1.426619 S    
O5    C3    1.306353 A    
C27   C35   1.513690 S    
C6    C7    1.387771 A    
C13   C14   1.425229 A    
C38   H18   1.085669 S    
C33   H9    1.092312 S    
C24   C25   1.416164 A    
C37   H15   1.107434 S    
C11   C12   1.385632 A    
C39   O12   1.220794 D    
C36   H13   1.085260 S    
O3    Cu1   1.959012 S    
C3    C25   1.452343 S    
C41   H23   1.110778 S    
C33   H8    1.111670 S    
N2    C32   1.368339 A    
C42   O14   1.221244 D    
C5    C10   1.407873 A    
C12   H4    1.080155 S    
C32   C33   1.481898 S    
C14   C15   1.415759 A    
O3    C2    1.302690 A    
N4    C41   1.445373 S    
C34   H11   1.111025 S    
C35   H12   1.085908 S    
C29   C32   1.405115 A    
O1    C1    1.298334 A    
N3    C37   1.450352 S    
C26   C27   1.503654 S    
C22   C23   1.407906 A    
N1    C30   1.377960 A    
Cu2   O8    1.959011 S    
C7    C8    1.389016 A    
C31   C40   1.470281 S    
C21   C28   1.492977 S    
C13   C18   1.409731 A    
C40   H20   1.081518 S    
Cu2   O6    1.971102 S    
C24   H7    1.083139 S    
C43   O15   1.221117 D    
C4    C6    1.444364 S    
C25   C26   1.391538 A    
C41   H24   1.109702 S    
C33   C34   1.524875 S    
C34   H10   1.111467 S    
C15   C20   1.402161 A    
Cu1   O5    1.981333 S    
C29   N1    1.363449 A    
C30   C31   1.436766 A    
C28   C38   1.520920 S    
O1    Cu1   1.971102 S    
C30   C39   1.476748 S    
O2    Cu2   1.981333 S    
Cu1   N2    2.037665 S    
O8    C4    1.299626 A    
O6    C3    1.298929 A    
O4    Cu2   1.956999 S    
C5    H1    1.081632 S    
C10   C17   1.417464 A    
C27   C36   1.514044 S    
C28   N3    1.461356 S    
N3    H14   1.032748 S    
O2    C1    1.302082 A    
C15   C16   1.420660 A    
Cu2   N1    2.038552 S    
C23   C24   1.407785 A    
O4    C2    1.298036 A    
C16   C42   1.489922 S    
C29   C34   1.484579 S    
C9    C14   1.406105 A    
C17   C43   1.489754 S    
N4    H21   1.029978 S    
C2    C19   1.449809 S    
C43   H26   1.084767 S    
C1    C22   1.442398 S    
C21   C22   1.383787 A    
C31   N2    1.382766 A    
C7    H2    1.082388 S    
C12   C13   1.407403 A    
C21   C26   1.352442 A    
C38   O11   1.220459 D    
