data_mof_unit_60561.cif
_audit_creation_date              2012-12-10T21:16:00-0500
_audit_creation_method            fapswitch 2.2
_symmetry_space_group_name_H-M    P1
_symmetry_Int_Tables_number       1
_space_group_crystal_system       triclinic
_cell_length_a                    13.644109
_cell_length_b                    16.744654
_cell_length_c                    17.568003
_cell_angle_alpha                 90.051463
_cell_angle_beta                  90.12241
_cell_angle_gamma                 83.08779
_cell_volume                      3984.50678981

loop_
_atom_site_label
_atom_site_type_symbol
_atom_type_description
_atom_site_fract_x
_atom_site_fract_y
_atom_site_fract_z
_atom_type_partial_charge
C1    C     C_R   0.499238 0.500086 0.646879 0.906401
C2    C     C_R   0.442398 0.837878 0.447746 -0.258620
C3    C     C_R   0.556582 0.246423 0.551249 0.016213
C4    C     C_R   0.443443 0.753554 0.448718 0.016826
C5    C     C_R   0.443435 0.257392 0.448649 0.026829
C6    C     C_R   0.556513 0.742634 0.551368 0.026589
C7    C     C_R   0.442411 0.173277 0.447719 -0.256886
C8    C     C_R   0.557509 0.826752 0.552285 -0.257085
C9    C     C_R   0.499994 0.124427 0.499975 0.153878
C10   C     C_R   0.499954 0.875579 0.499997 0.154240
C11   C     C_1   0.499976 0.036578 0.499980 -0.034568
C12   C     C_R   0.498989 0.500089 0.353124 0.907446
C13   C     C_1   0.499955 0.963429 0.499979 -0.034545
C14   C     C_R   0.686153 0.485756 0.500022 0.909264
C15   C     C_R   0.313847 0.514244 0.499978 0.908507
C16   C     C_1   0.210230 0.525152 0.499941 -0.178594
C17   C     C_1   0.789773 0.474848 0.500058 -0.180055
C18   C     C_2   0.018853 0.534676 0.499907 -0.155176
C19   C     C_2   0.981152 0.465325 0.500091 -0.155053
C20   C     C_1   0.877433 0.467709 0.500083 0.015447
C21   C     C_1   0.122571 0.532292 0.499916 0.015787
C22   C     C_R   0.474727 0.429465 0.152621 0.658492
C23   C     C_R   0.475262 0.574596 0.152489 -0.228633
C24   C     C_R   0.476116 0.575389 0.847372 0.658713
C25   C     C_R   0.485569 0.428512 0.231115 -0.280125
C26   C     C_R   0.486933 0.574198 0.768910 -0.278914
C27   C     C_R   0.491405 0.500695 0.270626 -0.128870
C28   C     C_R   0.492106 0.500927 0.729379 -0.129640
C29   C     C_R   0.486099 0.573798 0.230953 -0.194987
C30   C     C_R   0.486539 0.428900 0.769030 -0.193998
C31   C     C_R   0.475723 0.430244 0.847462 -0.228346
C32   C     C_R   0.469576 0.502558 0.113834 -0.005707
C33   C     C_R   0.470387 0.503374 0.886111 -0.005951
C34   C     C_1   0.464928 0.503325 0.033731 0.061991
C35   C     C_1   0.465195 0.503570 0.966180 0.061978
C36   C     C_R   0.557602 0.162101 0.552206 -0.258789
F1    F     F_    0.470264 0.359388 0.114506 -0.666506
F2    F     F_    0.472083 0.646304 0.885493 -0.666133
H1    H     H_    0.027351 0.407682 0.500243 0.161859
H2    H     H_    0.396922 0.873304 0.406467 0.145727
H3    H     H_    0.601278 0.274832 0.591686 0.126713
H4    H     H_    0.398789 0.725123 0.408264 0.126110
H5    H     H_    0.398791 0.294451 0.408151 0.130416
H6    H     H_    0.601138 0.705594 0.591890 0.130146
H7    H     H_    0.396937 0.146664 0.406459 0.147910
H8    H     H_    0.602943 0.853386 0.593560 0.147291
H9    H     H_    0.972654 0.592319 0.499755 0.161784
H10   H     H_    0.489130 0.371544 0.260777 0.183667
H11   H     H_    0.490897 0.630422 0.739279 0.184466
H12   H     H_    0.490089 0.630183 0.260400 0.172661
H13   H     H_    0.490185 0.371760 0.739579 0.173436
H14   H     H_    0.472196 0.631061 0.121938 0.183925
H15   H     H_    0.472266 0.374424 0.877985 0.184057
H16   H     H_    0.603101 0.126656 0.593457 0.145715
N1    N     N_R   0.499970 0.292770 0.499970 -0.090808
N2    N     N_R   0.500030 0.707230 0.500030 -0.090641
O1    O     O_R   0.500000 0.433430 0.610870 -0.626151
O2    O     O_R   0.500000 0.566570 0.389130 -0.626003
O3    O     O_R   0.500010 0.566520 0.610900 -0.625039
O4    O     O_R   0.499990 0.433480 0.389100 -0.624921
O5    O     O_R   0.640340 0.423880 0.499970 -0.610800
O6    O     O_R   0.359660 0.576120 0.500030 -0.611249
O7    O     O_R   0.640350 0.556960 0.500000 -0.612637
O8    O     O_R   0.359650 0.443040 0.500000 -0.613136
Zn1   Zn    Zn3+2 0.500000 0.411140 0.499980 0.951966
Zn2   Zn    Zn3+2 0.500000 0.588860 0.500020 0.952118

loop_
_geom_bond_atom_site_label_1
_geom_bond_atom_site_label_2
_ccdc_geom_bond_type
C9    C36   A    
C2    C4    A    
C30   H13   S    
C31   C33   A    
C16   C21   T    
C1    O1    A    
C25   C27   A    
C18   C21   S    
C11   C13   T    
C5    N1    A    
C24   F2    S    
C24   C33   A    
C25   H10   S    
C4    N2    A    
C15   O8    A    
C12   O2    A    
C23   C32   A    
C4    H4    S    
C28   C30   A    
C5    H5    S    
O7    Zn2   S    
C10   C13   S    
O3    Zn2   S    
C1    C28   S    
C6    H6    S    
C18   H9    S    
C9    C11   S    
C14   C17   S    
C23   H14   S    
C22   C32   A    
C3    C36   A    
N2    Zn2   S    
C14   O7    A    
C7    H7    S    
O8    Zn1   S    
C8    C10   A    
N1    Zn1   S    
C15   O6    A    
C24   C26   A    
O4    Zn1   S    
C34   C35   T    
C5    C7    A    
C29   H12   S    
C1    O3    A    
O5    Zn1   S    
C30   C31   A    
C23   C29   A    
C8    H8    S    
C27   C29   A    
O6    Zn2   S    
C12   C27   S    
C15   C16   S    
C2    C10   A    
C2    H2    S    
C14   O5    A    
C17   C20   T    
C36   H16   S    
C19   H1    S    
C18   C19   D    
C26   H11   S    
O1    Zn1   S    
C12   O4    A    
C7    C9    A    
C3    H3    S    
C6    C8    A    
C33   C35   S    
C3    N1    A    
C22   F1    S    
C26   C28   A    
O2    Zn2   S    
C31   H15   S    
C19   C20   S    
C6    N2    A    
C22   C25   A    
C32   C34   S    
