data_mof_unit_49676.cif
_audit_creation_date              2012-10-26T20:19:32-0400
_audit_creation_method            fapswitch 2.2
_symmetry_space_group_name_H-M    P1
_symmetry_Int_Tables_number       1
_space_group_crystal_system       triclinic
_cell_length_a                    10.908339
_cell_length_b                    10.810407
_cell_length_c                    9.68042
_cell_angle_alpha                 89.282854
_cell_angle_beta                  90.725479
_cell_angle_gamma                 93.072436
_cell_volume                      1139.73744354

loop_
_atom_site_label
_atom_site_type_symbol
_atom_type_description
_atom_site_fract_x
_atom_site_fract_y
_atom_site_fract_z
_atom_type_partial_charge
C1    C     C_R   0.507001 0.262636 0.501806 0.558972
C2    C     C_R   0.523749 0.059273 0.633147 -0.019133
C3    C     C_R   0.508592 0.127116 0.506842 -0.011261
C4    C     C_R   0.260099 0.495374 0.498300 0.525037
C5    C     C_R   0.469895 0.065037 0.386375 -0.143239
C6    C     C_R   0.450725 0.936878 0.385335 0.206192
C7    C     C_R   0.466151 0.869832 0.508382 0.042410
C8    C     C_R   0.681339 0.645790 0.144185 0.140578
C9    C     C_R   0.796922 0.658367 0.086498 -0.177720
C10   C     C_R   0.805124 0.659718 0.944325 0.158407
C11   C     C_R   0.696871 0.635394 0.865312 0.311110
C12   C     C_3   0.876295 0.483551 0.498717 0.033654
C13   C     C_R   0.593289 0.567886 0.926743 0.067324
C14   C     C_R   0.589300 0.570977 0.075240 0.072501
C15   C     C_R   0.417899 0.428650 0.076317 0.411567
C16   C     C_R   0.485901 0.736072 0.500985 0.594799
C17   C     C_R   0.416006 0.429981 0.928398 0.318253
C18   C     C_R   0.738570 0.490321 0.500247 0.664029
C19   C     C_3   0.069601 0.396115 0.616843 0.206773
C20   C     C_3   0.922593 0.380469 0.604295 0.305078
C21   C     C_3   0.074973 0.625170 0.516038 0.256721
C22   C     C_3   0.066369 0.440148 0.346539 0.183514
C23   C     C_3   0.933247 0.614893 0.540144 0.096456
C24   C     C_3   0.121080 0.488403 0.494053 0.091052
C25   C     C_3   0.924489 0.461222 0.347010 -0.001564
C26   C     C_R   0.579855 0.109611 0.756243 0.100302
C27   C     C_R   0.560940 0.047991 0.884951 0.216742
C28   C     C_R   0.491791 0.937210 0.888837 -0.061000
C29   C     C_R   0.447864 0.880488 0.767860 0.238389
C30   C     C_R   0.478632 0.934407 0.636695 -0.014151
Cu1   Cu    Cu3+1 0.499990 0.499990 0.640660 1.037208
Cu2   Cu    Cu3+1 0.500010 0.500010 0.359340 1.080843
H1    H     H_    0.912326 0.551195 0.295204 0.203147
H2    H     H_    0.642385 0.283617 0.806587 0.259312
H3    H     H_    0.751087 0.179892 0.792491 0.255522
H4    H     H_    0.643140 0.177341 0.998379 0.325563
H5    H     H_    0.354358 0.754293 0.875716 0.331943
H6    H     H_    0.391121 0.938184 0.195127 0.325896
H7    H     H_    0.287370 0.297344 0.090206 0.338078
H8    H     H_    0.221708 0.283537 0.605510 0.238045
H9    H     H_    0.095617 0.208650 0.546241 0.236598
H10   H     H_    0.644777 0.827198 0.143133 0.246054
H11   H     H_    0.713966 0.778037 0.289350 0.268015
H12   H     H_    0.453622 0.116353 0.291628 0.172269
H13   H     H_    0.978692 0.714126 0.950750 0.336870
H14   H     H_    0.753040 0.760774 0.729081 0.344445
H15   H     H_    0.353645 0.337211 0.773392 0.379047
H16   H     H_    0.897868 0.190840 0.632335 0.264869
H17   H     H_    0.920252 0.228711 0.469100 0.227142
H18   H     H_    0.861897 0.475398 0.763860 0.330153
H19   H     H_    0.093771 0.770372 0.652631 0.260113
H20   H     H_    0.225194 0.713747 0.607236 0.285022
H21   H     H_    0.082280 0.589105 0.199190 0.243276
H22   H     H_    0.114859 0.454857 0.137602 0.237020
H23   H     H_    0.473426 0.893243 0.987726 0.136698
H24   H     H_    0.183180 0.295870 0.338248 0.280000
H25   H     H_    0.061841 0.276619 0.232605 0.234272
H26   H     H_    0.869268 0.391569 0.157259 0.221982
H27   H     H_    0.861016 0.281412 0.278988 0.254253
H28   H     H_    0.870901 0.704647 0.144923 0.147418
H29   H     H_    0.915649 0.630216 0.649761 0.166862
H30   H     H_    0.055082 0.524981 0.778894 0.249385
H31   H     H_    0.088539 0.383538 0.830530 0.292684
H32   H     H_    0.187937 0.709568 0.383784 0.348225
H33   H     H_    0.896321 0.788335 0.513479 0.343849
N1    N     N_R   0.501200 0.501210 0.147910 -0.223806
N2    N     N_3   0.089032 0.308148 0.330535 -0.670581
N3    N     N_3   0.847992 0.374549 0.261118 -0.610823
N4    N     N_R   0.501250 0.501290 0.852040 -0.264577
N5    N     N_3   0.105139 0.449917 0.752356 -0.505660
N6    N     N_3   0.670269 0.210138 0.747487 -0.539966
N7    N     N_3   0.126987 0.274201 0.617263 -0.597038
N8    N     N_3   0.647479 0.753762 0.214369 -0.520291
N9    N     N_3   0.877919 0.257019 0.556830 -0.541628
N10   N     N_3   0.135607 0.687266 0.634789 -0.583227
N11   N     N_3   0.124128 0.507896 0.227060 -0.538428
O1    O     O_R   0.499990 0.319640 0.618810 -0.542819
O2    O     O_3   0.874936 0.708924 0.466197 -0.704539
O3    O     O_3   0.607874 0.091847 0.009473 -0.715689
O4    O     O_3   0.365301 0.779654 0.777620 -0.683456
O5    O     O_3   0.411377 0.876092 0.266834 -0.678869
O6    O     O_3   0.338674 0.351461 0.151919 -0.672863
O7    O     O_3   0.911381 0.705210 0.881118 -0.764808
O8    O     O_3   0.687337 0.694595 0.740103 -0.638161
O9    O     O_3   0.326636 0.355425 0.865930 -0.722240
O10   O     O_3   0.871027 0.389181 0.737201 -0.710993
O11   O     O_R   0.500000 0.319660 0.381240 -0.478311
O12   O     O_R   0.317680 0.499970 0.618790 -0.478675
O13   O     O_R   0.317700 0.499990 0.381210 -0.448869
O14   O     O_R   0.500000 0.680340 0.618760 -0.405358
O15   O     O_R   0.500010 0.680360 0.381190 -0.428052
O16   O     O_R   0.682300 0.500010 0.618790 -0.452854
O17   O     O_R   0.682320 0.500030 0.381210 -0.468641
O18   O     O_3   0.098002 0.701459 0.398718 -0.682651

loop_
_geom_bond_atom_site_label_1
_geom_bond_atom_site_label_2
_ccdc_geom_bond_type
H11   N8    S    
C1    O11   A    
C1    O1    A    
C19   C20   S    
C22   N11   S    
H20   N10   S    
C16   O14   A    
C12   C23   S    
C26   C27   A    
C17   O9    S    
H15   O9    S    
C28   C29   A    
H19   N10   S    
C27   O3    S    
C5    C6    A    
C4    C24   S    
Cu2   O15   S    
C21   O18   S    
C10   O7    S    
C11   C13   A    
H30   N5    S    
Cu2   O13   S    
C8    C9    A    
C22   C25   S    
C20   O10   S    
H33   O2    S    
C9    C10   A    
Cu2   O17   S    
H3    N6    S    
C6    O5    S    
C13   C14   A    
C26   N6    S    
C19   N7    S    
H13   O7    S    
C25   N3    S    
H25   N2    S    
C28   H23   S    
Cu1   O1    S    
C15   O6    S    
H5    O4    S    
H16   N9    S    
Cu2   O11   S    
C1    C3    S    
C29   C30   A    
H27   N3    S    
Cu1   Cu2   S    
H31   N5    S    
C23   H29   S    
Cu1   O14   S    
C12   C20   S    
C14   N1    A    
C20   N9    S    
C2    C26   A    
H9    N7    S    
H14   O8    S    
H26   N3    S    
C7    C16   S    
C5    H12   S    
C21   C23   S    
H6    O5    S    
H22   N11   S    
H21   N11   S    
Cu2   N1    S    
C4    O13   A    
C15   C17   A    
C17   N4    A    
H10   N8    S    
C8    C14   A    
Cu1   O12   S    
H8    N7    S    
H7    O6    S    
C3    C5    A    
H4    O3    S    
C6    C7    A    
C4    O12   A    
C11   O8    S    
H24   N2    S    
C21   N10   S    
C12   C25   S    
C2    C30   A    
C9    H28   S    
C18   O16   A    
C2    C3    A    
H32   O18   S    
C15   N1    A    
C29   O4    S    
C13   N4    A    
C8    N8    S    
C19   C24   S    
C22   C24   S    
C23   O2    S    
C22   N2    S    
C10   C11   A    
H18   O10   S    
Cu1   N4    S    
C16   O15   A    
Cu1   O16   S    
C21   C24   S    
C12   C18   S    
C27   C28   A    
C7    C30   A    
C18   O17   A    
H17   N9    S    
C19   N5    S    
H2    N6    S    
C25   H1    S    
