data_mof_unit_35210.cif
_audit_creation_date              2013-03-05T15:50:11-0500
_audit_creation_method            fapswitch 2.2
_symmetry_space_group_name_H-M    P1
_symmetry_Int_Tables_number       1
_space_group_crystal_system       triclinic
_cell_length_a                    18.649526
_cell_length_b                    25.781504
_cell_length_c                    17.999832
_cell_angle_alpha                 90.32222
_cell_angle_beta                  90.051131
_cell_angle_gamma                 90.291639
_cell_volume                      8654.29750649

loop_
_atom_site_label
_atom_site_type_symbol
_atom_site_description
_atom_site_fract_x
_atom_site_fract_y
_atom_site_fract_z
_atom_type_partial_charge
Zn1   Zn    Zn3+2 0.249990 0.293780 0.913250 1.005000
Zn2   Zn    Zn3+2 0.249990 0.706220 0.086750 0.975260
Zn3   Zn    Zn3+2 0.249990 0.706220 0.913250 1.009179
Zn4   Zn    Zn3+2 0.249990 0.293780 0.086750 0.968909
Zn5   Zn    Zn3+2 0.749990 0.793780 0.413250 1.005029
Zn6   Zn    Zn3+2 0.749990 0.206220 0.586750 0.975249
Zn7   Zn    Zn3+2 0.749990 0.206220 0.413250 1.009172
Zn8   Zn    Zn3+2 0.749990 0.793780 0.586750 0.968908
Zn9   Zn    Zn3+2 0.336760 0.206240 0.000000 0.994902
Zn10  Zn    Zn3+2 0.336760 0.793760 0.000000 1.014879
Zn11  Zn    Zn3+2 0.836760 0.706240 0.500000 0.994796
Zn12  Zn    Zn3+2 0.836760 0.293760 0.500000 1.015283
Zn13  Zn    Zn3+2 0.163250 0.206230 0.000000 1.005222
Zn14  Zn    Zn3+2 0.163250 0.793770 0.000000 1.011685
Zn15  Zn    Zn3+2 0.663250 0.706230 0.500000 1.005253
Zn16  Zn    Zn3+2 0.663250 0.293770 0.500000 1.011360
O1    O     O_3   0.249990 0.250010 0.000000 -0.492569
O2    O     O_3   0.249990 0.749990 0.000000 -0.495844
O3    O     O_3   0.749990 0.750010 0.500000 -0.492571
O4    O     O_3   0.749990 0.249990 0.500000 -0.495858
O5    O     O_R   0.335430 0.280650 0.146160 -0.662880
O6    O     O_R   0.335430 0.719350 0.853840 -0.661399
O7    O     O_R   0.335430 0.719350 0.146160 -0.639281
O8    O     O_R   0.335430 0.280650 0.853840 -0.635312
O9    O     O_R   0.835430 0.780650 0.646160 -0.662874
O10   O     O_R   0.835430 0.219350 0.353840 -0.661423
O11   O     O_R   0.835430 0.219350 0.646160 -0.639288
O12   O     O_R   0.835430 0.780650 0.353840 -0.635257
O13   O     O_R   0.164550 0.280640 0.853840 -0.609257
O14   O     O_R   0.164550 0.719360 0.146160 -0.618777
O15   O     O_R   0.164550 0.719360 0.853840 -0.641625
O16   O     O_R   0.164550 0.280640 0.146160 -0.638563
O17   O     O_R   0.664550 0.780640 0.353840 -0.609231
O18   O     O_R   0.664550 0.219360 0.646160 -0.618825
O19   O     O_R   0.664550 0.219360 0.353840 -0.641545
O20   O     O_R   0.664550 0.780640 0.646160 -0.638539
O21   O     O_R   0.396160 0.219380 0.914560 -0.626738
O22   O     O_R   0.396160 0.780620 0.085440 -0.637834
O23   O     O_R   0.396160 0.780620 0.914560 -0.588535
O24   O     O_R   0.396160 0.219380 0.085440 -0.629866
O25   O     O_R   0.896160 0.719380 0.414560 -0.626844
O26   O     O_R   0.896160 0.280620 0.585440 -0.637820
O27   O     O_R   0.896160 0.280620 0.414560 -0.587875
O28   O     O_R   0.896160 0.719380 0.585440 -0.629858
O29   O     O_R   0.103840 0.219370 0.085450 -0.642920
O30   O     O_R   0.103840 0.780630 0.914550 -0.618851
O31   O     O_R   0.103840 0.780630 0.085450 -0.647550
O32   O     O_R   0.103840 0.219370 0.914550 -0.639728
O33   O     O_R   0.603840 0.719370 0.585450 -0.642886
O34   O     O_R   0.603840 0.280630 0.414550 -0.619250
O35   O     O_R   0.603840 0.280630 0.585450 -0.647487
O36   O     O_R   0.603840 0.719370 0.414550 -0.639777
O37   O     O_R   0.310730 0.133160 0.000000 -0.628436
O38   O     O_R   0.310730 0.866840 0.000000 -0.631284
O39   O     O_R   0.810730 0.633160 0.500000 -0.628456
O40   O     O_R   0.810730 0.366840 0.500000 -0.630804
O41   O     O_R   0.249970 0.366860 0.060720 -0.644346
O42   O     O_R   0.249970 0.633140 0.939280 -0.630645
O43   O     O_R   0.249970 0.633140 0.060720 -0.642500
O44   O     O_R   0.249970 0.366860 0.939280 -0.639419
O45   O     O_R   0.749970 0.866860 0.560720 -0.644359
O46   O     O_R   0.749970 0.133140 0.439280 -0.630632
O47   O     O_R   0.749970 0.133140 0.560720 -0.642492
O48   O     O_R   0.749970 0.866860 0.439280 -0.639433
O49   O     O_R   0.189290 0.133150 0.000000 -0.603546
O50   O     O_R   0.189290 0.866850 0.000000 -0.606979
O51   O     O_R   0.689290 0.633150 0.500000 -0.603573
O52   O     O_R   0.689290 0.366850 0.500000 -0.607465
C1    C     C_R   0.391490 0.252980 0.139163 0.791455
C2    C     C_R   0.389165 0.749612 0.859140 0.851823
C3    C     C_R   0.388847 0.750080 0.140727 0.775536
C4    C     C_R   0.388882 0.250025 0.859308 0.794590
C5    C     C_R   0.891489 0.752979 0.639164 0.791450
C6    C     C_R   0.889163 0.249615 0.359138 0.851470
C7    C     C_R   0.888846 0.250080 0.640728 0.775468
C8    C     C_R   0.888880 0.750023 0.359308 0.794477
C9    C     C_R   0.111331 0.250140 0.858293 0.800544
C10   C     C_R   0.111758 0.750074 0.142014 0.763772
C11   C     C_R   0.107480 0.745837 0.862630 0.847365
C12   C     C_R   0.108576 0.252952 0.138889 0.794312
C13   C     C_R   0.611334 0.750136 0.358291 0.800894
C14   C     C_R   0.611762 0.250075 0.642017 0.763827
C15   C     C_R   0.607480 0.245838 0.362630 0.847059
C16   C     C_R   0.608580 0.752948 0.638894 0.794338
C17   C     C_R   0.249484 0.109556 0.997537 0.793809
C18   C     C_R   0.250405 0.890356 0.997933 0.820368
C19   C     C_R   0.749481 0.609556 0.497515 0.793725
C20   C     C_R   0.750411 0.390356 0.497906 0.820019
C21   C     C_R   0.250356 0.391551 0.000259 0.749503
C22   C     C_R   0.250330 0.608415 0.999952 0.748395
C23   C     C_R   0.750353 0.891551 0.500259 0.749491
C24   C     C_R   0.750328 0.108415 0.499952 0.748409
C25   C     C_3   0.251333 0.470608 0.081449 -0.369451
C26   C     C_3   0.183984 0.529316 0.958913 -0.401617
C27   C     C_3   0.250016 0.530084 0.081212 -0.367098
C28   C     C_3   0.182851 0.469507 0.960947 -0.385095
C29   C     C_3   0.751292 0.970607 0.581449 -0.369490
C30   C     C_3   0.683993 0.029316 0.458889 -0.401612
C31   C     C_3   0.749983 0.030084 0.581212 -0.367080
C32   C     C_3   0.682863 0.969507 0.460916 -0.385088
H1    H     H_    0.241348 0.904458 0.135682 0.108874
H2    H     H_    0.239129 0.096070 0.135649 0.119235
H3    H     H_    0.741659 0.404463 0.635690 0.108914
H4    H     H_    0.739425 0.596077 0.635658 0.119261
H5    H     H_    0.367605 0.455334 0.987412 0.151957
H6    H     H_    0.321629 0.544565 0.902984 0.197474
H7    H     H_    0.367761 0.544289 0.990494 0.152771
H8    H     H_    0.318768 0.455973 0.901487 0.192808
H9    H     H_    0.867605 0.955336 0.487467 0.151970
H10   H     H_    0.821655 0.044563 0.403009 0.197458
H11   H     H_    0.867760 0.044292 0.490535 0.152778
H12   H     H_    0.818806 0.955971 0.401519 0.192791
C33   C     C_3   0.318230 0.470036 0.960060 -0.392510
C34   C     C_3   0.318954 0.530017 0.961024 -0.394866
C35   C     C_3   0.818241 0.970036 0.460090 -0.392522
C36   C     C_3   0.818962 0.030017 0.461049 -0.394873
C37   C     C_3   0.250746 0.449129 0.000710 0.179446
C38   C     C_3   0.250817 0.550768 0.000251 0.183011
C39   C     C_3   0.750741 0.949129 0.500710 0.179479
C40   C     C_3   0.750813 0.050768 0.500251 0.183003
H13   H     H_    0.903270 0.344554 0.956847 0.142020
H14   H     H_    0.899253 0.662599 0.038865 0.141687
H15   H     H_    0.882577 0.804101 0.976332 0.157482
H16   H     H_    0.870825 0.250405 0.014219 0.161445
H17   H     H_    0.403336 0.844647 0.456785 0.141993
H18   H     H_    0.399195 0.162745 0.538777 0.141718
H19   H     H_    0.382576 0.304117 0.476323 0.157506
H20   H     H_    0.370833 0.750507 0.514223 0.161447
C41   C     C_R   0.139452 0.239922 0.693538 -0.010542
C42   C     C_R   0.140966 0.757722 0.307370 -0.052552
C43   C     C_R   0.110075 0.677600 0.722480 0.007082
C44   C     C_R   0.126563 0.299614 0.294206 -0.002046
C45   C     C_R   0.639448 0.739804 0.193561 -0.010297
C46   C     C_R   0.640979 0.257620 0.807389 -0.052483
C47   C     C_R   0.610073 0.177600 0.222481 0.007118
C48   C     C_R   0.626594 0.799549 0.794242 -0.002134
C49   C     C_R   0.150580 0.209035 0.630136 -0.192830
C50   C     C_R   0.153055 0.786895 0.372312 -0.215024
C51   C     C_R   0.134970 0.672239 0.649234 -0.213615
C52   C     C_R   0.150177 0.291264 0.367270 -0.208130
C53   C     C_R   0.650549 0.708877 0.130195 -0.192675
C54   C     C_R   0.653092 0.286751 0.872366 -0.215075
C55   C     C_R   0.634968 0.172237 0.149235 -0.213632
C56   C     C_R   0.650205 0.791166 0.867299 -0.208124
C57   C     C_R   0.592418 0.686834 0.092904 -0.189527
C58   C     C_R   0.595687 0.307767 0.911314 -0.177954
C59   C     C_R   0.603368 0.200316 0.092244 -0.168754
C60   C     C_R   0.608340 0.762520 0.916168 -0.154522
C61   C     C_R   0.092472 0.186963 0.592842 -0.189456
C62   C     C_R   0.095632 0.807903 0.411240 -0.177918
C63   C     C_R   0.103369 0.700318 0.592244 -0.168732
C64   C     C_R   0.108332 0.262616 0.416155 -0.154546
C65   C     C_R   0.523020 0.699470 0.114664 -0.141016
C66   C     C_R   0.525883 0.296621 0.888680 -0.146904
C67   C     C_R   0.542569 0.229811 0.106794 -0.111345
C68   C     C_R   0.539879 0.746709 0.894701 -0.128550
C69   C     C_R   0.023062 0.199543 0.614625 -0.140934
C70   C     C_R   0.025837 0.796708 0.388624 -0.146954
C71   C     C_R   0.042569 0.729811 0.606795 -0.111336
C72   C     C_R   0.039884 0.246770 0.394695 -0.128448
C73   C     C_R   0.511392 0.728961 0.179906 0.073619
C74   C     C_R   0.513023 0.269185 0.821732 0.080518
C75   C     C_R   0.516135 0.234923 0.180070 0.063390
C76   C     C_R   0.515555 0.755246 0.821293 0.050037
C77   C     C_R   0.011407 0.229002 0.679891 0.073674
C78   C     C_R   0.013000 0.769230 0.321706 0.080499
C79   C     C_R   0.016135 0.734922 0.680071 0.063423
C80   C     C_R   0.015552 0.255280 0.321284 0.050382
C81   C     C_R   0.069945 0.240837 0.726225 0.000644
C82   C     C_R   0.071161 0.757536 0.274878 0.008032
C83   C     C_R   0.058258 0.716436 0.738956 0.016036
C84   C     C_R   0.064824 0.272272 0.267986 0.017927
C85   C     C_R   0.569939 0.740781 0.226236 0.000717
C86   C     C_R   0.571175 0.257484 0.774893 0.008033
C87   C     C_R   0.558257 0.216436 0.238955 0.016020
C88   C     C_R   0.564840 0.772235 0.768005 0.017857
C89   C     C_R   0.443832 0.749482 0.197815 -0.138801
C90   C     C_R   0.444278 0.250747 0.802444 -0.152284
C91   C     C_R   0.449072 0.257861 0.195712 -0.191590
C92   C     C_R   0.443057 0.749658 0.800527 -0.156089
C93   C     C_R   0.943829 0.249482 0.697817 -0.138806
C94   C     C_R   0.944275 0.750738 0.302445 -0.152226
C95   C     C_R   0.949071 0.757859 0.695715 -0.191583
C96   C     C_R   0.943054 0.249665 0.300523 -0.156017
C97   C     C_R   0.432813 0.775664 0.266087 0.066271
C98   C     C_R   0.432282 0.226221 0.733010 0.043018
C99   C     C_R   0.433796 0.275140 0.269647 0.057134
C100  C     C_R   0.422752 0.751495 0.724367 0.084249
C101  C     C_R   0.932786 0.275631 0.766112 0.066298
C102  C     C_R   0.932306 0.726155 0.233048 0.043071
C103  C     C_R   0.933794 0.775134 0.769652 0.057133
C104  C     C_R   0.922748 0.251478 0.224362 0.084028
C105  C     C_R   0.987921 0.275575 0.820129 0.092719
C106  C     C_R   0.987375 0.726485 0.179129 0.094466
C107  C     C_R   0.979890 0.760207 0.827936 0.082466
C108  C     C_R   0.977064 0.254236 0.169517 0.082143
C109  C     C_R   0.487944 0.775600 0.320108 0.092640
C110  C     C_R   0.487362 0.226531 0.679105 0.094507
C111  C     C_R   0.479891 0.260214 0.327932 0.082429
C112  C     C_R   0.477071 0.754254 0.669524 0.081981
C113  C     C_R   0.055751 0.255274 0.801123 -0.151009
C114  C     C_R   0.056251 0.744829 0.199249 -0.128200
C115  C     C_R   0.046380 0.737221 0.811098 -0.157927
C116  C     C_R   0.049368 0.261307 0.191997 -0.143719
C117  C     C_R   0.555757 0.755263 0.301118 -0.151103
C118  C     C_R   0.556254 0.244825 0.699249 -0.128258
C119  C     C_R   0.546379 0.237224 0.311098 -0.157855
C120  C     C_R   0.549377 0.761298 0.692009 -0.143618
C121  C     C_R   0.368636 0.802648 0.281341 -0.070413
C122  C     C_R   0.367215 0.200350 0.716590 -0.060839
C123  C     C_R   0.375900 0.308429 0.288144 -0.115026
C124  C     C_R   0.349979 0.751329 0.701099 -0.099489
C125  C     C_R   0.868584 0.302578 0.781389 -0.070423
C126  C     C_R   0.867279 0.700214 0.216676 -0.060992
C127  C     C_R   0.875897 0.808420 0.788153 -0.114969
C128  C     C_R   0.849974 0.251289 0.201094 -0.100075
C129  C     C_R   0.358296 0.827150 0.349714 -0.110349
C130  C     C_R   0.355790 0.177399 0.647241 -0.090747
C131  C     C_R   0.358592 0.319338 0.361938 -0.145592
C132  C     C_R   0.331870 0.750089 0.626055 -0.155648
C133  C     C_R   0.858231 0.327059 0.849775 -0.110517
C134  C     C_R   0.855865 0.677240 0.147340 -0.090626
C135  C     C_R   0.858591 0.819327 0.861949 -0.145569
C136  C     C_R   0.831864 0.250018 0.126051 -0.155515
C137  C     C_R   0.911402 0.325338 0.903916 -0.172413
C138  C     C_R   0.908432 0.680214 0.092798 -0.170298
C139  C     C_R   0.897638 0.797248 0.919048 -0.150746
C140  C     C_R   0.885223 0.250806 0.072465 -0.151290
C141  C     C_R   0.411459 0.825417 0.403863 -0.172380
C142  C     C_R   0.408381 0.180342 0.592721 -0.170418
C143  C     C_R   0.397638 0.297261 0.419040 -0.150751
C144  C     C_R   0.385230 0.750882 0.572469 -0.151274
C145  C     C_R   0.975784 0.299952 0.889509 -0.150523
C146  C     C_R   0.973824 0.704331 0.108338 -0.151868
C147  C     C_R   0.957981 0.768053 0.902428 -0.106977
C148  C     C_R   0.956949 0.254114 0.093592 -0.129580
C149  C     C_R   0.475821 0.800000 0.389475 -0.150575
C150  C     C_R   0.473801 0.204406 0.608296 -0.151814
C151  C     C_R   0.457980 0.268064 0.402423 -0.107004
C152  C     C_R   0.456958 0.754162 0.593599 -0.129607
H21   H     H_    0.202955 0.206599 0.604628 0.163717
H22   H     H_    0.205868 0.788937 0.397249 0.168950
H23   H     H_    0.176367 0.644493 0.635469 0.184093
H24   H     H_    0.197975 0.310119 0.388397 0.163933
H25   H     H_    0.702930 0.706384 0.104710 0.163711
H26   H     H_    0.705904 0.288751 0.897310 0.168953
H27   H     H_    0.676365 0.144491 0.135471 0.184092
H28   H     H_    0.698018 0.809996 0.888437 0.163942
H29   H     H_    0.601008 0.664431 0.042677 0.141241
H30   H     H_    0.605071 0.328630 0.962802 0.141994
H31   H     H_    0.622904 0.196422 0.035870 0.164043
H32   H     H_    0.626278 0.756754 0.972670 0.159625
H33   H     H_    0.101083 0.164588 0.542593 0.141227
H34   H     H_    0.104999 0.828798 0.462705 0.142002
H35   H     H_    0.122904 0.696425 0.535870 0.164044
H36   H     H_    0.126275 0.256876 0.472660 0.159631
H37   H     H_    0.325943 0.805037 0.240738 0.121490
H38   H     H_    0.324642 0.197796 0.757047 0.186924
H39   H     H_    0.345904 0.329552 0.247400 0.212215
H40   H     H_    0.305775 0.753064 0.739525 0.176761
H41   H     H_    0.825886 0.304959 0.740792 0.121512
H42   H     H_    0.824728 0.697622 0.257159 0.186572
H43   H     H_    0.845900 0.829543 0.747410 0.212250
H44   H     H_    0.805768 0.253028 0.239518 0.176802
H45   H     H_    0.808820 0.347558 0.860708 0.123114
H46   H     H_    0.806062 0.657035 0.135926 0.134723
H47   H     H_    0.814838 0.845192 0.874893 0.175935
H48   H     H_    0.776046 0.249158 0.109425 0.147638
H49   H     H_    0.308901 0.847673 0.360632 0.123094
H50   H     H_    0.305965 0.157233 0.635801 0.134768
H51   H     H_    0.314839 0.345205 0.374878 0.175842
H52   H     H_    0.276052 0.749249 0.609428 0.147640
H53   H     H_    0.016881 0.301573 0.931892 0.114746
H54   H     H_    0.014470 0.703321 0.065543 0.122022
H55   H     H_    0.987058 0.751276 0.948323 0.140263
H56   H     H_    0.995631 0.258851 0.049645 0.147970
H57   H     H_    0.516913 0.801610 0.431864 0.114716
H58   H     H_    0.514459 0.203372 0.565516 0.122063
H59   H     H_    0.487055 0.251289 0.448319 0.140325
H60   H     H_    0.495645 0.758900 0.549656 0.147934
H61   H     H_    0.232436 0.048497 0.251460 0.135342
H62   H     H_    0.233019 0.952703 0.251365 0.132099
H63   H     H_    0.732976 0.548506 0.751487 0.135365
H64   H     H_    0.733558 0.452711 0.751394 0.132101
C153  C     C_R   0.243654 0.052972 0.856357 0.004514
C154  C     C_R   0.275038 0.946959 0.856502 -0.083610
C155  C     C_R   0.743228 0.552939 0.356341 0.004353
C156  C     C_R   0.774992 0.446981 0.356498 -0.083964
C157  C     C_R   0.264093 0.027944 0.791072 -0.178363
C158  C     C_R   0.281142 0.975962 0.791544 -0.211749
C159  C     C_R   0.763434 0.527886 0.290993 -0.178698
C160  C     C_R   0.780682 0.475939 0.291465 -0.210837
C161  C     C_R   0.258883 0.972272 0.926101 0.010216
C162  C     C_R   0.249059 0.026860 0.926089 0.012400
C163  C     C_R   0.758849 0.472285 0.426096 0.009542
C164  C     C_R   0.748894 0.526857 0.426079 0.012412
C165  C     C_R   0.251856 0.945984 0.995326 -0.151177
C166  C     C_R   0.246785 0.053641 0.995408 -0.132353
C167  C     C_R   0.751911 0.445989 0.495322 -0.151202
C168  C     C_R   0.746777 0.553643 0.495400 -0.132383
C169  C     C_R   0.244964 0.972843 0.063586 0.077573
C170  C     C_R   0.244161 0.027226 0.063705 0.081857
C171  C     C_R   0.745135 0.472847 0.563592 0.077741
C172  C     C_R   0.744324 0.527231 0.563708 0.081880
C173  C     C_R   0.240637 0.946356 0.132493 -0.143901
C174  C     C_R   0.239844 0.054146 0.132586 -0.139185
C175  C     C_R   0.740940 0.446361 0.632505 -0.143894
C176  C     C_R   0.740145 0.554153 0.632597 -0.139189
C177  C     C_R   0.236076 0.973532 0.199393 -0.133266
C178  C     C_R   0.235842 0.027368 0.199450 -0.131938
C179  C     C_R   0.736513 0.473539 0.699414 -0.133287
C180  C     C_R   0.736280 0.527375 0.699470 -0.131938
H65   H     H_    0.262068 0.047917 0.738255 0.152933
H66   H     H_    0.294957 0.957340 0.739341 0.153295
H67   H     H_    0.761169 0.547827 0.238162 0.152836
H68   H     H_    0.794448 0.457316 0.239249 0.153160
H69   H     H_    0.300060 0.457134 0.111315 0.185712
H70   H     H_    0.185397 0.541956 0.899996 0.209138
H71   H     H_    0.297374 0.545148 0.112438 0.184116
H72   H     H_    0.180056 0.454052 0.903139 0.200165
H73   H     H_    0.800003 0.957131 0.611341 0.185730
H74   H     H_    0.685422 0.041960 0.399974 0.209162
H75   H     H_    0.797333 0.045144 0.612454 0.184129
H76   H     H_    0.680095 0.954055 0.403106 0.200161
C181  C     C_2   0.202347 0.101000 0.845999 0.871686
O53   O     O_2   0.229983 0.138710 0.816570 -0.699317
O54   O     O_R   0.129650 0.101259 0.864680 -0.758103
H77   H     H_    0.104374 0.133596 0.847078 0.351580
C182  C     C_2   0.288980 0.890941 0.846268 0.893453
O55   O     O_2   0.238819 0.860421 0.842436 -0.607181
O56   O     O_R   0.358747 0.872921 0.835649 -0.767795
H78   H     H_    0.396012 0.901579 0.839226 0.314506
C183  C     C_2   0.701901 0.600968 0.346091 0.871952
O57   O     O_2   0.729488 0.638688 0.316637 -0.699186
O58   O     O_R   0.629232 0.601212 0.364889 -0.758054
H79   H     H_    0.603914 0.633540 0.347326 0.351657
C184  C     C_2   0.789633 0.391054 0.346423 0.893674
O59   O     O_2   0.739838 0.360256 0.341993 -0.607950
O60   O     O_R   0.859718 0.373424 0.336749 -0.766378
H80   H     H_    0.896626 0.402296 0.340800 0.314419
H81   H     H_    0.203808 0.456077 0.112252 0.177215
H82   H     H_    0.134139 0.544740 0.984618 0.154820
H83   H     H_    0.201042 0.543768 0.110586 0.193568
H84   H     H_    0.133896 0.455923 0.990515 0.161407
H85   H     H_    0.703750 0.956079 0.612227 0.177179
H86   H     H_    0.634140 0.044737 0.484580 0.154817
H87   H     H_    0.701002 0.043772 0.610569 0.193566
H88   H     H_    0.633894 0.955920 0.490459 0.161393
C185  C     C_2   0.190471 0.283721 0.704629 0.948367
O61   O     O_2   0.168266 0.326164 0.724558 -0.595303
O62   O     O_R   0.262536 0.278249 0.685552 -0.831967
H89   H     H_    0.291339 0.311228 0.693944 0.351309
C186  C     C_2   0.192005 0.714771 0.293576 0.950765
O63   O     O_2   0.169505 0.672112 0.274205 -0.591859
O64   O     O_R   0.264810 0.721348 0.309183 -0.831576
H90   H     H_    0.293678 0.688808 0.299362 0.354577
C187  C     C_2   0.125919 0.635543 0.776100 0.961755
O65   O     O_2   0.179310 0.608653 0.768603 -0.636554
O66   O     O_R   0.078134 0.625955 0.834368 -0.829223
H91   H     H_    0.093017 0.595799 0.866459 0.324256
C188  C     C_2   0.152159 0.347311 0.256334 0.981439
O67   O     O_2   0.211068 0.365788 0.270847 -0.676401
O68   O     O_R   0.107273 0.372179 0.205580 -0.800538
H92   H     H_    0.129295 0.405071 0.185087 0.330402
C189  C     C_2   0.690514 0.783579 0.204612 0.948249
O69   O     O_2   0.668354 0.826047 0.224482 -0.595296
O70   O     O_R   0.762575 0.778053 0.185553 -0.831928
H93   H     H_    0.791413 0.811021 0.193906 0.351313
C190  C     C_2   0.691989 0.214659 0.793547 0.950843
O71   O     O_2   0.669459 0.172016 0.774138 -0.591893
O72   O     O_R   0.764802 0.221207 0.809139 -0.831516
H94   H     H_    0.793649 0.188662 0.799280 0.354576
C191  C     C_2   0.625917 0.135544 0.276102 0.961770
O73   O     O_2   0.679307 0.108653 0.268605 -0.636561
O74   O     O_R   0.578133 0.125956 0.334371 -0.829198
H95   H     H_    0.593017 0.095800 0.366462 0.324254
C192  C     C_2   0.652206 0.847258 0.756410 0.981358
O75   O     O_2   0.711117 0.865721 0.770941 -0.676451
O76   O     O_R   0.607328 0.872154 0.705676 -0.800651
H96   H     H_    0.629363 0.905050 0.685210 0.330432
H97   H     H_    0.478877 0.686435 0.080062 0.109817
H98   H     H_    0.482298 0.309352 0.923935 0.108038
H99   H     H_    0.517127 0.249226 0.060650 0.143664
H100  H     H_    0.506194 0.728185 0.935803 0.123686
H101  H     H_    0.978929 0.186492 0.580021 0.109781
H102  H     H_    0.982240 0.809431 0.423871 0.108068
H103  H     H_    0.017126 0.749228 0.560652 0.143683
H104  H     H_    0.006216 0.228242 0.435807 0.123652

loop_
_geom_bond_atom_site_label_1
_geom_bond_atom_site_label_2
_geom_bond_distance
_ccdc_geom_bond_type
C123  H39   1.074347 S    
C187  O65   1.223312 D    
C25   H69   1.113514 S    
C110  C118  1.412711 A    
C54   C58   1.390738 A    
C159  C160  1.379025 A    
C28   H84   1.113191 S    
C27   H71   1.113535 S    
C184  O59   1.221017 D    
C183  O57   1.221765 D    
C43   C83   1.425225 A    
O26   C7    1.279407 A    
C174  C178  1.392721 A    
C162  C166  1.423392 A    
O30   C11   1.293803 A    
C62   H34   1.082584 S    
C107  C115  1.409523 A    
C133  C137  1.390761 A    
H13   C137  1.082550 S    
C32   H88   1.113193 S    
C159  H67   1.084448 S    
C166  C170  1.409473 A    
Zn12  O26   1.927104 S    
C126  C134  1.394156 A    
H16   C140  1.081998 S    
C109  C149  1.413831 A    
C54   H26   1.082935 S    
C141  C149  1.394229 A    
C87   C119  1.420005 A    
C108  C116  1.418061 A    
C59   C67   1.392682 A    
C52   C64   1.389761 A    
C182  O55   1.220992 D    
C53   C57   1.391747 A    
C49   H21   1.081636 S    
C112  C120  1.418048 A    
C106  C146  1.415469 A    
O11   C7    1.273822 A    
C136  C140  1.386632 A    
C186  O64   1.395598 S    
C31   H87   1.113667 S    
O34   C15   1.293798 A    
C77   C81   1.404490 A    
C48   C192  1.486211 S    
C60   H32   1.081640 S    
C94   C102  1.414568 A    
H61   C178  1.082555 S    
C66   H98   1.082793 S    
Zn1   O44   1.938939 S    
C64   H36   1.081630 S    
C154  C182  1.479278 S    
H63   C180  1.082551 S    
C79   C83   1.405597 A    
C124  C132  1.392210 A    
C169  C170  1.402229 A    
Zn5   O48   1.938939 S    
C65   C73   1.412908 A    
C52   H24   1.080951 S    
H8    C33   1.113026 S    
C149  H57   1.081420 S    
C128  C136  1.392205 A    
Zn7   O46   1.944049 S    
H15   C139  1.082709 S    
O16   C12   1.267878 A    
C121  H37   1.082512 S    
O64   H90   1.013900 S    
C58   C66   1.391832 A    
C169  C173  1.421390 A    
Zn16  O4    1.977220 S    
Zn11  O3    1.977535 S    
Zn12  O4    1.968112 S    
Zn1   O13   1.945424 S    
C20   C167  1.435452 S    
C26   C28   1.542642 S    
Zn4   O16   1.949079 S    
C45   C189  1.485397 S    
C99   C123  1.421301 A    
C97   C121  1.413779 A    
C122  H38   1.079849 S    
C25   H81   1.110463 S    
C42   C50   1.403882 A    
C104  C108  1.416899 A    
C46   C86   1.426695 A    
O74   H95   1.011009 S    
C30   C40   1.549118 S    
C18   C165  1.435323 S    
C170  C174  1.420024 A    
Zn10  O22   1.927104 S    
C121  C129  1.394195 A    
C88   C120  1.424078 A    
C189  O69   1.223933 D    
O25   C8    1.281144 A    
Zn13  O29   1.925892 S    
C100  C124  1.419959 A    
Zn10  O2    1.968112 S    
C71   C79   1.414183 A    
O29   C12   1.293190 A    
C131  H51   1.081165 S    
C72   C80   1.415395 A    
C132  H52   1.082983 S    
C82   C114  1.425191 A    
C133  H45   1.082261 S    
O58   H79   1.012072 S    
C90   C98   1.414580 A    
C41   C49   1.404090 A    
C125  H41   1.082509 S    
O66   H91   1.011008 S    
C86   C118  1.425219 A    
O37   C17   1.292084 A    
C44   C84   1.425614 A    
O48   C23   1.265734 A    
C97   C109  1.414517 A    
C45   C85   1.424254 A    
H14   C138  1.082563 S    
C48   C88   1.425602 A    
C185  O61   1.223933 D    
O62   H89   1.013931 S    
C78   C94   1.407609 A    
Zn16  O35   1.926951 S    
C4    C90   1.455067 S    
C75   C87   1.405598 A    
C28   H72   1.113199 S    
C105  C113  1.413044 A    
Zn15  O33   1.925892 S    
C156  C184  1.479063 S    
Zn7   O10   1.949036 S    
O33   C16   1.293197 A    
H5    C33   1.113017 S    
H17   C141  1.082551 S    
C134  H46   1.081546 S    
C135  C139  1.385687 A    
O40   C20   1.281238 A    
C6    C96   1.457796 S    
C100  C112  1.416897 A    
C61   H33   1.082576 S    
C35   C36   1.546410 S    
C153  C157  1.391891 A    
C41   C185  1.485407 S    
C181  O54   1.397170 S    
C15   C119  1.483707 S    
Zn6   O11   1.945383 S    
Zn5   O17   1.945424 S    
C53   H25   1.081654 S    
C26   H70   1.111476 S    
C110  C150  1.415486 A    
C47   C191  1.486293 S    
C47   C55   1.404487 A    
C25   C27   1.533753 S    
C161  C165  1.427591 A    
C182  O56   1.396744 S    
O28   C5    1.297909 A    
C25   C37   1.552308 S    
H19   C143  1.082708 S    
H64   C179  1.082693 S    
C155  C183  1.474240 S    
C153  C181  1.474281 S    
Zn8   O3    1.921413 S    
C28   C37   1.549494 S    
C69   C77   1.412902 A    
O38   C18   1.281314 A    
C67   C75   1.414181 A    
C67   H99   1.082561 S    
C36   C40   1.550396 S    
C42   C186  1.483891 S    
O5    C1    1.274613 A    
C63   C71   1.392682 A    
O32   C9    1.297069 A    
C29   C39   1.552307 S    
C161  C162  1.420166 A    
C16   C120  1.476968 S    
C164  C168  1.423401 A    
Zn15  O51   1.948084 S    
C152  H60   1.078100 S    
C157  C158  1.379023 A    
Zn11  O28   1.922074 S    
C32   C39   1.549499 S    
Zn12  O40   1.948040 S    
C101  C125  1.413783 A    
C33   C37   1.552092 S    
C21   C37   1.484420 S    
C78   C82   1.407124 A    
C35   C39   1.552090 S    
C75   C91   1.414053 A    
C23   C39   1.484418 S    
H62   C177  1.082694 S    
C14   C118  1.467385 S    
O8    C4    1.278869 A    
C157  H65   1.084446 S    
C66   C74   1.413570 A    
C131  C143  1.385689 A    
C150  H58   1.081501 S    
C9    C113  1.466937 S    
C136  H48   1.082983 S    
C111  C151  1.415809 A    
C139  C147  1.388943 A    
C123  C131  1.394667 A    
Zn1   O1    1.931701 S    
C138  C146  1.393482 A    
Zn13  O1    1.967797 S    
Zn2   O14   1.949808 S    
C125  C133  1.394191 A    
C24   C40   1.486345 S    
C26   C38   1.549115 S    
C61   C69   1.392223 A    
C173  C177  1.392659 A    
C51   C63   1.391146 A    
O9    C5    1.274615 A    
O39   C19   1.292127 A    
O36   C13   1.297041 A    
C29   H85   1.110472 S    
C192  O76   1.398954 S    
C43   C51   1.404486 A    
C101  C105  1.414521 A    
C172  C176  1.420013 A    
O13   C9    1.265991 A    
Zn1   O8    1.949764 S    
H20   C144  1.082002 S    
Zn2   O7    1.945383 S    
C165  C169  1.413252 A    
Zn3   O6    1.949036 S    
O18   C14   1.268981 A    
O31   C10   1.299608 A    
O6    C2    1.270089 A    
C69   H101  1.082822 S    
C176  C180  1.392733 A    
C190  O72   1.395608 S    
C147  H55   1.081291 S    
C109  C117  1.413044 A    
C186  O63   1.223925 D    
C95   C103  1.430395 A    
O76   H96   1.011982 S    
Zn14  O30   1.922327 S    
Zn15  O3    1.967797 S    
C188  O68   1.398954 S    
C59   H31   1.082759 S    
C130  H50   1.081531 S    
O41   C21   1.263878 A    
C19   C168  1.442434 S    
C156  C160  1.395764 A    
C13   C117  1.466911 S    
Zn16  O34   1.922327 S    
H10   C36   1.113048 S    
C191  O74   1.399150 S    
C91   C99   1.430387 A    
O72   H94   1.013900 S    
C106  C114  1.412737 A    
C89   C97   1.414426 A    
Zn8   O20   1.949079 S    
C84   C116  1.424075 A    
C130  C142  1.390159 A    
C92   C100  1.422988 A    
C103  C127  1.421292 A    
C93   C101  1.414431 A    
C68   H100  1.082499 S    
C151  H59   1.081284 S    
C153  C162  1.431345 A    
O68   H92   1.011976 S    
C96   C104  1.422994 A    
H11   C36   1.113027 S    
C76   C92   1.408922 A    
C183  O58   1.397170 S    
C187  O66   1.399152 S    
Zn8   O9    1.950293 S    
C107  C147  1.415810 A    
C105  C145  1.413824 A    
C184  O60   1.396730 S    
C30   H86   1.113005 S    
H2    C174  1.082115 S    
C154  C158  1.395839 A    
C127  H43   1.074343 S    
C72   H104  1.082495 S    
C128  H44   1.077536 S    
C111  C119  1.409540 A    
C163  C164  1.420092 A    
C65   H97   1.082822 S    
C108  C148  1.416846 A    
C160  H68   1.084635 S    
O44   C21   1.265736 A    
C124  H40   1.077544 S    
Zn9   O24   1.922074 S    
Zn6   O18   1.949808 S    
C99   C111  1.412107 A    
Zn10  O23   1.925642 S    
O56   H78   1.013487 S    
C112  C152  1.416845 A    
H7    C34   1.113028 S    
O50   C18   1.288802 A    
O7    C3    1.273836 A    
C46   C54   1.403882 A    
C73   C85   1.404497 A    
O60   H80   1.013525 S    
C145  H53   1.081416 S    
Zn15  O36   1.927357 S    
O49   C17   1.280211 A    
O42   C22   1.267634 A    
Zn4   O1    1.921413 S    
H6    C34   1.113048 S    
C30   C32   1.542643 S    
C32   H76   1.113199 S    
Zn9   O37   1.943254 S    
O12   C8    1.278884 A    
Zn11  O39   1.943254 S    
C70   C78   1.413569 A    
C33   C34   1.546413 S    
C57   H29   1.082575 S    
O19   C15   1.276837 A    
C62   C70   1.391843 A    
Zn2   O43   1.938935 S    
C126  H42   1.079925 S    
C122  C130  1.394146 A    
C163  C167  1.427541 A    
Zn5   O3    1.931701 S    
C44   C52   1.404625 A    
Zn6   O4    1.931700 S    
C45   C53   1.404085 A    
C137  C145  1.394227 A    
O54   H77   1.012082 S    
C48   C56   1.404635 A    
C1    C91   1.483363 S    
C2    C92   1.457780 S    
C12   C116  1.476979 S    
C42   C82   1.426666 A    
C5    C95   1.483370 S    
C55   H27   1.083093 S    
C76   C88   1.399597 A    
C175  C179  1.392664 A    
C83   C115  1.420002 A    
C181  O53   1.221725 D    
C26   H82   1.113005 S    
C81   C113  1.422018 A    
Zn3   O42   1.944049 S    
C80   C84   1.399596 A    
H1    C173  1.082175 S    
Zn7   O4    1.921414 S    
O21   C4    1.281178 A    
C158  H66   1.084643 S    
C98   C110  1.413673 A    
C85   C117  1.422008 A    
C60   C68   1.391999 A    
C148  H56   1.078089 S    
C167  C171  1.413194 A    
C168  C172  1.409516 A    
Zn6   O47   1.938935 S    
C179  C180  1.387997 A    
C64   C72   1.391996 A    
Zn2   O2    1.931700 S    
C44   C188  1.486205 S    
Zn14  O2    1.977220 S    
O70   H93   1.013932 S    
C56   C60   1.389773 A    
Zn13  O49   1.948084 S    
C177  C178  1.387979 A    
C50   C62   1.390752 A    
C55   C59   1.391144 A    
H4    C176  1.082120 S    
C58   H30   1.082585 S    
C41   C81   1.424268 A    
H18   C142  1.082564 S    
Zn12  O27   1.925642 S    
C189  O70   1.395094 S    
C134  C138  1.390182 A    
C155  C164  1.431431 A    
Zn3   O2    1.921414 S    
C143  C151  1.388949 A    
C156  C163  1.441906 A    
C129  C141  1.390761 A    
C31   C40   1.554657 S    
C70   H102  1.082793 S    
C79   C95   1.414055 A    
C171  C172  1.402247 A    
C80   C96   1.408941 A    
O46   C24   1.267635 A    
O47   C24   1.262943 A    
Zn16  O52   1.943297 S    
C135  H47   1.081165 S    
C50   H22   1.082936 S    
Zn8   O45   1.944053 S    
C57   C65   1.392237 A    
O27   C6    1.280975 A    
C185  O62   1.395109 S    
C49   C61   1.391739 A    
C8    C94   1.455027 S    
C29   C31   1.533752 S    
C103  C107  1.412107 A    
C27   C38   1.554656 S    
C74   C90   1.407610 A    
O24   C1    1.297906 A    
C132  C144  1.386643 A    
C29   H73   1.113516 S    
C102  C106  1.413693 A    
C171  C175  1.421351 A    
C154  C161  1.442072 A    
O43   C22   1.262945 A    
C47   C87   1.425229 A    
Zn4   O41   1.944053 S    
Zn3   O15   1.950337 S    
C31   H75   1.113534 S    
Zn5   O12   1.949764 S    
C17   C166  1.442478 S    
C22   C38   1.486343 S    
Zn9   O21   1.926701 S    
Zn14  O50   1.943297 S    
C102  C126  1.411992 A    
O35   C14   1.299632 A    
C30   H74   1.111480 S    
C192  O75   1.222633 D    
C34   C38   1.550401 S    
Zn9   O1    1.977535 S    
H3    C175  1.082178 S    
C56   H28   1.080953 S    
O52   C20   1.288921 A    
C155  C159  1.391941 A    
C142  C150  1.393462 A    
C7    C93   1.451254 S    
C51   H23   1.083093 S    
C63   H35   1.082760 S    
C190  O71   1.223927 D    
O22   C3    1.279395 A    
Zn7   O19   1.950337 S    
C10   C114  1.467403 S    
C127  C135  1.394677 A    
Zn13  O32   1.927357 S    
C46   C190  1.483882 S    
O15   C11   1.276825 A    
Zn14  O31   1.926951 S    
C74   C86   1.407132 A    
C27   H83   1.113666 S    
C188  O67   1.222640 D    
O51   C19   1.280175 A    
C146  H54   1.081506 S    
C11   C115  1.483697 S    
C77   C93   1.406014 A    
C3    C89   1.451255 S    
C98   C122  1.411958 A    
C191  O73   1.223313 D    
Zn4   O5    1.950293 S    
O17   C13   1.266008 A    
C43   C187  1.486293 S    
O20   C16   1.267865 A    
C129  H49   1.082263 S    
O10   C6    1.270108 A    
O23   C2    1.280984 A    
Zn11  O25   1.926701 S    
Zn10  O38   1.948040 S    
C140  C148  1.392411 A    
H9    C35   1.113017 S    
O14   C10   1.269011 A    
C68   C76   1.415393 A    
C144  C152  1.392413 A    
C71   H103  1.082566 S    
C73   C89   1.406027 A    
C104  C128  1.419965 A    
H12   C35   1.113026 S    
O45   C23   1.263879 A    
