data_mof_unit_23235.cif
_audit_creation_date              2012-10-26T18:34:23-0400
_audit_creation_method            fapswitch 2.2
_symmetry_space_group_name_H-M    P1
_symmetry_Int_Tables_number       1
_space_group_crystal_system       monoclinic
_cell_length_a                    10.830505
_cell_length_b                    9.592251
_cell_length_c                    9.076248
_cell_angle_alpha                 90.0
_cell_angle_beta                  91.400999
_cell_angle_gamma                 90.0
_cell_volume                      942.639750743

loop_
_atom_site_label
_atom_site_type_symbol
_atom_type_description
_atom_site_fract_x
_atom_site_fract_y
_atom_site_fract_z
_atom_type_partial_charge
C1    C     C_R   0.262271 0.500000 0.499806 0.559223
C2    C     C_R   0.063871 0.626671 0.499944 -0.115989
C3    C     C_R   0.871690 0.500000 0.500157 0.028400
C4    C     C_R   0.128310 0.500000 0.499843 0.028399
C5    C     C_R   0.422205 0.074380 0.407120 0.067976
C6    C     C_R   0.577795 0.925620 0.592880 0.067976
C7    C     C_R   0.577795 0.074380 0.592880 0.067976
C8    C     C_R   0.422205 0.925620 0.407120 0.067976
C9    C     C_1   0.339175 0.148258 0.307659 0.248814
C10   C     C_1   0.660825 0.851742 0.692341 0.248814
C11   C     C_1   0.660825 0.148258 0.692341 0.248814
C12   C     C_R   0.737729 0.500000 0.500194 0.559223
C13   C     C_1   0.339175 0.851742 0.307659 0.248814
C14   C     C_R   0.499829 0.500000 0.220814 0.568966
C15   C     C_R   0.500171 0.500000 0.779186 0.568966
C16   C     C_1   0.499934 0.500000 0.065582 -0.014864
C17   C     C_1   0.500066 0.500000 0.934418 -0.014865
C18   C     C_R   0.063871 0.373329 0.499946 -0.115989
C19   C     C_R   0.936129 0.626671 0.500054 -0.115989
C20   C     C_R   0.936129 0.373329 0.500056 -0.115989
Cu1   Cu    Cu3+1 0.500000 0.640660 0.500000 0.998704
Cu2   Cu    Cu3+1 0.500000 0.359340 0.500000 0.998704
H1    H     H_    0.111834 0.274243 0.499995 0.145570
H2    H     H_    0.888166 0.725757 0.500005 0.145570
H3    H     H_    0.888165 0.274243 0.500007 0.145570
H4    H     H_    0.111835 0.725757 0.499993 0.145570
N1    N     N_R   0.500000 0.852070 0.500000 -0.267263
N2    N     N_R   0.500000 0.147930 0.500000 -0.267263
N3    N     N_1   0.272261 0.206351 0.227421 -0.287799
N4    N     N_1   0.727739 0.793648 0.772579 -0.287799
N5    N     N_1   0.727739 0.206351 0.772579 -0.287799
N6    N     N_1   0.272261 0.793648 0.227421 -0.287799
O1    O     O_R   0.319640 0.618740 0.499990 -0.505667
O2    O     O_R   0.680360 0.381260 0.500010 -0.505667
O3    O     O_R   0.680360 0.618740 0.500010 -0.505667
O4    O     O_R   0.319640 0.381260 0.499990 -0.505667
O5    O     O_R   0.500000 0.618760 0.288390 -0.489488
O6    O     O_R   0.500000 0.381240 0.711610 -0.489488
O7    O     O_R   0.500000 0.618760 0.711610 -0.489488
O8    O     O_R   0.500000 0.381240 0.288390 -0.489488

loop_
_geom_bond_atom_site_label_1
_geom_bond_atom_site_label_2
_ccdc_geom_bond_type
C6    C10   S    
C5    C8    A    
C2    C4    A    
C15   O6    A    
C5    C9    S    
C6    C7    A    
Cu1   O3    S    
C5    N2    A    
Cu2   O4    S    
C10   N4    T    
C13   N6    T    
C6    N1    A    
Cu1   O7    S    
C9    N3    T    
C1    C4    S    
Cu2   O8    S    
C19   H2    S    
Cu1   N1    S    
C11   N5    T    
C3    C20   A    
C2    H4    S    
Cu2   N2    S    
Cu1   Cu2   S    
C14   O5    A    
C3    C19   A    
C15   O7    A    
C8    C13   S    
C7    C11   S    
C18   C20   A    
Cu2   O2    S    
C14   C16   S    
Cu1   O1    S    
C20   H3    S    
C1    O1    A    
C18   H1    S    
Cu2   O6    S    
Cu1   O5    S    
C15   C17   S    
C8    N1    A    
C3    C12   S    
C12   O2    A    
C2    C19   A    
C14   O8    A    
C4    C18   A    
C7    N2    A    
C1    O4    A    
C16   C17   T    
C12   O3    A    
