data_mof_unit_58645.cif
_audit_creation_date              2013-03-05T16:46:59-0500
_audit_creation_method            fapswitch 2.2
_symmetry_space_group_name_H-M    P1
_symmetry_Int_Tables_number       1
_space_group_crystal_system       triclinic
_cell_length_a                    14.934219
_cell_length_b                    8.956024
_cell_length_c                    8.075581
_cell_angle_alpha                 90.482919
_cell_angle_beta                  90.00389
_cell_angle_gamma                 90.003364
_cell_volume                      1080.08047151

loop_
_atom_site_label
_atom_site_type_symbol
_atom_site_description
_atom_site_fract_x
_atom_site_fract_y
_atom_site_fract_z
_atom_type_partial_charge
O1    O     O_R   0.500000 0.285350 0.636850 -0.627381
O2    O     O_R   0.500000 0.714650 0.363150 -0.627348
O3    O     O_R   0.500000 0.714650 0.636850 -0.621921
O4    O     O_R   0.500000 0.285350 0.363150 -0.621875
C1    C     C_R   0.500066 0.217825 0.499558 0.974918
C2    C     C_R   0.500067 0.782175 0.500442 0.974898
O5    O     O_R   0.367850 0.500000 0.636890 -0.639817
O6    O     O_R   0.632150 0.500000 0.363110 -0.639542
O7    O     O_R   0.632150 0.500000 0.636890 -0.639541
O8    O     O_R   0.367850 0.500000 0.363110 -0.639779
C3    C     C_R   0.326349 0.500030 0.499998 1.020078
C4    C     C_R   0.673595 0.499994 0.500006 1.009295
Zn1   Zn    Zn3+2 0.500000 0.500000 0.682780 0.970210
Zn2   Zn    Zn3+2 0.500000 0.500000 0.317220 0.970243
N1    N     N_1   0.500000 0.500000 0.073640 -0.057193
N2    N     N_1   0.500000 0.500000 0.926360 -0.057198
C5    C     C_R   0.814981 0.635003 0.477317 0.356131
C6    C     C_R   0.185029 0.372296 0.443574 0.351636
C7    C     C_R   0.814973 0.364995 0.522791 0.356117
C8    C     C_R   0.185048 0.627783 0.556497 0.351528
C9    C     C_R   0.768996 0.499995 0.500028 -0.329066
C10   C     C_R   0.230847 0.500044 0.500009 -0.329377
C11   C     C_R   0.906939 0.363357 0.495950 0.031196
C12   C     C_R   0.092808 0.633922 0.533800 0.034811
C13   C     C_R   0.906942 0.636651 0.504229 0.031181
C14   C     C_R   0.092801 0.366122 0.466366 0.034900
C15   C     C_R   0.953450 0.500007 0.500104 -0.033828
C16   C     C_R   0.046430 0.500015 0.500104 -0.029219
C17   C     C_R   0.953505 0.229102 0.472861 -0.217187
C18   C     C_R   0.045848 0.769125 0.547787 -0.220062
C19   C     C_R   0.953510 0.770914 0.527327 -0.217196
C20   C     C_R   0.045841 0.230909 0.452390 -0.220182
C21   C     C_1   0.500129 0.065107 0.499371 -0.177874
C22   C     C_1   0.500129 0.934893 0.500629 -0.177857
H1    H     H_    0.918220 0.123939 0.465392 0.182644
H2    H     H_    0.080463 0.873537 0.570455 0.185133
H3    H     H_    0.918228 0.876072 0.534778 0.182637
H4    H     H_    0.080454 0.126509 0.429680 0.185184
O9    O     O_3   0.770946 0.764628 0.431553 -0.642073
C23   C     C_3   0.758896 0.764280 0.256801 0.115567
H5    H     H_    0.706739 0.848518 0.227674 0.170258
H6    H     H_    0.733550 0.655623 0.208658 0.153812
C24   C     C_3   0.844908 0.805243 0.162778 -0.409521
H7    H     H_    0.866976 0.918871 0.200395 0.234382
H8    H     H_    0.899379 0.725565 0.191953 0.230314
C25   C     C_3   0.830236 0.798214 0.975661 -0.922752
H9    H     H_    0.813016 0.682512 0.936343 0.263426
H10   H     H_    0.892726 0.831429 0.911210 0.266828
H11   H     H_    0.775222 0.874195 0.938421 0.271998
O10   O     O_3   0.230501 0.250930 0.376627 -0.642974
C26   C     C_3   0.243083 0.272547 0.203976 0.129852
H12   H     H_    0.303400 0.207959 0.166516 0.175223
H13   H     H_    0.256595 0.391050 0.171093 0.137518
C27   C     C_3   0.162851 0.215984 0.102486 -0.419973
H14   H     H_    0.147905 0.098572 0.135669 0.241242
H15   H     H_    0.103025 0.285401 0.130215 0.229465
C28   C     C_3   0.181312 0.224973 0.916748 -0.920802
H16   H     H_    0.195639 0.342065 0.880814 0.258821
H17   H     H_    0.121590 0.185897 0.846758 0.265445
H18   H     H_    0.239282 0.153278 0.882687 0.274208
O11   O     O_3   0.770928 0.235364 0.568517 -0.642074
C29   C     C_3   0.758858 0.235699 0.743261 0.115548
H19   H     H_    0.706700 0.151444 0.772349 0.170265
H20   H     H_    0.733503 0.344346 0.791393 0.153823
C30   C     C_3   0.844861 0.194756 0.837339 -0.409538
H21   H     H_    0.866940 0.081141 0.799722 0.234385
H22   H     H_    0.899330 0.274459 0.808214 0.230333
C31   C     C_3   0.830164 0.201760 0.024446 -0.922709
H23   H     H_    0.812916 0.317445 0.063764 0.263424
H24   H     H_    0.892651 0.168587 0.088936 0.266823
H25   H     H_    0.775160 0.125733 0.061641 0.271990
O12   O     O_3   0.230547 0.749229 0.623236 -0.642967
C32   C     C_3   0.243237 0.727793 0.795891 0.129720
H26   H     H_    0.303449 0.792740 0.833235 0.175338
H27   H     H_    0.256983 0.609377 0.828832 0.137689
C33   C     C_3   0.162935 0.783946 0.897457 -0.419941
H28   H     H_    0.147624 0.901188 0.864027 0.241195
H29   H     H_    0.103279 0.713965 0.870067 0.229260
C34   C     C_3   0.181607 0.775492 0.083169 -0.920448
H30   H     H_    0.196689 0.658677 0.119287 0.258800
H31   H     H_    0.121698 0.813664 0.153241 0.265423
H32   H     H_    0.239189 0.848237 0.116948 0.274102

loop_
_geom_bond_atom_site_label_1
_geom_bond_atom_site_label_2
_geom_bond_distance
_ccdc_geom_bond_type
C13   C19   1.400165 A    
C14   C20   1.403074 A    
C32   H26   1.111224 S    
C6    C14   1.390776 A    
C33   C34   1.527927 S    
O3    C2    1.261119 A    
O5    C3    1.267331 A    
C25   H11   1.109957 S    
O1    C1    1.258439 A    
C11   C17   1.400170 A    
C7    C9    1.403895 A    
C33   H29   1.110424 S    
C17   C20   1.388960 A    
C18   C19   1.388955 A    
C28   H17   1.110854 S    
N1    N2    1.189371 T    
C5    O9    1.387112 S    
O7    Zn1   2.008073 S    
C29   H20   1.111296 S    
C27   H14   1.110001 S    
C23   C24   1.538148 S    
C8    C12   1.390805 A    
C31   H23   1.111358 S    
C30   H22   1.108764 S    
C1    C21   1.367733 S    
C11   C15   1.407335 A    
O3    Zn1   1.960932 S    
C23   H6    1.111297 S    
C32   H27   1.114629 S    
O2    C2    1.258440 A    
O7    C4    1.266941 A    
C21   C22   1.166336 T    
C25   H10   1.110382 S    
C27   H15   1.110250 S    
C26   H12   1.111152 S    
C33   H28   1.110189 S    
O8    Zn2   2.008074 S    
O9    C23   1.422612 S    
C34   H31   1.111046 S    
O4    C1    1.261120 A    
C28   H18   1.111116 S    
C4    C9    1.424736 S    
C5    C9    1.403889 A    
C19   H3    1.080441 S    
C26   H13   1.114610 S    
C7    C11   1.390505 A    
C24   H7    1.109616 S    
C29   H19   1.110978 S    
O6    C4    1.266960 A    
C30   C31   1.527633 S    
O10   C26   1.421735 S    
C24   H8    1.108765 S    
C23   H5    1.110973 S    
C8    C10   1.405726 A    
C20   H4    1.082710 S    
C32   C33   1.535280 S    
O1    Zn1   1.954794 S    
C6    O10   1.387493 S    
C25   H9    1.111361 S    
O6    Zn2   2.008023 S    
C29   C30   1.538151 S    
C6    C10   1.405698 A    
C12   C16   1.409402 A    
O12   C32   1.421728 S    
C34   H32   1.111435 S    
C13   C15   1.407331 A    
C17   H1    1.080442 S    
C3    C10   1.426251 S    
C14   C16   1.409388 A    
C18   H2    1.082702 S    
C26   C27   1.535204 S    
C5    C13   1.390507 A    
C28   H16   1.111224 S    
C7    O11   1.387113 S    
C31   H25   1.109958 S    
O4    Zn2   1.960933 S    
O11   C29   1.422615 S    
O2    Zn2   1.954793 S    
C24   C25   1.527635 S    
C12   C18   1.403078 A    
O8    C3    1.267376 A    
C34   H30   1.111524 S    
C2    C22   1.367733 S    
O5    Zn1   2.008025 S    
C31   H24   1.110377 S    
C30   H21   1.109617 S    
Zn1   N2    1.967050 S    
C15   C16   1.388585 A    
Zn2   N1    1.967050 S    
C8    O12   1.387513 S    
C27   C28   1.527875 S    
