data_mof_unit_13416.cif
_audit_creation_date              2012-12-10T16:59:13-0500
_audit_creation_method            fapswitch 2.2
_symmetry_space_group_name_H-M    P1
_symmetry_Int_Tables_number       1
_space_group_crystal_system       triclinic
_cell_length_a                    7.781736
_cell_length_b                    8.529758
_cell_length_c                    27.607254
_cell_angle_alpha                 91.595373
_cell_angle_beta                  86.400604
_cell_angle_gamma                 93.292052
_cell_volume                      1825.2951246

loop_
_atom_site_label
_atom_site_type_symbol
_atom_type_description
_atom_site_fract_x
_atom_site_fract_y
_atom_site_fract_z
_atom_type_partial_charge
C1    C     C_R   0.545366 0.794504 0.498840 0.950799
C2    C     C_R   0.648266 0.560581 0.127575 -0.119999
C3    C     C_R   0.513854 0.495267 0.647035 -0.105948
C4    C     C_R   0.490446 0.483321 0.352962 -0.089139
C5    C     C_R   0.691343 0.556418 0.025263 -0.001025
C6    C     C_R   0.563737 0.295438 0.970453 0.001640
C7    C     C_R   0.539516 0.296702 0.021800 0.080606
C8    C     C_R   0.691017 0.564952 0.974104 0.085772
C9    C     C_R   0.603405 0.427857 0.049089 0.070504
C10   C     C_R   0.626575 0.434052 0.946801 0.070856
C11   C     C_R   0.775746 0.673708 0.053381 -0.360853
C12   C     C_R   0.454651 0.205506 0.500958 0.948927
C13   C     C_R   0.524962 0.160019 0.942007 -0.376783
C14   C     C_R   0.750420 0.681060 0.103928 0.534850
C15   C     C_R   0.517281 0.165875 0.891538 0.539474
C16   C     C_R   0.502879 0.498464 0.594060 0.857840
C17   C     C_R   0.496706 0.498266 0.405966 0.853083
C18   C     C_R   0.746925 0.703309 0.949694 -0.296890
C19   C     C_R   0.446523 0.173328 0.046482 -0.288138
C20   C     C_2   0.569559 0.957850 0.498897 -0.381241
C21   C     C_2   0.430621 0.042188 0.500516 -0.380834
C22   C     C_R   0.653134 0.592917 0.822045 0.486428
C23   C     C_R   0.622842 0.442282 0.895698 -0.133893
C24   C     C_R   0.455363 0.317286 0.175363 0.497040
C25   C     C_R   0.552313 0.323570 0.818070 0.571424
C26   C     C_R   0.614635 0.564802 0.178071 0.559815
C27   C     C_R   0.391456 0.460517 0.729791 -0.000004
C28   C     C_R   0.359848 0.519953 0.276325 -0.014953
C29   C     C_R   0.368991 0.462380 0.679594 -0.076976
C30   C     C_R   0.353970 0.537695 0.327280 -0.093987
C31   C     C_R   0.677732 0.521183 0.665160 -0.214930
C32   C     C_R   0.626841 0.409822 0.327475 -0.210240
C33   C     C_R   0.700558 0.510361 0.714108 -0.087129
C34   C     C_R   0.578478 0.431267 0.100389 -0.137318
C35   C     C_R   0.631513 0.392996 0.277572 -0.116363
C36   C     C_R   0.559078 0.479861 0.746587 0.239948
C37   C     C_R   0.500460 0.449105 0.251966 0.268357
C38   C     C_3   0.952609 0.244306 0.439013 0.191348
C39   C     C_3   0.061485 0.156379 0.400726 -0.865272
C40   C     C_3   0.050104 0.759935 0.558915 0.192583
C41   C     C_3   0.941205 0.856468 0.594960 -0.875132
C42   C     C_1   0.809872 0.859875 0.878714 0.296438
C43   C     C_1   0.329598 0.038454 0.117965 0.230804
C44   C     C_1   0.212298 0.616445 0.352172 0.245649
C45   C     C_R   0.675424 0.584417 0.872114 -0.031954
C46   C     C_1   0.200873 0.419364 0.661967 0.211427
C47   C     C_1   0.225099 0.576651 0.248579 0.195266
C48   C     C_1   0.243829 0.439168 0.764186 0.182578
C49   C     C_3   0.816565 0.949033 0.113561 0.113197
C50   C     C_3   0.828024 0.068427 0.155400 -0.707276
C51   C     C_3   0.335538 0.940048 0.883812 0.087859
C52   C     C_3   0.257362 0.838390 0.843756 -0.684852
C53   C     C_R   0.482996 0.306165 0.124440 -0.039186
C54   C     C_R   0.742413 0.713594 0.899714 -0.004365
C55   C     C_R   0.419571 0.175693 0.096735 -0.003865
C56   C     C_R   0.564201 0.308948 0.868289 -0.111413
H1    H     H_    0.790259 0.547201 0.641196 0.214335
H2    H     H_    0.299189 0.992099 0.501083 0.161684
H3    H     H_    0.824373 0.256930 0.424768 0.166859
H4    H     H_    0.940235 0.173610 0.472473 0.124967
H5    H     H_    0.191326 0.140650 0.413831 0.257816
H6    H     H_    0.998257 0.039008 0.393107 0.226378
H7    H     H_    0.075859 0.223349 0.366624 0.261569
H8    H     H_    0.067021 0.825463 0.524483 0.128917
H9    H     H_    0.176164 0.746688 0.574488 0.177681
H10   H     H_    0.932593 0.802058 0.631143 0.257144
H11   H     H_    0.001550 0.977105 0.598524 0.227585
H12   H     H_    0.731686 0.365324 0.346096 0.168764
H13   H     H_    0.809383 0.863921 0.582252 0.261885
H14   H     H_    0.689906 0.959138 0.097498 0.125218
H15   H     H_    0.922072 0.979354 0.085814 0.132730
H16   H     H_    0.951078 0.060157 0.173202 0.278609
H17   H     H_    0.822713 0.188955 0.141591 0.184526
H18   H     H_    0.718618 0.046210 0.182597 0.274172
H19   H     H_    0.233349 0.014606 0.900483 0.129238
H20   H     H_    0.377929 0.860333 0.911358 0.132494
H21   H     H_    0.356274 0.765604 0.825236 0.268108
H22   H     H_    0.151760 0.758825 0.859468 0.185126
H23   H     H_    0.829263 0.525641 0.726989 0.166496
H24   H     H_    0.205231 0.913721 0.816630 0.274299
H25   H     H_    0.739701 0.339217 0.258402 0.146774
H26   H     H_    0.866908 0.759055 0.036878 0.143990
H27   H     H_    0.505550 0.046757 0.958324 0.139957
H28   H     H_    0.788589 0.809081 0.969023 0.136779
H29   H     H_    0.387160 0.074680 0.027221 0.139604
H30   H     H_    0.701105 0.008038 0.498210 0.163433
N1    N     N_R   0.588227 0.465277 0.796929 -0.361813
N2    N     N_1   0.126018 0.422328 0.791655 -0.200876
N3    N     N_R   0.520440 0.444852 0.200289 -0.359971
N4    N     N_2   0.950320 0.457960 0.486880 0.166502
N5    N     N_2   0.049680 0.542040 0.513120 0.166943
N6    N     N_1   0.864470 0.977028 0.862164 -0.158539
N7    N     N_1   0.258715 0.927841 0.134677 -0.138127
N8    N     N_1   0.099037 0.679393 0.371924 -0.170399
N9    N     N_1   0.067181 0.383323 0.647782 -0.189121
N10   N     N_1   0.117492 0.621779 0.226375 -0.119956
O1    O     O_R   0.389250 0.738570 0.503220 -0.660381
O2    O     O_2   0.364528 0.202946 0.200229 -0.555345
O3    O     O_2   0.674288 0.687744 0.205269 -0.484885
O4    O     O_2   0.503147 0.198383 0.790217 -0.475786
O5    O     O_3   0.034757 0.391822 0.448232 -0.516648
O6    O     O_3   0.965298 0.612628 0.551004 -0.526907
O7    O     O_3   0.837038 0.797118 0.131033 -0.550373
O8    O     O_3   0.479044 0.030860 0.863725 -0.540419
O9    O     O_R   0.610750 0.261430 0.496780 -0.658680
O10   O     O_R   0.678390 0.711630 0.494810 -0.597593
O11   O     O_R   0.321610 0.288370 0.505190 -0.602714
O12   O     O_R   0.355440 0.513440 0.575450 -0.631912
O13   O     O_R   0.644560 0.486560 0.424550 -0.634040
O14   O     O_R   0.644590 0.486500 0.567040 -0.570033
O15   O     O_R   0.355410 0.513500 0.432960 -0.565170
O16   O     O_2   0.691110 0.728168 0.798468 -0.526442
Zn1   Zn    Zn3+2 0.306940 0.517990 0.505620 1.026344
Zn2   Zn    Zn3+2 0.693060 0.482010 0.494380 1.024652

loop_
_geom_bond_atom_site_label_1
_geom_bond_atom_site_label_2
_ccdc_geom_bond_type
C27   C48   S    
C28   C47   S    
C23   C45   A    
C27   C29   A    
C25   C56   A    
C24   N3    A    
C35   H25   S    
C16   O14   A    
C23   C56   A    
C41   H11   S    
C26   N3    A    
O10   Zn2   S    
C24   O2    S    
C35   C37   A    
C51   H19   S    
C5    C11   A    
C38   O5    S    
C50   H18   S    
C12   O9    A    
C11   C14   A    
C41   H10   S    
C25   N1    A    
C33   C36   A    
C3    C29   A    
C50   H16   S    
O11   Zn1   S    
C46   N9    T    
C20   H30   S    
C18   H28   S    
C47   N10   T    
C31   C33   A    
C15   O8    S    
O14   Zn2   S    
C1    O10   A    
C32   H12   S    
C2    C34   A    
C36   N1    S    
C30   C44   S    
C52   H22   S    
C17   O15   A    
C53   C55   A    
C11   H26   S    
C39   H5    S    
C51   C52   S    
C32   C35   A    
O9    Zn2   S    
C51   H20   S    
C2    C26   A    
C50   H17   S    
C1    O1    A    
C16   O12   A    
C33   H23   S    
C51   O8    S    
C12   C21   S    
C8    C18   A    
N5    Zn1   S    
O12   Zn1   S    
N4    O5    S    
C5    C9    A    
C5    C8    A    
C25   O4    S    
C48   N2    T    
O15   Zn1   S    
C22   N1    A    
C3    C31   A    
C4    C32   A    
O13   Zn2   S    
C38   H4    S    
C4    C17   S    
C43   C55   S    
C40   C41   S    
C45   C54   A    
C22   O16   S    
C49   H14   S    
C13   C15   A    
C9    C34   A    
C10   C23   A    
N5    O6    S    
O1    Zn1   S    
C52   H21   S    
C41   H13   S    
C19   C55   A    
C7    C9    A    
C39   H6    S    
C1    C20   S    
C19   H29   S    
C17   O13   A    
C49   O7    S    
C12   O11   A    
C14   O7    S    
C6    C7    A    
C27   C36   A    
C39   H7    S    
C13   H27   S    
C7    C19   A    
C40   H8    S    
C37   N3    S    
C29   C46   S    
C40   H9    S    
C15   C56   A    
C31   H1    S    
C28   C30   A    
C24   C53   A    
C21   H2    S    
C42   C54   S    
C6    C13   A    
N4    N5    D    
C38   C39   S    
C28   C37   A    
C43   N7    T    
C42   N6    T    
N4    Zn2   S    
C2    C14   A    
C44   N8    T    
C6    C10   A    
C18   C54   A    
C40   O6    S    
C38   H3    S    
C22   C45   A    
C20   C21   D    
C34   C53   A    
C8    C10   A    
C49   C50   S    
C49   H15   S    
C26   O3    S    
C52   H24   S    
C4    C30   A    
C3    C16   S    
