data_mof_unit_8347.cif
_audit_creation_date              2012-12-11T17:45:24-0500
_audit_creation_method            fapswitch 2.2
_symmetry_space_group_name_H-M    P1
_symmetry_Int_Tables_number       1
_space_group_crystal_system       triclinic
_cell_length_a                    14.985217
_cell_length_b                    14.911478
_cell_length_c                    15.101235
_cell_angle_alpha                 110.246034
_cell_angle_beta                  109.168882
_cell_angle_gamma                 109.137368
_cell_volume                      2592.92206211

loop_
_atom_site_label
_atom_site_type_symbol
_atom_type_description
_atom_site_fract_x
_atom_site_fract_y
_atom_site_fract_z
_atom_type_partial_charge
C1    C     C_R   0.973557 0.248793 0.062258 -0.124223
C2    C     C_R   0.705606 0.193487 0.794831 -0.135450
C3    C     C_R   0.776655 0.591919 0.025627 -0.143908
C4    C     C_R   0.315206 0.759964 0.225186 -0.132115
C5    C     C_R   0.941227 0.409398 0.685442 -0.136916
C6    C     C_R   0.674416 0.499244 0.949819 -0.008711
C7    C     C_R   0.958514 0.504082 0.678944 0.041373
C8    C     C_R   0.705028 0.127583 0.703187 0.067014
C9    C     C_R   0.064746 0.870741 0.074958 0.068355
C10   C     C_R   0.612520 0.266348 0.094116 -0.118247
C11   C     C_R   0.691897 0.354379 0.199089 -0.153339
C12   C     C_R   0.324606 0.789993 0.327912 0.052471
C13   C     C_R   0.741388 0.334577 0.281628 0.117834
C14   C     C_R   0.702732 0.225036 0.259041 -0.161538
C15   C     C_R   0.619177 0.137427 0.155056 -0.118997
C16   C     C_R   0.208168 0.408344 0.902728 -0.146535
C17   C     C_R   0.575187 0.158123 0.072279 -0.091319
C18   C     C_R   0.848335 0.430856 0.484144 -0.250953
C19   C     C_R   0.942565 0.513679 0.583908 0.075729
C20   C     C_R   0.026064 0.599562 0.589936 0.015282
C21   C     C_R   0.015073 0.597044 0.495632 -0.249888
C22   C     C_R   0.926863 0.509212 0.395098 0.066180
C23   C     C_R   0.299781 0.499688 0.931323 -0.009929
C24   C     C_R   0.839084 0.426853 0.387669 0.025265
C25   C     C_R   0.155249 0.791148 0.750850 -0.203583
C26   C     C_R   0.256954 0.869933 0.844018 -0.111708
C27   C     C_R   0.338989 0.843343 0.873005 -0.106154
C28   C     C_R   0.996856 0.592465 0.298973 -0.165808
C29   C     C_R   0.319784 0.738312 0.808936 -0.121095
C30   C     C_R   0.217413 0.658123 0.717421 -0.128187
C31   C     C_R   0.134059 0.683829 0.688436 0.119501
C32   C     C_R   0.254011 0.041953 0.534668 -0.128979
C33   C     C_R   0.330523 0.013738 0.520976 -0.127284
C34   C     C_R   0.941673 0.502034 0.303721 0.060695
C35   C     C_R   0.340917 0.930763 0.539597 0.108162
C36   C     C_R   0.275454 0.877858 0.574097 -0.184065
C37   C     C_R   0.194870 0.902198 0.581570 -0.117513
C38   C     C_R   0.184818 0.984781 0.562881 -0.119888
C39   C     C_R   0.526342 0.973015 0.627957 -0.228603
C40   C     C_R   0.299581 0.591337 0.995402 -0.137835
C41   C     C_R   0.622435 0.010264 0.623702 0.049865
C42   C     C_R   0.622754 0.946965 0.529151 0.031081
C43   C     C_R   0.523035 0.865445 0.435092 -0.245421
C44   C     C_R   0.425315 0.853142 0.433188 0.068985
C45   C     C_R   0.686046 0.407244 0.933376 -0.140825
C46   C     C_R   0.427832 0.908170 0.532356 0.016512
C47   C     C_R   0.739471 0.006996 0.452648 -0.204233
C48   C     C_R   0.843367 0.055140 0.465291 -0.115586
C49   C     C_R   0.930904 0.063217 0.545472 -0.111711
C50   C     C_R   0.914360 0.021791 0.612137 -0.138574
C51   C     C_R   0.811351 0.975996 0.601774 -0.146428
C52   C     C_R   0.911710 0.409192 0.211676 -0.136011
C53   C     C_R   0.723898 0.971135 0.523874 0.122153
C54   C     C_3   0.470393 0.387308 0.840899 -0.401496
C55   C     C_3   0.366643 0.389146 0.833692 -0.416179
C56   C     C_R   0.022558 0.593202 0.782435 -0.106967
C57   C     C_3   0.573986 0.519049 0.044739 -0.401240
C58   C     C_3   0.564073 0.591593 0.915333 -0.395889
C59   C     C_3   0.572576 0.499133 0.936392 0.399320
C60   C     C_3   0.396594 0.499748 0.927572 0.406055
C61   C     C_3   0.470567 0.518083 0.038988 -0.389695
C62   C     C_3   0.460044 0.592746 0.911373 -0.411369
C63   C     C_R   0.178077 0.058727 0.811504 -0.136844
C64   C     C_R   0.220456 0.752096 0.313335 -0.121842
C65   C     C_R   0.136225 0.057590 0.881109 -0.192661
C66   C     C_R   0.200064 0.138550 0.992020 0.113583
C67   C     C_R   0.793316 0.195111 0.701655 -0.145368
C68   C     C_R   0.305619 0.220975 0.032443 -0.149067
C69   C     C_R   0.346844 0.221386 0.961990 -0.140530
C70   C     C_R   0.283980 0.139499 0.852009 -0.111444
C71   C     C_R   0.171152 0.043676 0.088095 -0.230609
C72   C     C_R   0.100913 0.989251 0.116954 0.056424
C73   C     C_R   0.052874 0.043900 0.164730 0.024246
C74   C     C_R   0.061402 0.138452 0.162140 -0.240332
C75   C     C_R   0.098092 0.167032 0.096388 0.060674
C76   C     C_R   0.067739 0.251931 0.973650 -0.141395
C77   C     C_R   0.161745 0.124210 0.066276 0.026820
C78   C     C_R   0.000931 0.802358 0.097396 -0.144758
C79   C     C_R   0.865793 0.949765 0.135518 -0.151398
C80   C     C_R   0.794372 0.896736 0.164396 -0.157987
C81   C     C_R   0.835199 0.889526 0.257575 -0.100727
C82   C     C_R   0.947741 0.941205 0.325572 -0.119295
C83   C     C_R   0.019772 0.998830 0.299729 -0.188223
C84   C     C_R   0.978859 0.998273 0.201540 0.117240
C85   C     C_R   0.051634 0.223204 0.047976 0.057511
C86   C     C_R   0.094833 0.807437 0.010588 -0.150063
H1    H     H_    0.938812 0.236396 0.111893 0.092675
H2    H     H_    0.582115 0.281927 0.028913 0.093624
H3    H     H_    0.719504 0.437751 0.214198 0.113025
H4    H     H_    0.379868 0.775834 0.205710 0.089907
H5    H     H_    0.739648 0.206994 0.320503 0.105550
H6    H     H_    0.590807 0.053403 0.137922 0.099183
H7    H     H_    0.784071 0.367483 0.481594 0.129029
H8    H     H_    0.083473 0.658476 0.500980 0.130149
H9    H     H_    0.091804 0.812215 0.729228 0.112757
H10   H     H_    0.272377 0.951395 0.894273 0.137425
H11   H     H_    0.417621 0.903961 0.945011 0.092283
H12   H     H_    0.045164 0.677799 0.807999 0.115940
H13   H     H_    0.384783 0.719828 0.830425 0.100051
H14   H     H_    0.203176 0.576513 0.668938 0.106629
H15   H     H_    0.124529 0.005683 0.571865 0.092750
H16   H     H_    0.176837 0.323084 0.845380 0.099443
H17   H     H_    0.248723 0.108402 0.523875 0.102740
H18   H     H_    0.383346 0.057995 0.498204 0.111688
H19   H     H_    0.284387 0.815569 0.591268 0.126798
H20   H     H_    0.140483 0.857562 0.602331 0.115055
H21   H     H_    0.524506 0.013413 0.701515 0.124908
H22   H     H_    0.522616 0.819048 0.361555 0.122725
H23   H     H_    0.825406 0.173543 0.648969 0.133805
H24   H     H_    0.673413 0.005452 0.393205 0.115259
H25   H     H_    0.856392 0.087956 0.414156 0.127964
H26   H     H_    0.011627 0.102059 0.556264 0.100944
H27   H     H_    0.981975 0.028766 0.674487 0.115423
H28   H     H_    0.019116 0.676753 0.350168 0.106998
H29   H     H_    0.801012 0.949823 0.658002 0.112157
H30   H     H_    0.470169 0.318249 0.853530 0.143676
H31   H     H_    0.469427 0.370558 0.762732 0.157908
H32   H     H_    0.316252 0.377837 0.753536 0.153624
H33   H     H_    0.318189 0.318378 0.837719 0.163927
H34   H     H_    0.975686 0.822293 0.156166 0.130911
H35   H     H_    0.581927 0.455019 0.062853 0.148338
H36   H     H_    0.426779 0.452701 0.052787 0.162116
H37   H     H_    0.635896 0.673416 0.980495 0.150248
H38   H     H_    0.561772 0.577743 0.837137 0.157054
H39   H     H_    0.407366 0.578877 0.830861 0.151953
H40   H     H_    0.355354 0.676600 0.026496 0.087422
H41   H     H_    0.483670 0.675043 0.975374 0.142532
H42   H     H_    0.645380 0.600115 0.113911 0.156279
H43   H     H_    0.493226 0.598172 0.106280 0.151485
H44   H     H_    0.317108 0.139143 0.798220 0.123244
H45   H     H_    0.155002 0.836531 0.988031 0.101205
H46   H     H_    0.128836 0.995098 0.726942 0.106622
H47   H     H_    0.055327 0.991922 0.849461 0.118696
H48   H     H_    0.356448 0.282700 0.118241 0.117190
H49   H     H_    0.427559 0.285021 0.992655 0.113374
H50   H     H_    0.218988 0.011217 0.063086 0.125468
H51   H     H_    0.024023 0.178443 0.198565 0.126482
H52   H     H_    0.859700 0.324258 0.184747 0.113594
H53   H     H_    0.833142 0.950778 0.060579 0.114219
H54   H     H_    0.707384 0.859498 0.113537 0.107028
H55   H     H_    0.779685 0.845134 0.277896 0.117783
H56   H     H_    0.659324 0.167191 0.831463 0.087424
H57   H     H_    0.978788 0.935075 0.397327 0.119336
H58   H     H_    0.106557 0.036561 0.351158 0.118390
H59   H     H_    0.194898 0.751910 0.371562 0.119807
H60   H     H_    0.122849 0.247295 0.943990 0.126872
H61   H     H_    0.624008 0.321388 0.883569 0.093998
H62   H     H_    0.796523 0.677032 0.062811 0.110223
H63   H     H_    0.895694 0.324945 0.619170 0.102873
H64   H     H_    0.513257 0.090606 0.990789 0.102527
N1    N     N_R   0.947080 0.293830 0.002870 -0.041404
N2    N     N_R   0.153670 0.443180 0.946090 -0.036642
N3    N     N_R   0.002360 0.556820 0.208890 -0.038937
N4    N     N_R   0.210070 0.556820 0.002870 -0.033760
N5    N     N_R   0.945960 0.443180 0.152110 -0.039759
N6    N     N_R   0.151710 0.706170 0.208890 -0.042883
N7    N     N_R   0.004320 0.293830 0.946090 -0.041618
N8    N     N_R   0.789930 0.443180 0.997130 -0.035251
N9    N     N_R   0.054040 0.556820 0.847890 -0.040391
N10   N     N_R   0.848290 0.293830 0.791110 -0.041959
N11   N     N_R   0.995680 0.706170 0.053910 -0.041115
N12   N     N_R   0.052920 0.706170 0.997130 -0.041462
N13   N     N_R   0.791050 0.293830 0.847890 -0.038746
N14   N     N_R   0.846330 0.556820 0.053910 -0.036481
N15   N     N_R   0.997640 0.443180 0.791110 -0.040093
N16   N     N_R   0.208950 0.706170 0.152110 -0.039846
Ni1   Ni    Ni4+2 0.869690 0.369690 0.000000 0.211550
Ni2   Ni    Ni4+2 0.130310 0.630310 0.000000 0.217552
Ni3   Ni    Ni4+2 0.000970 0.369690 0.869780 0.215553
Ni4   Ni    Ni4+2 0.999030 0.630310 0.130220 0.213589

loop_
_geom_bond_atom_site_label_1
_geom_bond_atom_site_label_2
_ccdc_geom_bond_type
C25   C31   A    
C66   C68   A    
C63   C65   A    
C58   C62   S    
C6    C45   A    
C64   H59   S    
C27   C29   A    
C33   H18   S    
C41   C42   A    
C79   H53   S    
C17   H64   S    
C9    C72   S    
C56   H12   S    
C3    C6    A    
N4    Ni2   S    
C57   H42   S    
N11   N12   A    
C39   C41   A    
C55   H33   S    
C52   N5    A    
C39   H21   S    
C9    C78   A    
C10   H2    S    
C26   C27   A    
C29   C30   A    
C83   C84   A    
C18   C24   A    
N1    N7    A    
C21   C22   A    
C36   C37   A    
C56   N9    A    
C32   C38   A    
C42   C53   S    
C79   C84   A    
C12   C64   A    
C86   H45   S    
C57   C59   S    
C21   H8    S    
C10   C17   A    
C23   C40   A    
C30   H14   S    
C70   H44   S    
C5    H63   S    
N9    Ni2   S    
C60   C62   S    
C18   C19   A    
C73   C74   A    
C1    H1    S    
N7    Ni3   S    
C15   H6    S    
N14   Ni4   S    
C75   C85   S    
C35   C36   A    
N5    Ni1   S    
C68   C69   A    
C54   H30   S    
N3    Ni4   S    
C52   H52   S    
N10   Ni3   S    
C67   N10   A    
C86   N12   A    
C5    N15   A    
C4    C12   A    
C73   C84   S    
N8    N14   A    
C47   C53   A    
C81   H55   S    
C76   H60   S    
C3    H62   S    
C69   H49   S    
C55   C60   S    
C26   H10   S    
C40   N4    A    
C7    C56   A    
C44   C46   A    
N8    Ni1   S    
C81   C82   A    
C4    H4    S    
C54   C59   S    
N15   Ni3   S    
C23   C60   S    
C22   C34   S    
C74   H51   S    
C76   N7    A    
C74   C75   A    
C29   H13   S    
N10   N13   A    
N16   Ni2   S    
C8    C41   S    
C72   C73   A    
C71   H50   S    
C5    C7    A    
C82   H57   S    
C25   C26   A    
C80   H54   S    
C82   C83   A    
C51   H29   S    
N9    N15   A    
C13   C24   S    
C61   H36   S    
C51   C53   A    
C78   H34   S    
C43   C44   A    
C37   C38   A    
C9    C86   A    
C11   H3    S    
C47   C48   A    
C63   C70   A    
N6    N16   A    
N13   Ni1   S    
C40   H40   S    
C50   C51   A    
C58   H37   S    
C32   H17   S    
C16   N2    A    
C63   H46   S    
C75   C77   A    
C28   H28   S    
C3    N14   A    
C8    C67   A    
C39   C46   A    
N12   Ni2   S    
N11   Ni4   S    
C16   H16   S    
C48   C49   A    
N2    N4    A    
C25   H9    S    
C16   C23   A    
C7    C19   S    
C49   H26   S    
C28   N3    A    
C2    H56   S    
C22   C24   A    
C1    C85   A    
N3    N5    A    
C42   C43   A    
C71   C77   A    
C15   C17   A    
C66   C77   S    
C54   C55   S    
C27   H11   S    
C28   C34   A    
C36   H19   S    
C45   H61   S    
C34   C52   A    
C6    C59   S    
C2    C8    A    
C45   N8    A    
C80   C81   A    
C2    N13   A    
C62   H39   S    
C57   C61   S    
C61   H43   S    
C38   H15   S    
C47   H24   S    
C64   N6    A    
C58   H38   S    
C50   H27   S    
C32   C33   A    
C19   C20   A    
C68   H48   S    
C58   C59   S    
C71   C72   A    
C12   C44   S    
C83   H58   S    
N2    Ni3   S    
C11   C13   A    
C30   C31   A    
C67   H23   S    
C62   H41   S    
N1    Ni1   S    
N6    Ni4   S    
C33   C35   A    
C4    N16   A    
C1    N1    A    
C43   H22   S    
C65   C66   A    
C69   C70   A    
C14   H5    S    
C10   C11   A    
C57   H35   S    
C79   C80   A    
C37   H20   S    
C48   H25   S    
C20   C21   A    
C78   N11   A    
C49   C50   A    
C54   H31   S    
C18   H7    S    
C14   C15   A    
C60   C61   S    
C13   C14   A    
C35   C46   S    
C76   C85   A    
C55   H32   S    
C65   H47   S    
C20   C31   S    
