data_mof_unit_18787.cif
_audit_creation_date              2012-12-10T17:53:21-0500
_audit_creation_method            fapswitch 2.2
_symmetry_space_group_name_H-M    P1
_symmetry_Int_Tables_number       1
_space_group_crystal_system       triclinic
_cell_length_a                    23.458428
_cell_length_b                    10.572433
_cell_length_c                    9.894627
_cell_angle_alpha                 90.689007
_cell_angle_beta                  90.590687
_cell_angle_gamma                 91.663976
_cell_volume                      2452.64111011

loop_
_atom_site_label
_atom_site_type_symbol
_atom_type_description
_atom_site_fract_x
_atom_site_fract_y
_atom_site_fract_z
_atom_type_partial_charge
Br1   Br    Br    0.668612 0.686172 0.733368 -0.467670
Br2   Br    Br    0.555668 0.121266 0.027038 -0.504597
Br3   Br    Br    0.432487 0.855435 0.226168 -0.518334
Br4   Br    Br    0.944400 0.908835 0.470416 -0.401988
C1    C     C_R   0.502819 0.258709 0.499857 0.873663
C2    C     C_R   0.121164 0.622826 0.527395 0.543408
C3    C     C_R   0.233686 0.547323 0.407408 -0.132976
C4    C     C_R   0.389191 0.500390 0.499258 0.868456
C5    C     C_R   0.292650 0.544334 0.392192 -0.067637
C6    C     C_R   0.326553 0.499735 0.500679 -0.097506
C7    C     C_R   0.299756 0.459125 0.619985 -0.166807
C8    C     C_R   0.241104 0.463184 0.633013 -0.065690
C9    C     C_R   0.208036 0.507162 0.526759 0.273195
C10   C     C_R   0.760788 0.443725 0.401819 -0.059616
C11   C     C_R   0.701579 0.442463 0.401688 -0.234424
C12   C     C_R   0.966343 0.284841 0.554872 -0.112505
C13   C     C_R   0.672576 0.508552 0.502359 -0.123260
C14   C     C_R   0.703569 0.578896 0.602090 0.251709
C15   C     C_R   0.762727 0.577841 0.602500 -0.106269
C16   C     C_R   0.489049 0.736512 0.500926 0.941176
C17   C     C_R   0.791358 0.510592 0.502952 0.227642
C18   C     C_R   0.531261 0.105771 0.741985 -0.159219
C19   C     C_R   0.522098 0.048531 0.866248 0.346817
C20   C     C_R   0.484967 0.943785 0.874288 -0.266939
C21   C     C_R   0.461644 0.886587 0.756556 -0.140784
C22   C     C_R   0.478647 0.935461 0.629124 0.030247
C23   C     C_R   0.025513 0.284038 0.560905 -0.132199
C24   C     C_R   0.504333 0.055908 0.623730 0.027252
C25   C     C_R   0.499927 0.122364 0.500653 -0.140585
C26   C     C_R   0.478662 0.060921 0.383549 -0.210133
C27   C     C_R   0.465866 0.933183 0.385068 0.290065
C28   C     C_R   0.610507 0.503340 0.500756 0.926959
C29   C     C_R   0.472846 0.867851 0.505743 -0.148053
C30   C     C_R   0.427986 0.328480 0.136599 -0.067886
C31   C     C_R   0.393136 0.242352 0.064664 -0.131454
C32   C     C_R   0.392731 0.242807 0.924837 -0.181538
C33   C     C_R   0.427252 0.329198 0.856264 -0.147739
C34   C     C_R   0.057558 0.397232 0.548805 -0.013202
C35   C     C_R   0.464371 0.415468 0.925812 0.204486
C36   C     C_R   0.464546 0.415309 0.070489 0.215719
C37   C     C_R   0.533990 0.580938 0.073482 -0.064046
C38   C     C_R   0.534017 0.580758 0.930307 -0.112371
C39   C     C_R   0.881768 0.623412 0.490475 0.555098
C40   C     C_R   0.878876 0.400043 0.527301 0.527691
C41   C     C_R   0.938167 0.398543 0.534942 -0.015573
C42   C     C_R   0.969739 0.513465 0.523195 -0.058480
C43   C     C_R   0.941669 0.628655 0.502161 -0.100986
C44   C     C_2   0.413403 0.791161 0.766583 0.999622
C45   C     C_R   0.029657 0.512447 0.531735 -0.015037
C46   C     C_2   0.315444 0.593405 0.263703 0.974769
C47   C     C_R   0.061688 0.626235 0.521883 -0.077785
C48   C     C_R   0.033961 0.740352 0.504477 -0.179914
C49   C     C_R   0.974741 0.743086 0.493886 0.316237
C50   C     C_R   0.117131 0.397966 0.550206 0.513572
H1    H     H_    0.942772 0.195924 0.564782 0.228580
H2    H     H_    0.365657 0.176180 0.117926 0.176507
H3    H     H_    0.365024 0.176782 0.868948 0.170358
H4    H     H_    0.423144 0.325869 0.749189 0.197309
H5    H     H_    0.561046 0.648093 0.878103 0.201811
H6    H     H_    0.058375 0.828573 0.497468 0.219507
H7    H     H_    0.207097 0.580302 0.325498 0.165290
H8    H     H_    0.324201 0.424546 0.704560 0.172871
H9    H     H_    0.221299 0.432360 0.725845 0.159844
H10   H     H_    0.782963 0.392426 0.323969 0.172053
H11   H     H_    0.438060 0.719090 0.946998 0.317276
H12   H     H_    0.678392 0.388735 0.323877 0.192516
H13   H     H_    0.316220 0.735314 0.129275 0.382884
H14   H     H_    0.786787 0.630695 0.679478 0.183959
H15   H     H_    0.471173 0.111773 0.291044 0.203585
H16   H     H_    0.559411 0.188515 0.739359 0.188785
H17   H     H_    0.473884 0.910136 0.972759 0.205874
H18   H     H_    0.561533 0.647510 0.128855 0.177725
H19   H     H_    0.045990 0.194492 0.574612 0.208746
H20   H     H_    0.424108 0.326113 0.243561 0.190794
N1    N     N_R   0.852192 0.511012 0.505212 -0.359848
N2    N     N_R   0.147492 0.509582 0.538073 -0.355723
N3    N     N_R   0.499460 0.498800 0.142780 -0.118052
N4    N     N_R   0.499440 0.498720 0.857170 -0.124227
O1    O     O_R   0.500000 0.316780 0.614690 -0.655291
O2    O     O_R   0.583850 0.500050 0.614640 -0.579440
O3    O     O_R   0.583840 0.500030 0.385310 -0.612833
O4    O     O_2   0.852729 0.728412 0.463573 -0.466326
O5    O     O_2   0.378329 0.781579 0.674682 -0.576093
O6    O     O_R   0.405708 0.713799 0.879066 -0.750021
O7    O     O_2   0.342829 0.525714 0.189359 -0.609261
O8    O     O_R   0.300807 0.714148 0.221917 -0.742956
O9    O     O_2   0.847878 0.291721 0.543208 -0.514500
O10   O     O_2   0.144555 0.287930 0.560420 -0.539304
O11   O     O_2   0.152626 0.731536 0.520997 -0.513422
O12   O     O_R   0.500000 0.316750 0.385360 -0.634768
O13   O     O_R   0.416160 0.499970 0.614690 -0.622414
O14   O     O_R   0.416150 0.499950 0.385360 -0.610367
O15   O     O_R   0.500000 0.683250 0.614640 -0.626014
O16   O     O_R   0.500000 0.683220 0.385310 -0.577615
Zn1   Zn    Zn3+2 0.500000 0.500020 0.653130 0.982178
Zn2   Zn    Zn3+2 0.500000 0.499980 0.346870 1.005443

loop_
_geom_bond_atom_site_label_1
_geom_bond_atom_site_label_2
_ccdc_geom_bond_type
C16   O15   A    
Br4   C49   S    
C37   C38   A    
C31   C32   A    
C7    H8    S    
C34   C45   A    
C41   C42   A    
C48   C49   A    
C28   O3    A    
C42   C45   A    
Br1   C14   S    
C30   C36   A    
C10   C17   A    
C24   C25   A    
C15   C17   A    
C14   C15   A    
C37   N3    A    
C26   C27   A    
C23   C34   A    
O14   Zn2   S    
C3    C5    A    
C30   C31   A    
C3    H7    S    
C48   H6    S    
C46   O7    D    
C45   C47   A    
C19   C20   A    
C27   C29   A    
C4    O14   A    
C2    C47   A    
C1    O1    A    
C40   O9    S    
C5    C6    A    
C1    O12   A    
C43   C49   A    
C12   C23   A    
O15   Zn1   S    
C18   C24   A    
C1    C25   S    
C39   N1    A    
C47   C48   A    
C35   N4    A    
C20   C21   A    
C32   H3    S    
C35   C36   A    
O3    Zn2   S    
H11   O6    S    
C21   C22   A    
C11   H12   S    
C44   O6    S    
C38   H5    S    
C40   N1    A    
Br3   C27   S    
O1    Zn1   S    
C25   C26   A    
C28   O2    A    
C22   C29   A    
C34   C50   A    
C9    N2    S    
N4    Zn1   S    
C10   H10   S    
C10   C11   A    
C13   C14   A    
C15   H14   S    
C4    O13   A    
O2    Zn1   S    
O16   Zn2   S    
C21   C44   S    
C30   H20   S    
C37   H18   S    
C50   N2    A    
C16   C29   S    
C38   N4    A    
C26   H15   S    
C40   C41   A    
C11   C13   A    
C16   O16   A    
C42   C43   A    
C32   C33   A    
H13   O8    S    
C31   H2    S    
C36   N3    A    
C2    N2    A    
C5    C46   S    
C33   H4    S    
C12   C41   A    
C7    C8    A    
O12   Zn2   S    
C2    O11   S    
C17   N1    S    
N3    Zn2   S    
C22   C24   A    
C44   O5    D    
C12   H1    S    
C33   C35   A    
C23   H19   S    
C50   O10   S    
C6    C7    A    
C46   O8    S    
O13   Zn1   S    
C3    C9    A    
C8    C9    A    
C4    C6    S    
Br2   C19   S    
C13   C28   S    
C18   C19   A    
C8    H9    S    
C39   C43   A    
C18   H16   S    
C39   O4    S    
C20   H17   S    
