data_mof_unit_25903.cif
_audit_creation_date              2012-12-11T17:09:35-0500
_audit_creation_method            fapswitch 2.2
_symmetry_space_group_name_H-M    P1
_symmetry_Int_Tables_number       1
_space_group_crystal_system       triclinic
_cell_length_a                    14.805375
_cell_length_b                    6.971684
_cell_length_c                    13.51956
_cell_angle_alpha                 90.000047
_cell_angle_beta                  99.939434
_cell_angle_gamma                 89.999989
_cell_volume                      1374.52239719

loop_
_atom_site_label
_atom_site_type_symbol
_atom_type_description
_atom_site_fract_x
_atom_site_fract_y
_atom_site_fract_z
_atom_type_partial_charge
O1    O     O_R   0.586930 0.505770 0.416350 -0.538238
O2    O     O_R   0.413070 0.005770 0.583650 -0.538236
O3    O     O_R   0.397900 0.173100 0.389630 -0.536151
O4    O     O_R   0.602100 0.673100 0.610370 -0.536154
C1    C     C_R   0.364797 0.345459 0.362385 0.710366
C2    C     C_R   0.635202 0.845459 0.637615 0.710364
O5    O     O_R   0.585280 0.175870 0.404330 -0.543420
O6    O     O_R   0.414720 0.675870 0.595670 -0.543423
O7    O     O_R   0.601790 0.008380 0.598460 -0.533340
O8    O     O_R   0.398210 0.508380 0.401540 -0.533344
C3    C     C_R   0.614752 0.344964 0.383070 0.706636
C4    C     C_R   0.385249 0.844964 0.616931 0.706644
O9    O     O_3   0.505200 0.340120 0.563670 -0.370016
O10   O     O_3   0.494800 0.840120 0.436330 -0.370009
V1    V     V_3+5 0.499040 0.064180 0.488190 1.396450
V2    V     V_3+5 0.500960 0.564180 0.511810 1.396440
C5    C     C_R   0.252891 0.009072 0.676682 0.003249
C6    C     C_R   0.747112 0.509069 0.323321 0.003248
C7    C     C_R   0.314361 0.854668 0.682321 -0.124283
C8    C     C_R   0.685640 0.354667 0.317679 -0.124286
C9    C     C_R   0.307866 0.711741 0.754061 -0.175884
C10   C     C_R   0.692133 0.211743 0.245938 -0.175874
H1    H     H_    0.356100 0.594034 0.763204 0.124081
H2    H     H_    0.643898 0.094038 0.236794 0.124072
C11   C     C_R   0.242524 0.725181 0.818202 -0.072990
C12   C     C_R   0.757475 0.225184 0.181796 -0.072980
H3    H     H_    0.242512 0.622452 0.877357 0.141583
H4    H     H_    0.757485 0.122458 0.122639 0.141571
C13   C     C_R   0.180615 0.878165 0.811916 -0.127255
C14   C     C_R   0.819385 0.378165 0.188085 -0.127246
C15   C     C_R   0.188646 0.022721 0.741962 -0.038662
C16   C     C_R   0.811356 0.522720 0.258040 -0.038667
C17   C     C_3   0.214339 0.230282 0.764497 0.599791
C18   C     C_3   0.785663 0.730282 0.235508 0.599793
C19   C     C_3   0.277992 0.216337 0.686579 -0.078074
C20   C     C_3   0.722012 0.716334 0.313427 -0.078077
H5    H     H_    0.351866 0.239299 0.717690 0.126289
H6    H     H_    0.648137 0.739299 0.282319 0.126294
C21   C     C_1   0.783397 0.877188 0.783045 -0.194507
C22   C     C_1   0.216603 0.377188 0.216955 -0.194510
C23   C     C_1   0.715918 0.860133 0.717111 -0.183175
C24   C     C_1   0.284081 0.360133 0.282889 -0.183172
O11   O     O_R   0.101720 0.231700 0.098560 -0.534862
O12   O     O_R   0.898280 0.731700 0.901440 -0.534862
O13   O     O_R   0.914700 0.558980 0.095690 -0.544229
O14   O     O_R   0.085300 0.058980 0.904310 -0.544219
C25   C     C_R   0.885877 0.390065 0.117658 0.695789
C26   C     C_R   0.114123 0.890065 0.882342 0.695792
O15   O     O_R   0.102080 0.561590 0.110390 -0.543151
O16   O     O_R   0.897920 0.061590 0.889610 -0.543146
O17   O     O_R   0.086950 0.728940 0.916330 -0.528176
O18   O     O_R   0.913050 0.228940 0.083670 -0.528177
C27   C     C_R   0.135963 0.391962 0.137366 0.717799
C28   C     C_R   0.864036 0.891961 0.862634 0.717800
O19   O     O_3   0.994770 0.394510 0.936380 -0.365382
O20   O     O_3   0.005230 0.894510 0.063620 -0.365395
V3    V     V_3+5 0.000970 0.670520 0.011800 1.423977
V4    V     V_3+5 0.999030 0.170520 0.988200 1.423994
C29   C     C_3   0.269222 0.253871 0.872320 -0.800947
H7    H     H_    0.323766 0.363006 0.875090 0.167256
H8    H     H_    0.222859 0.294586 0.925162 0.222829
H9    H     H_    0.305833 0.120242 0.900294 0.175007
C30   C     C_3   0.730780 0.753874 0.127685 -0.800949
H10   H     H_    0.676234 0.863007 0.124917 0.167258
H11   H     H_    0.777142 0.794592 0.074843 0.222827
H12   H     H_    0.694168 0.620245 0.099710 0.175007
O21   O     O_3   0.145498 0.375167 0.741247 -0.537229
C31   C     C_3   0.058679 0.307669 0.693920 -0.187604
H13   H     H_    0.025741 0.219582 0.745745 0.152346
H14   H     H_    0.062538 0.226183 0.624297 0.105887
H15   H     H_    0.013692 0.433358 0.672222 0.141714
O22   O     O_3   0.854502 0.875171 0.258760 -0.537222
C32   C     C_3   0.941328 0.807670 0.306070 -0.187616
H16   H     H_    0.974272 0.719664 0.254217 0.152394
H17   H     H_    0.937475 0.726105 0.375671 0.105866
H18   H     H_    0.986306 0.933360 0.327806 0.141698
C33   C     C_3   0.247794 0.323666 0.587131 -0.671726
H19   H     H_    0.183746 0.264124 0.543089 0.184367
H20   H     H_    0.237346 0.478003 0.600677 0.228822
H21   H     H_    0.302274 0.310892 0.540923 0.205042
C34   C     C_3   0.752214 0.823656 0.412876 -0.671683
H22   H     H_    0.816290 0.764178 0.456889 0.184386
H23   H     H_    0.762614 0.978011 0.399333 0.228803
H24   H     H_    0.697759 0.810791 0.459110 0.205015

loop_
_geom_bond_atom_site_label_1
_geom_bond_atom_site_label_2
_ccdc_geom_bond_type
C1    C24   S    
C30   H11   S    
C32   H16   S    
O1    C3    A    
O2    C4    A    
C2    O7    A    
C34   H22   S    
C21   C23   T    
C33   H19   S    
O5    C3    A    
O13   V3    S    
O16   C28   A    
C19   H5    S    
C21   C28   S    
O15   V3    S    
O20   V3    S    
O13   C25   A    
O11   V4    S    
C17   C19   S    
O11   C27   A    
C26   O17   A    
C31   H13   S    
C2    C23   S    
C15   C17   S    
O17   V3    S    
O10   V2    S    
O12   V3    S    
C18   C20   S    
C22   C24   T    
C30   H12   S    
C29   H7    S    
C17   C29   S    
O14   V4    S    
C32   H17   S    
C34   H23   S    
C33   H20   S    
C9    H1    S    
C11   C13   A    
O14   C26   A    
C3    C8    S    
C29   H8    S    
C13   C26   S    
O21   C31   S    
O16   V4    S    
C14   C25   S    
O4    C2    A    
C19   C33   S    
C16   C18   S    
O4    V2    S    
C20   C34   S    
O6    C4    A    
O1    V2    S    
O2    V1    S    
O18   V4    S    
C31   H14   S    
C8    C10   A    
C12   C14   A    
O19   V3    S    
C5    C15   A    
C32   H18   S    
C10   H2    S    
O9    V2    S    
C6    C16   A    
C20   H6    S    
C18   O22   S    
C34   H24   S    
O3    V1    S    
C17   O21   S    
C33   H21   S    
C9    C11   A    
C29   H9    S    
C7    C9    A    
O22   C32   S    
O3    C1    A    
C25   O18   A    
C11   H3    S    
C12   H4    S    
O9    V1    S    
O7    V1    S    
C1    O8    A    
C13   C15   A    
O8    V2    S    
C14   C16   A    
C31   H15   S    
O15   C27   A    
C4    C7    S    
O5    V1    S    
C18   C30   S    
C5    C7    A    
O20   V4    S    
C6    C8    A    
C30   H10   S    
O12   C28   A    
O6    V2    S    
C22   C27   S    
C10   C12   A    
O19   V4    S    
O10   V1    S    
C5    C19   S    
C6    C20   S    
