data_mof_unit_52177.cif
_audit_creation_date              2012-12-11T14:50:39-0500
_audit_creation_method            fapswitch 2.2
_symmetry_space_group_name_H-M    P1
_symmetry_Int_Tables_number       1
_space_group_crystal_system       triclinic
_cell_length_a                    11.105871
_cell_length_b                    10.981071
_cell_length_c                    18.813241
_cell_angle_alpha                 89.962525
_cell_angle_beta                  89.185527
_cell_angle_gamma                 59.829601
_cell_volume                      1983.29439093

loop_
_atom_site_label
_atom_site_type_symbol
_atom_type_description
_atom_site_fract_x
_atom_site_fract_y
_atom_site_fract_z
_atom_type_partial_charge
C1    C     C_R   0.237926 0.644570 0.610343 0.564136
C2    C     C_3   0.693149 0.575524 0.802439 0.225274
C3    C     C_3   0.721637 0.699294 0.807158 -0.005728
C4    C     C_3   0.676596 0.661907 0.673622 0.011739
C5    C     C_3   0.811543 0.670387 0.679480 0.187535
C6    C     C_3   0.673483 0.550356 0.725370 0.051957
C7    C     C_R   0.787204 0.111862 0.705145 -0.099144
C8    C     C_R   0.808997 0.109442 0.778960 0.163936
C9    C     C_R   0.692273 0.164097 0.825960 0.109894
C10   C     C_R   0.560364 0.253654 0.799156 -0.114218
C11   C     C_R   0.544077 0.274425 0.726543 -0.131936
C12   C     C_R   0.654220 0.625089 0.600105 0.591031
C13   C     C_R   0.652865 0.192700 0.678729 0.019725
C14   C     C_R   0.191326 0.544364 0.723720 0.117437
C15   C     C_R   0.184126 0.551509 0.798586 -0.197588
C16   C     C_R   0.185459 0.662056 0.835417 0.000604
C17   C     C_R   0.210515 0.756057 0.798065 0.344100
C18   C     C_R   0.208439 0.757203 0.725076 -0.106948
C19   C     C_R   0.201322 0.652549 0.686397 -0.027737
C20   C     C_R   0.793381 0.631879 0.297169 0.137286
C21   C     C_R   0.810323 0.654263 0.225974 -0.134296
C22   C     C_R   0.698743 0.702625 0.179384 0.093955
C23   C     C_R   0.626312 0.229772 0.603357 0.515052
C24   C     C_R   0.566540 0.732501 0.204360 0.189531
C25   C     C_R   0.547654 0.718871 0.276663 -0.106553
C26   C     C_R   0.660845 0.666549 0.322767 0.086625
C27   C     C_R   0.595525 0.102597 0.293698 0.093083
C28   C     C_R   0.592984 0.088793 0.220938 0.391439
C29   C     C_R   0.641193 0.157059 0.175188 -0.012879
C30   C     C_R   0.680307 0.249768 0.201376 -0.179543
C31   C     C_R   0.680463 0.267452 0.274057 0.312364
C32   C     C_R   0.641329 0.191607 0.320607 -0.001027
C33   C     C_R   0.083964 0.792570 0.306549 0.324188
C34   C     C_R   0.226616 0.646638 0.400936 0.607595
C35   C     C_R   0.059642 0.811608 0.234925 0.074332
C36   C     C_R   0.118554 0.692488 0.188417 -0.007445
C37   C     C_R   0.202468 0.557118 0.214514 0.282404
C38   C     C_R   0.232829 0.540874 0.285982 -0.187050
C39   C     C_R   0.174484 0.659508 0.331243 -0.052297
C40   C     C_R   0.702797 0.103041 0.896642 0.557339
C41   C     C_R   0.753875 0.711534 0.882835 0.591495
C42   C     C_R   0.119942 0.704362 0.906157 0.573500
C43   C     C_R   0.672523 0.108157 0.103008 0.567419
C44   C     C_R   0.728516 0.716096 0.105413 0.579115
C45   C     C_R   0.643095 0.624442 0.393317 0.599311
C46   C     C_R   0.085540 0.714008 0.114297 0.592557
C47   C     C_R   0.615393 0.233637 0.394127 0.588350
C48   C     C_3   0.591374 0.838060 0.776985 0.409225
C49   C     C_3   0.559303 0.809704 0.699816 0.177758
C50   C     C_3   0.848758 0.668114 0.758794 -0.202153
Cr1   Cr    Cr6+3 0.392930 0.397900 0.502230 1.013206
Cr2   Cr    Cr6+3 0.398240 0.708600 0.501260 1.059670
Cr3   Cr    Cr6+3 0.708800 0.393470 0.496460 1.075430
Cr4   Cr    Cr6+3 0.937620 0.938540 0.007640 1.020104
Cr5   Cr    Cr6+3 0.625150 0.937450 0.994520 1.094959
Cr6   Cr    Cr6+3 0.937990 0.625080 0.001190 1.049228
H1    H     H_    0.938763 0.565783 0.773185 0.189510
H2    H     H_    0.874952 0.062443 0.668310 0.095155
H3    H     H_    0.470083 0.305871 0.834244 0.109064
H4    H     H_    0.446579 0.356339 0.706908 0.149099
H5    H     H_    0.165125 0.478766 0.828425 0.142680
H6    H     H_    0.212037 0.842626 0.698658 0.216417
H7    H     H_    0.912162 0.629087 0.206322 0.121580
H8    H     H_    0.446630 0.739030 0.295793 0.118263
H9    H     H_    0.715449 0.303749 0.165871 0.143811
H10   H     H_    0.305488 0.436618 0.305400 0.170040
H11   H     H_    0.553184 0.892758 0.663549 0.160241
H12   H     H_    0.880300 0.748310 0.767908 0.130374
H13   H     H_    0.793642 0.771443 0.656309 0.143015
H14   H     H_    0.598924 0.598389 0.834058 0.122027
H15   H     H_    0.565364 0.567909 0.723254 0.128135
O1    O     O_R   0.507430 0.255570 0.581420 -0.512886
O2    O     O_R   0.524460 0.695920 0.424060 -0.544340
O3    O     O_R   0.736530 0.504260 0.414810 -0.436724
O4    O     O_R   0.691460 0.277160 0.422180 -0.422672
O5    O     O_3   0.499990 0.499990 0.499980 -0.284539
O6    O     O_R   0.089490 0.825610 0.930610 -0.440805
O7    O     O_R   0.818370 0.054540 0.929880 -0.510728
O8    O     O_R   0.605870 0.077310 0.915530 -0.497917
O9    O     O_R   0.646440 0.806700 0.917570 -0.471979
O10   O     O_R   0.837200 0.593290 0.915250 -0.450127
O11   O     O_R   0.065330 0.635370 0.931590 -0.542775
O12   O     O_R   0.280190 0.527390 0.578910 -0.507557
O13   O     O_R   0.068300 0.828790 0.091860 -0.514762
O14   O     O_R   0.798730 0.057480 0.079370 -0.513248
O15   O     O_R   0.584680 0.080480 0.076790 -0.434535
O16   O     O_R   0.626790 0.809640 0.067050 -0.429862
O17   O     O_R   0.816010 0.596460 0.076500 -0.533718
O18   O     O_R   0.045680 0.638310 0.081070 -0.476499
O19   O     O_3   0.833590 0.833690 0.001120 -0.324505
O20   O     O_R   0.260310 0.739740 0.584580 -0.495362
O21   O     O_R   0.532250 0.695150 0.573830 -0.473414
O22   O     O_R   0.744930 0.503430 0.576380 -0.488146
O23   O     O_R   0.699250 0.276390 0.571950 -0.535587
O24   O     O_R   0.499020 0.256400 0.419850 -0.548047
O25   O     O_R   0.272400 0.528160 0.429140 -0.526437
O26   O     O_R   0.251910 0.740570 0.423020 -0.458228
F1    F     F_    0.626798 0.942467 0.773649 -0.684698
N1    N     N_2   0.764277 0.403298 0.706069 -0.451284
H16   H     H_    0.719060 0.372908 0.669948 0.270853
C51   C     C_3   0.913785 0.335887 0.696615 -0.160298
H17   H     H_    0.943784 0.347700 0.642004 0.218318
H18   H     H_    0.960880 0.221303 0.703338 0.089051
H19   H     H_    0.959278 0.373039 0.736131 0.219491
F2    F     F_    0.919383 0.568478 0.639811 -0.670392
N2    N     N_2   0.947064 0.054550 0.804000 -0.471901
H20   H     H_    0.020603 0.013714 0.763902 0.257181
C52   C     C_3   0.973042 0.142330 0.852086 -0.164416
H21   H     H_    0.028373 0.189058 0.823952 0.125185
H22   H     H_    0.040430 0.077235 0.895802 0.206171
H23   H     H_    0.876095 0.227623 0.876744 0.209627
N3    N     N_2   0.175404 0.438541 0.687016 -0.459362
H24   H     H_    0.157988 0.445322 0.633462 0.336852
C53   C     C_3   0.224441 0.299462 0.715752 -0.319686
H25   H     H_    0.191686 0.240323 0.680839 0.130918
H26   H     H_    0.180763 0.304321 0.769519 0.111340
H27   H     H_    0.338569 0.237233 0.715961 0.172444
F3    F     F_    0.219680 0.858950 0.832180 -0.678221
N4    N     N_2   0.469462 0.885804 0.823393 -0.390160
H28   H     H_    0.439806 0.813339 0.834324 0.293879
C54   C     C_3   0.357207 0.029635 0.819199 -0.164316
H29   H     H_    0.285910 0.053705 0.865652 0.138943
H30   H     H_    0.297839 0.043938 0.770049 0.181012
H31   H     H_    0.397676 0.103448 0.821416 0.180475
N5    N     N_2   0.909173 0.574378 0.343172 -0.498720
H32   H     H_    0.952828 0.637148 0.347542 0.254978
C55   C     C_3   0.010857 0.427613 0.329993 -0.262436
H33   H     H_    0.092942 0.390510 0.370796 0.136983
H34   H     H_    0.060349 0.413514 0.276634 0.159037
H35   H     H_    0.960863 0.361951 0.333153 0.223348
N6    N     N_2   0.454316 0.770555 0.157254 -0.471007
H36   H     H_    0.358425 0.836379 0.180403 0.241172
C56   C     C_3   0.457763 0.651934 0.121784 -0.276282
H37   H     H_    0.446561 0.582798 0.161297 0.157474
H38   H     H_    0.556994 0.589702 0.091433 0.173637
H39   H     H_    0.370636 0.690668 0.083849 0.166666
N7    N     N_2   0.560228 0.020093 0.338874 -0.478001
H40   H     H_    0.606238 0.996652 0.388024 0.257550
C57   C     C_3   0.414267 0.060421 0.341160 -0.245181
H41   H     H_    0.378044 0.051501 0.287818 0.207196
H42   H     H_    0.399240 0.989272 0.377497 0.137792
H43   H     H_    0.349273 0.170308 0.360842 0.147766
F4    F     F_    0.552182 0.000493 0.195012 -0.624880
F5    F     F_    0.717357 0.359977 0.298423 -0.638949
F6    F     F_    0.023808 0.905235 0.351751 -0.634950
F7    F     F_    0.431409 0.818070 0.697330 -0.685879
N8    N     N_2   0.971911 0.951149 0.210752 -0.455178
H44   H     H_    0.883173 0.001840 0.241632 0.270045
C58   C     C_3   0.039927 0.034027 0.204006 -0.224794
H45   H     H_    0.078389 0.046073 0.256253 0.176272
H46   H     H_    0.965421 0.140225 0.183795 0.151374
H47   H     H_    0.127894 0.984394 0.165360 0.155295
F8    F     F_    0.259914 0.442827 0.170674 -0.628543
F9    F     F_    0.798564 0.453506 0.831624 -0.660150

loop_
_geom_bond_atom_site_label_1
_geom_bond_atom_site_label_2
_ccdc_geom_bond_type
C51   H17   S    
Cr1   O12   S    
C11   C13   A    
Cr2   O26   S    
C35   C36   A    
C42   O11   A    
C41   O9    A    
N3    C53   S    
C53   H25   S    
C7    C8    A    
C46   O18   A    
C5    F2    S    
C14   N3    S    
N7    C57   S    
C27   N7    S    
N2    C52   S    
C52   H23   S    
C28   C29   A    
N8    C58   S    
C34   O25   A    
Cr4   O19   S    
Cr5   O19   S    
C58   H46   S    
C38   C39   A    
C57   H43   S    
Cr6   O17   S    
C11   H4    S    
N2    H20   S    
C15   C16   A    
C3    C48   S    
C34   O26   A    
C52   H21   S    
C13   C23   S    
C45   O2    A    
C18   C19   A    
C31   F5    S    
C54   H31   S    
C5    H13   S    
C26   C45   S    
C33   C39   A    
C22   C44   S    
N8    H44   S    
C8    C9    A    
C56   H39   S    
C36   C46   S    
C4    C12   S    
C44   O16   A    
C9    C10   A    
C7    H2    S    
Cr1   O25   S    
Cr4   O6    S    
Cr6   O19   S    
C27   C32   A    
C1    O20   A    
C21   C22   A    
C29   C43   S    
C43   O15   A    
Cr3   O4    S    
C14   C19   A    
Cr4   O13   S    
N3    H24   S    
C3    C50   S    
C48   N4    S    
N4    C54   S    
C6    H15   S    
C1    C19   S    
C54   H30   S    
Cr3   O22   S    
C34   C39   S    
C43   O14   A    
C37   F8    S    
Cr6   O10   S    
Cr1   O5    S    
C4    C6    S    
Cr2   O2    S    
C58   H47   S    
C16   C17   A    
N6    C56   S    
C25   C26   A    
C9    C40   S    
C2    C6    S    
C45   O3    A    
C25   H8    S    
C55   H34   S    
C37   C38   A    
C56   H37   S    
Cr5   O8    S    
C31   C32   A    
C57   H41   S    
C41   O10   A    
C17   C18   A    
C15   H5    S    
C40   O8    A    
C28   F4    S    
C35   N8    S    
C24   C25   A    
C54   H29   S    
C33   F6    S    
C17   F3    S    
C46   O13   A    
Cr6   O18   S    
N1    C51   S    
C51   H19   S    
N5    H32   S    
C32   C47   S    
C40   O7    A    
C12   O22   A    
Cr2   O21   S    
Cr3   O5    S    
Cr1   O1    S    
N6    H36   S    
C16   C42   S    
N5    C55   S    
C38   H10   S    
C48   C49   S    
C49   H11   S    
Cr3   O23   S    
C50   H1    S    
C23   O1    A    
C12   O21   A    
C18   H6    S    
C4    C5    S    
Cr2   O5    S    
C8    N2    S    
Cr4   O14   S    
C53   H26   S    
N4    H28   S    
C23   O23   A    
Cr6   O11   S    
C1    O12   A    
C48   F1    S    
N7    H40   S    
N1    H16   S    
C4    C49   S    
C6    N1    S    
Cr5   O15   S    
C10   H3    S    
C55   H35   S    
C47   O4    A    
C20   N5    S    
C44   O17   A    
C58   H45   S    
Cr5   O9    S    
C57   H42   S    
C24   N6    S    
C30   C31   A    
C20   C26   A    
C36   C37   A    
C33   C35   A    
C52   H22   S    
C49   F7    S    
C2    C3    S    
C22   C24   A    
Cr5   O16   S    
C5    C50   S    
C21   H7    S    
C30   H9    S    
C3    C41   S    
C10   C11   A    
C29   C30   A    
C7    C13   A    
C20   C21   A    
C42   O6    A    
C51   H18   S    
C2    F9    S    
C27   C28   A    
C56   H38   S    
C47   O24   A    
C14   C15   A    
Cr2   O20   S    
C53   H27   S    
C2    H14   S    
C50   H12   S    
C55   H33   S    
Cr1   O24   S    
Cr4   O7    S    
Cr3   O3    S    
