data_mof_unit_58320.cif
_audit_creation_date              2012-12-10T18:04:37-0500
_audit_creation_method            fapswitch 2.2
_symmetry_space_group_name_H-M    P1
_symmetry_Int_Tables_number       1
_space_group_crystal_system       triclinic
_cell_length_a                    19.726057
_cell_length_b                    17.356464
_cell_length_c                    12.597242
_cell_angle_alpha                 90.000556
_cell_angle_beta                  99.191462
_cell_angle_gamma                 90.000254
_cell_volume                      4257.59740083

loop_
_atom_site_label
_atom_site_type_symbol
_atom_type_description
_atom_site_fract_x
_atom_site_fract_y
_atom_site_fract_z
_atom_type_partial_charge
C1    C     C_R   0.410879 0.102848 0.443123 0.979842
C2    C     C_R   0.410879 0.897152 0.443123 0.979845
C3    C     C_R   0.910886 0.602857 0.443128 0.979780
C4    C     C_R   0.910880 0.397151 0.443123 0.979824
C5    C     C_R   0.741043 0.220612 0.537347 0.120288
C6    C     C_R   0.741054 0.779397 0.537363 0.120285
C7    C     C_R   0.241041 0.720615 0.537345 0.120296
C8    C     C_R   0.241043 0.279388 0.537346 0.120289
C9    C     C_R   0.780731 0.209257 0.640482 0.094777
C10   C     C_R   0.780708 0.790694 0.640539 0.094775
C11   C     C_R   0.280731 0.709256 0.640479 0.094782
C12   C     C_R   0.280730 0.290744 0.640482 0.094781
C13   C     C_R   0.349669 0.729939 0.658601 -0.223221
C14   C     C_R   0.349667 0.270059 0.658607 -0.223216
C15   C     C_R   0.849668 0.229942 0.658607 -0.223216
C16   C     C_R   0.849641 0.769988 0.658704 -0.223217
C17   C     C_R   0.378859 0.765411 0.578004 0.301754
C18   C     C_R   0.378859 0.234588 0.578010 0.301758
C19   C     C_R   0.878859 0.265412 0.578010 0.301756
C20   C     C_R   0.878855 0.734551 0.578104 0.301816
C21   C     C_R   0.673115 0.195450 0.520255 -0.186881
C22   C     C_R   0.673131 0.804572 0.520235 -0.186920
C23   C     C_R   0.173113 0.695452 0.520255 -0.186902
C24   C     C_R   0.173115 0.304551 0.520253 -0.186877
C25   C     C_R   0.686368 0.141165 0.699123 -0.170869
C26   C     C_R   0.686327 0.858768 0.699154 -0.170839
C27   C     C_R   0.186368 0.641164 0.699122 -0.170845
C28   C     C_R   0.186367 0.358835 0.699124 -0.170875
C29   C     C_R   0.359936 0.837955 0.405707 -0.281927
C30   C     C_R   0.359938 0.162046 0.405709 -0.281928
C31   C     C_R   0.859939 0.337951 0.405709 -0.281910
C32   C     C_R   0.859970 0.662088 0.405730 -0.281966
C33   C     C_R   0.642815 0.999987 0.134344 0.194988
C34   C     C_R   0.142815 0.499998 0.134343 0.194968
C35   C     C_R   0.379329 0.000001 0.762937 0.765635
C36   C     C_R   0.879329 0.500001 0.762937 0.765641
C37   C     C_R   0.354331 0.000001 0.859616 -0.273297
C38   C     C_R   0.854331 0.500003 0.859616 -0.273319
C39   C     C_R   0.590870 0.899631 0.557844 0.873784
C40   C     C_R   0.590871 0.100366 0.557845 0.873775
C41   C     C_R   0.090872 0.399634 0.557845 0.873768
C42   C     C_R   0.090871 0.600367 0.557845 0.873735
C43   C     C_R   0.400355 0.000000 0.955254 -0.218723
C44   C     C_R   0.900355 0.500003 0.955254 -0.218678
C45   C     C_R   0.472068 0.999999 0.954173 0.020793
C46   C     C_R   0.972068 0.500002 0.954173 0.020803
C47   C     C_R   0.494763 0.999999 0.853656 0.146298
C48   C     C_R   0.994763 0.500001 0.853656 0.146299
C49   C     C_R   0.521858 0.999998 0.048217 -0.025066
C50   C     C_R   0.021858 0.500001 0.048217 -0.025067
C51   C     C_R   0.593336 0.999992 0.040590 0.113419
C52   C     C_R   0.093335 0.500000 0.040590 0.113407
C53   C     C_R   0.613638 0.999992 0.939794 -0.211485
C54   C     C_R   0.113638 0.500000 0.939794 -0.211480
C55   C     C_R   0.564956 0.999997 0.848156 -0.168330
C56   C     C_R   0.064956 0.500000 0.848156 -0.168279
C57   C     C_R   0.503384 0.000003 0.150442 0.004638
C58   C     C_R   0.003384 0.500001 0.150443 0.004710
C59   C     C_R   0.620386 0.999991 0.232853 -0.038812
C60   C     C_R   0.120386 0.499999 0.232853 -0.038784
C61   C     C_R   0.752199 0.172026 0.721859 -0.135665
C62   C     C_R   0.752151 0.827888 0.721919 -0.135632
C63   C     C_R   0.252200 0.672024 0.721856 -0.135680
C64   C     C_R   0.252198 0.327974 0.721860 -0.135673
C65   C     C_R   0.648348 0.150281 0.596260 -0.021211
C66   C     C_R   0.648340 0.849707 0.596255 -0.021247
C67   C     C_R   0.148347 0.650282 0.596260 -0.021197
C68   C     C_R   0.148348 0.349720 0.596259 -0.021206
C69   C     C_R   0.325153 0.841575 0.299059 0.597180
C70   C     C_R   0.325155 0.158427 0.299060 0.597183
C71   C     C_R   0.825158 0.341567 0.299060 0.597144
C72   C     C_R   0.825230 0.658547 0.299048 0.597219
C73   C     C_R   0.265528 0.799114 0.268811 0.273151
C74   C     C_R   0.265532 0.200890 0.268810 0.273156
C75   C     C_R   0.765535 0.299102 0.268811 0.273157
C76   C     C_R   0.765636 0.701059 0.268783 0.273198
C77   C     C_R   0.237197 0.758412 0.346004 -0.300896
C78   C     C_R   0.237202 0.241593 0.346004 -0.300894
C79   C     C_R   0.737204 0.258402 0.346006 -0.300894
C80   C     C_R   0.737285 0.741727 0.345988 -0.300899
C81   C     C_R   0.270720 0.755433 0.454241 0.015911
C82   C     C_R   0.270723 0.244570 0.454242 0.015910
C83   C     C_R   0.770724 0.255429 0.454244 0.015908
C84   C     C_R   0.770760 0.744621 0.454257 0.015877
C85   C     C_R   0.337415 0.786619 0.479664 -0.042972
C86   C     C_R   0.337416 0.213381 0.479667 -0.042972
C87   C     C_R   0.837417 0.286618 0.479667 -0.042968
C88   C     C_R   0.837438 0.713397 0.479712 -0.042965
H1    H     H_    0.667291 0.106178 0.759050 0.151184
H2    H     H_    0.667231 0.893723 0.759096 0.151251
H3    H     H_    0.167292 0.606177 0.759048 0.151179
H4    H     H_    0.167289 0.393820 0.759052 0.151179
H5    H     H_    0.667192 0.999989 0.930358 0.188060
H6    H     H_    0.167191 0.500000 0.930357 0.188048
H7    H     H_    0.451138 0.000009 0.164953 0.206454
H8    H     H_    0.951138 0.500002 0.164953 0.206432
H9    H     H_    0.378019 0.999999 0.027842 0.235583
H10   H     H_    0.878019 0.500004 0.027842 0.235550
H11   H     H_    0.299541 0.000002 0.860563 0.216197
H12   H     H_    0.799541 0.500004 0.860563 0.216179
H13   H     H_    0.583930 0.999999 0.773797 0.191707
H14   H     H_    0.083930 0.500001 0.773797 0.191699
H15   H     H_    0.381847 0.715047 0.733830 0.186406
H16   H     H_    0.381845 0.284949 0.733839 0.186409
H17   H     H_    0.881846 0.215053 0.733837 0.186414
H18   H     H_    0.881798 0.784837 0.733971 0.186416
H19   H     H_    0.782275 0.162560 0.800593 0.168727
H20   H     H_    0.782200 0.837309 0.800686 0.168776
H21   H     H_    0.282277 0.662556 0.800589 0.168719
H22   H     H_    0.282273 0.337439 0.800595 0.168722
H23   H     H_    0.639127 0.206005 0.445772 0.161742
H24   H     H_    0.639167 0.794048 0.445718 0.161767
H25   H     H_    0.139124 0.706007 0.445773 0.161730
H26   H     H_    0.139127 0.293996 0.445769 0.161743
H27   H     H_    0.690099 0.228058 0.317967 0.190293
H28   H     H_    0.690205 0.772116 0.317936 0.190297
H29   H     H_    0.190091 0.728071 0.317965 0.190296
H30   H     H_    0.190098 0.271937 0.317963 0.190293
H31   H     H_    0.656944 0.999987 0.306684 0.171242
H32   H     H_    0.156944 0.499997 0.306684 0.171249
N1    N     N_R   0.552340 1.000000 0.237260 -0.138222
N2    N     N_R   0.052340 0.500000 0.237260 -0.138227
N3    N     N_R   0.448170 1.000000 0.762060 -0.181073
N4    N     N_R   0.948170 0.500000 0.762060 -0.181065
O1    O     O_R   0.448200 0.076800 0.373930 -0.556602
O2    O     O_R   0.448200 0.923200 0.373930 -0.556596
O3    O     O_R   0.948200 0.576800 0.373930 -0.556577
O4    O     O_R   0.948200 0.423200 0.373930 -0.556613
O5    O     O_R   0.414750 0.076790 0.542400 -0.552974
O6    O     O_R   0.414750 0.923210 0.542400 -0.552978
O7    O     O_R   0.914750 0.576790 0.542400 -0.552966
O8    O     O_R   0.914750 0.423210 0.542400 -0.552970
O9    O     O_R   0.585240 0.923200 0.457600 -0.626476
O10   O     O_R   0.585240 0.076800 0.457600 -0.626459
O11   O     O_R   0.085240 0.423200 0.457600 -0.626462
O12   O     O_R   0.085240 0.576800 0.457600 -0.626468
O13   O     O_R   0.551780 0.923190 0.626070 -0.618581
O14   O     O_R   0.551780 0.076810 0.626070 -0.618558
O15   O     O_R   0.051780 0.423190 0.626070 -0.618563
O16   O     O_R   0.051780 0.576810 0.626070 -0.618540
Zn1   Zn    Zn3+2 0.522330 1.000000 0.387520 1.015492
Zn2   Zn    Zn3+2 0.022330 0.500000 0.387520 1.015496
Zn3   Zn    Zn3+2 0.477660 1.000000 0.612480 1.030317
Zn4   Zn    Zn3+2 0.977660 0.500000 0.612480 1.030326
Br1   Br    Br    0.740240 0.999972 0.134003 -0.470320
Br2   Br    Br    0.240240 0.499996 0.134003 -0.470383
F1    F     F_    0.334635 0.000002 0.669358 -0.632846
F2    F     F_    0.834634 0.500001 0.669358 -0.632848
F3    F     F_    0.347043 0.888881 0.225523 -0.620873
F4    F     F_    0.347045 0.111120 0.225522 -0.620876
F5    F     F_    0.847048 0.388871 0.225521 -0.620934
F6    F     F_    0.847135 0.611279 0.225480 -0.620896
Br3   Br    Br    0.219040 0.801353 0.123342 -0.359155
Br4   Br    Br    0.219045 0.198652 0.123339 -0.359173
Br5   Br    Br    0.719052 0.301333 0.123340 -0.359240
Br6   Br    Br    0.719220 0.698949 0.123264 -0.359276
Br7   Br    Br    0.477239 0.763087 0.597076 -0.488061
Br8   Br    Br    0.477239 0.236910 0.597088 -0.488067
Br9   Br    Br    0.977240 0.263091 0.597088 -0.488052
Br10  Br    Br    0.977236 0.736869 0.597250 -0.488009

loop_
_geom_bond_atom_site_label_1
_geom_bond_atom_site_label_2
_ccdc_geom_bond_type
C59   N1    A    
C83   C87   A    
C39   O13   A    
C24   H26   S    
C79   H27   S    
C34   Br2   S    
C14   C18   A    
C70   F4    S    
C37   H11   S    
C72   C76   A    
C4    O8    A    
C15   C19   A    
C18   C86   A    
C75   C79   A    
C2    C29   S    
C9    C61   A    
C60   N2    A    
C28   C68   A    
C1    O1    A    
C1    O5    A    
O14   Zn3   S    
C12   C64   A    
C3    O3    A    
C62   H20   S    
C6    C22   A    
C49   C57   A    
C74   Br4   S    
C42   O12   A    
C45   C47   A    
C23   C67   A    
C58   H8    S    
C22   C66   A    
O12   Zn2   S    
C6    C84   A    
C30   C70   A    
C44   H10   S    
C36   F2    S    
O11   Zn2   S    
C71   F5    S    
C80   H28   S    
C44   C46   A    
C49   C51   A    
C40   O14   A    
C70   C74   A    
C50   C52   A    
C76   C80   A    
C27   H3    S    
C77   C81   A    
C8    C12   A    
C30   C86   A    
C17   Br7   S    
C29   C85   A    
C80   C84   A    
C21   C65   A    
C31   C71   A    
O13   Zn3   S    
O8    Zn4   S    
C33   C59   A    
C71   C75   A    
C34   C60   A    
C10   C62   A    
C21   H23   S    
C52   C54   A    
C38   C44   A    
C41   C68   S    
C29   C69   A    
C53   C55   A    
C46   C48   A    
C58   N2    A    
C31   C87   A    
C4    O4    A    
C53   H5    S    
C26   C66   A    
O16   Zn4   S    
C25   C65   A    
C69   F3    S    
C38   H12   S    
O1    Zn1   S    
C2    O6    A    
C25   C61   A    
C25   H1    S    
C72   F6    S    
C82   C86   A    
C42   O16   A    
C76   Br6   S    
C14   H16   S    
C3    O7    A    
C51   C53   A    
O3    Zn2   S    
C84   C88   A    
C63   H21   S    
C7    C11   A    
C5    C83   A    
C5    C9    A    
C18   Br8   S    
C54   H6    S    
N1    Zn1   S    
C23   H25   S    
O15   Zn4   S    
C78   C82   A    
C64   H22   S    
C45   C49   A    
C26   H2    S    
C16   C20   A    
C50   C58   A    
C28   H4    S    
C35   F1    S    
C69   C73   A    
O6    Zn3   S    
C43   C45   A    
C27   C63   A    
C2    O2    A    
C7    C81   A    
C12   C14   A    
C22   H24   S    
C40   C65   S    
C20   Br10  S    
C42   C67   S    
C39   C66   S    
C17   C85   A    
C37   C43   A    
C13   H15   S    
N2    Zn2   S    
C36   N4    A    
N3    Zn3   S    
C28   C64   A    
C41   O11   A    
C35   C37   A    
C47   C55   A    
C39   O9    A    
C57   H7    S    
C48   C56   A    
C46   C50   A    
C59   H31   S    
C78   H30   S    
C34   C52   A    
C43   H9    S    
C48   N4    A    
C54   C56   A    
C47   N3    A    
O5    Zn3   S    
C16   H18   S    
C33   C51   A    
C55   H13   S    
O2    Zn1   S    
C77   H29   S    
C13   C17   A    
C19   Br9   S    
C15   H17   S    
C35   N3    A    
C9    C15   A    
C19   C87   A    
C56   H14   S    
C10   C16   A    
O10   Zn1   S    
C79   C83   A    
C11   C13   A    
C40   O10   A    
C7    C23   A    
C20   C88   A    
C36   C38   A    
C1    C30   S    
C8    C24   A    
C60   H32   S    
C26   C62   A    
C3    C32   S    
C61   H19   S    
C41   O15   A    
C4    C31   S    
C27   C67   A    
C6    C10   A    
C24   C68   A    
C57   N1    A    
C75   Br5   S    
C8    C82   A    
C5    C21   A    
C74   C78   A    
C73   Br3   S    
C73   C77   A    
N4    Zn4   S    
O9    Zn1   S    
C11   C63   A    
O4    Zn2   S    
C81   C85   A    
O7    Zn4   S    
C33   Br1   S    
C32   C72   A    
C32   C88   A    
