data_mof_unit_29951.cif
_audit_creation_date              2013-03-05T16:07:04-0500
_audit_creation_method            fapswitch 2.2
_symmetry_space_group_name_H-M    P1
_symmetry_Int_Tables_number       1
_space_group_crystal_system       triclinic
_cell_length_a                    16.727032
_cell_length_b                    7.247102
_cell_length_c                    17.181539
_cell_angle_alpha                 90.030234
_cell_angle_beta                  100.581518
_cell_angle_gamma                 89.961488
_cell_volume                      2047.37000708

loop_
_atom_site_label
_atom_site_type_symbol
_atom_site_description
_atom_site_fract_x
_atom_site_fract_y
_atom_site_fract_z
_atom_type_partial_charge
O1    O     O_R   0.413450 0.494370 0.415710 -0.596089
O2    O     O_R   0.586550 0.994370 0.584290 -0.603519
O3    O     O_R   0.578420 0.819350 0.429360 -0.586304
O4    O     O_R   0.421580 0.319350 0.570640 -0.572395
C1    C     C_R   0.605872 0.658056 0.414566 1.094822
C2    C     C_R   0.394714 0.158130 0.586092 1.041702
O5    O     O_R   0.413570 0.823780 0.406240 -0.567021
O6    O     O_R   0.586430 0.323780 0.593760 -0.566957
O7    O     O_R   0.420530 0.998740 0.561000 -0.546118
O8    O     O_R   0.579470 0.498740 0.439000 -0.520199
C3    C     C_R   0.385314 0.654824 0.384317 0.975417
C4    C     C_R   0.614673 0.154768 0.615705 0.962164
O9    O     O_3   0.502480 0.662320 0.550800 -0.269482
O10   O     O_3   0.497520 0.162320 0.449200 -0.256172
V1    V     V_3+5 0.499540 0.935370 0.490580 1.322571
V2    V     V_3+5 0.500460 0.435370 0.509420 1.333463
C5    C     C_R   0.742809 0.999238 0.690241 0.089454
C6    C     C_R   0.257118 0.499751 0.309918 0.086421
C7    C     C_R   0.685686 0.144823 0.682209 -0.206641
C8    C     C_R   0.314244 0.645074 0.317884 -0.208208
C9    C     C_R   0.701148 0.289029 0.738210 -0.091122
C10   C     C_R   0.298700 0.789183 0.261895 -0.092335
H1    H     H_    0.661140 0.407532 0.733684 0.146428
H2    H     H_    0.338669 0.907639 0.266393 0.146363
C11   C     C_R   0.765893 0.277742 0.803468 0.011461
C12   C     C_R   0.233923 0.777796 0.196665 0.010066
H3    H     H_    0.773647 0.387390 0.846446 0.221858
H4    H     H_    0.226094 0.887334 0.153702 0.222698
C13   C     C_R   0.818266 0.123939 0.814748 -0.208434
C14   C     C_R   0.181634 0.623975 0.185366 -0.208647
C15   C     C_R   0.806190 0.989598 0.755665 0.005636
C16   C     C_R   0.193692 0.489956 0.244552 0.008611
C17   C     C_3   0.801553 0.784650 0.762212 0.562948
C18   C     C_3   0.198342 0.284892 0.238313 0.561762
C19   C     C_3   0.732866 0.792424 0.688945 -0.102837
C20   C     C_3   0.267010 0.292985 0.311588 -0.104036
H5    H     H_    0.672249 0.747871 0.699958 0.101148
H6    H     H_    0.327601 0.247731 0.300692 0.103763
C21   C     C_R   0.332557 0.167245 0.639282 -0.480113
C22   C     C_R   0.669832 0.666486 0.363356 -0.422606
C23   C     C_R   0.168752 0.110461 0.864390 -0.474341
C24   C     C_R   0.831107 0.610802 0.135976 -0.478311
C25   C     C_R   0.281189 0.943079 0.822720 0.322628
C26   C     C_R   0.719600 0.442237 0.179123 0.296860
C27   C     C_R   0.229643 0.973218 0.877656 0.244872
C28   C     C_R   0.770657 0.472390 0.123588 0.269950
C29   C     C_R   0.163235 0.225665 0.797880 0.380552
C30   C     C_R   0.836782 0.726549 0.202446 0.379864
C31   C     C_R   0.219737 0.207274 0.745098 -0.173992
C32   C     C_R   0.780879 0.708017 0.255905 -0.151518
C33   C     C_R   0.277580 0.060227 0.755687 -0.216987
C34   C     C_R   0.722643 0.561792 0.245374 -0.257953
C35   C     C_R   0.333617 0.040720 0.702400 0.551469
C36   C     C_R   0.667520 0.542888 0.299828 0.529277
C37   C     C_R   0.277793 0.319754 0.632785 0.201943
C38   C     C_R   0.724819 0.818166 0.370145 0.169669
C39   C     C_R   0.221938 0.338700 0.684717 0.548574
C40   C     C_R   0.780163 0.837496 0.317567 0.555674
O11   O     O_R   0.920630 0.775410 0.061150 -0.562087
O12   O     O_R   0.079370 0.275410 0.938850 -0.562985
O13   O     O_R   0.086500 0.441450 0.093690 -0.564470
O14   O     O_R   0.913500 0.941450 0.906310 -0.564653
C41   C     C_R   0.114360 0.610408 0.115782 0.999670
C42   C     C_R   0.885597 0.110420 0.884267 0.999238
O15   O     O_R   0.921670 0.445960 0.070740 -0.562916
O16   O     O_R   0.078330 0.945960 0.929260 -0.563647
O17   O     O_R   0.913380 0.271130 0.915780 -0.578228
O18   O     O_R   0.086620 0.771130 0.084220 -0.577990
C43   C     C_R   0.895212 0.613062 0.085414 1.052569
C44   C     C_R   0.104634 0.112973 0.914593 1.055117
O19   O     O_3   0.997500 0.603030 0.949220 -0.250433
O20   O     O_3   0.002500 0.103030 0.050780 -0.250237
V3    V     V_3+5 0.000470 0.329940 0.009420 1.380590
V4    V     V_3+5 0.999530 0.829940 0.990580 1.380546
O21   O     O_3   0.171170 0.490943 0.679541 -0.631322
H7    H     H_    0.195621 0.597192 0.656470 0.372915
O22   O     O_3   0.831879 0.988006 0.323393 -0.630730
H8    H     H_    0.808912 0.093659 0.348329 0.376913
N1    N     N_R   0.240709 0.865197 0.948872 0.258304
O23   O     O_R   0.240354 0.685785 0.945779 -0.326929
O24   O     O_R   0.252446 0.947256 0.017308 -0.402720
N2    N     N_R   0.760517 0.360947 0.053341 0.260361
O25   O     O_R   0.763603 0.181797 0.058075 -0.322162
O26   O     O_R   0.747786 0.439535 0.984175 -0.402907
N3    N     N_R   0.096173 0.351650 0.781323 0.272087
O27   O     O_R   0.100151 0.511744 0.816144 -0.273964
O28   O     O_R   0.031827 0.307576 0.729921 -0.269417
N4    N     N_R   0.903784 0.852559 0.218511 0.272364
O29   O     O_R   0.969676 0.805699 0.267213 -0.273611
O30   O     O_R   0.899034 0.013586 0.184512 -0.272136
O31   O     O_3   0.776023 0.725634 0.831807 -0.759166
H9    H     H_    0.725692 0.793592 0.837080 0.317240
O32   O     O_3   0.223869 0.225086 0.168799 -0.758277
H10   H     H_    0.274229 0.292687 0.163465 0.316584
N5    N     N_R   0.876757 0.691717 0.751326 0.296174
O33   O     O_R   0.877063 0.514687 0.739353 -0.295592
O34   O     O_R   0.944424 0.783233 0.755804 -0.301111
N6    N     N_R   0.123206 0.192253 0.249378 0.295910
O35   O     O_R   0.123073 0.015426 0.261833 -0.293987
O36   O     O_R   0.055435 0.283734 0.244514 -0.300840
N7    N     N_R   0.754156 0.708077 0.617955 0.277749
O37   O     O_R   0.706697 0.583586 0.579673 -0.373809
O38   O     O_R   0.822826 0.744562 0.595896 -0.241054
N8    N     N_R   0.245569 0.209883 0.382706 0.278654
O39   O     O_R   0.292455 0.084164 0.420856 -0.366543
O40   O     O_R   0.177292 0.249083 0.405087 -0.240803
O41   O     O_3   0.391503 0.902759 0.715251 -0.656721
H11   H     H_    0.443554 0.951784 0.704322 0.301018
O42   O     O_3   0.605834 0.414992 0.288218 -0.674554
H12   H     H_    0.568705 0.453002 0.238994 0.322954
N9    N     N_R   0.279634 0.462034 0.574842 0.239088
O43   O     O_R   0.329832 0.599148 0.592911 -0.336170
O44   O     O_R   0.215706 0.488332 0.520375 -0.290162
N10   N     N_R   0.722810 0.960296 0.428177 0.237609
O45   O     O_R   0.672409 0.097182 0.410160 -0.326642
O46   O     O_R   0.786826 0.987181 0.482478 -0.291037
N11   N     N_R   0.339907 0.797485 0.838667 0.293673
O47   O     O_R   0.402804 0.815938 0.895198 -0.297998
O48   O     O_R   0.325038 0.638405 0.803929 -0.325114
N12   N     N_R   0.664189 0.289678 0.166260 0.269100
O49   O     O_R   0.606050 0.287251 0.104494 -0.317134
O50   O     O_R   0.677772 0.143750 0.210758 -0.333922

loop_
_geom_bond_atom_site_label_1
_geom_bond_atom_site_label_2
_geom_bond_distance
_ccdc_geom_bond_type
O32   H10   0.993450 S    
N5    O33   1.299389 A    
O1    C3    1.330893 A    
C18   O32   1.408254 S    
O2    C4    1.330668 A    
C2    O7    1.331843 A    
N8    O40   1.301388 A    
N10   O45   1.301548 A    
C31   C39   1.414195 A    
C29   C31   1.431055 A    
O16   C44   1.328095 A    
O22   H8    0.988500 S    
O5    C3    1.341427 A    
N7    O37   1.298207 A    
C29   N3    1.433374 S    
C19   H5    1.113141 S    
C30   C32   1.432427 A    
N11   O48   1.300900 A    
C17   C19   1.541657 S    
N6    O35   1.299410 A    
C26   N12   1.433938 S    
O18   V4    2.007832 S    
O16   V4    2.016627 S    
O12   V3    1.988618 S    
O15   V3    2.015426 S    
C24   C28   1.412809 A    
O13   C41   1.340090 A    
N2    O26   1.299828 A    
O14   C42   1.339994 A    
C40   O22   1.384717 S    
C18   N6    1.468148 S    
C28   N2    1.435890 S    
C21   C37   1.426323 A    
N9    O43   1.301491 A    
C26   C28   1.409715 A    
C22   C38   1.424690 A    
C32   C34   1.428658 A    
O41   H11   0.989994 S    
C30   N4    1.433066 S    
O17   V3    2.007887 S    
C18   C20   1.541649 S    
C26   C34   1.423638 A    
O5    V1    2.014144 S    
C13   C42   1.486820 S    
N7    O38   1.301301 A    
C14   C41   1.487029 S    
C17   N5    1.468367 S    
N8    O39   1.298344 A    
C34   C36   1.435773 A    
N3    O28   1.300584 A    
C11   C13   1.408533 A    
C3    C8    1.490889 S    
C32   C40   1.416569 A    
C42   O17   1.331637 A    
C27   N1    1.435951 S    
O31   H9    0.993450 S    
N1    O24   1.299780 A    
C31   C33   1.427955 A    
N3    O27   1.301232 A    
C24   C43   1.498974 S    
C36   O42   1.374428 S    
C33   C35   1.432371 A    
C16   C18   1.492931 S    
O4    V2    2.016527 S    
O21   H7    0.988727 S    
C35   O41   1.380690 S    
O12   C44   1.342229 A    
O6    C4    1.341605 A    
C15   C17   1.492734 S    
C23   C29   1.404835 A    
N9    O44   1.299215 A    
O1    V2    2.008154 S    
C24   C30   1.405785 A    
O2    V1    2.008210 S    
C25   C27   1.407290 A    
O11   V4    1.989227 S    
O11   C43   1.343550 A    
O4    C2    1.297071 A    
C8    C10   1.411584 A    
C12   C14   1.408575 A    
C22   C36   1.406664 A    
C37   C39   1.412007 A    
C5    C15   1.398110 A    
C10   H2    1.082415 S    
C1    C22   1.506100 S    
C6    C16   1.397982 A    
O3    C1    1.297562 A    
O3    V1    2.015325 S    
N12   O49   1.301244 A    
N12   O50   1.300506 A    
C9    C11   1.410929 A    
C41   O18   1.331761 A    
C38   N10   1.437857 S    
C37   N9    1.437928 S    
C2    C21   1.506433 S    
N4    O30   1.301122 A    
O20   V3    1.789588 S    
C19   N7    1.465132 S    
O19   V4    1.788940 S    
N10   O46   1.299303 A    
N5    O34   1.302269 A    
C11   H3    1.076051 S    
C12   H4    1.075729 S    
C20   N8    1.465066 S    
O13   V3    2.013790 S    
C39   O21   1.384717 S    
C9    H1    1.082416 S    
O7    V1    2.001831 S    
C1    O8    1.331776 A    
C13   C15   1.393948 A    
O8    V2    2.002534 S    
N11   O47   1.301123 A    
C14   C16   1.394115 A    
C25   C33   1.423488 A    
C21   C35   1.418128 A    
O15   C43   1.328874 A    
C4    C7    1.491055 S    
C20   H6    1.113107 S    
C5    C7    1.412650 A    
C38   C40   1.414267 A    
C6    C8    1.412140 A    
N6    O36   1.302244 A    
N1    O23   1.301250 A    
N4    O29   1.300541 A    
O6    V2    2.013984 S    
N2    O25   1.301304 A    
C10   C12   1.411008 A    
O9    V2    1.789351 S    
C25   N11   1.432873 S    
C23   C27   1.411451 A    
O10   V1    1.789999 S    
O14   V4    2.013626 S    
C5    C19   1.507819 S    
O42   H12   0.991956 S    
C6    C20   1.507160 S    
C23   C44   1.494775 S    
C7    C9    1.411659 A    
C17   O31   1.408346 S    
