data_mof_unit_6539.cif
_audit_creation_date              2013-03-05T16:21:59-0500
_audit_creation_method            fapswitch 2.2
_symmetry_space_group_name_H-M    P1
_symmetry_Int_Tables_number       1
_space_group_crystal_system       triclinic
_cell_length_a                    15.119216
_cell_length_b                    13.84262
_cell_length_c                    10.828172
_cell_angle_alpha                 90.155725
_cell_angle_beta                  89.495964
_cell_angle_gamma                 90.072116
_cell_volume                      2266.12558563

loop_
_atom_site_label
_atom_site_type_symbol
_atom_site_description
_atom_site_fract_x
_atom_site_fract_y
_atom_site_fract_z
_atom_type_partial_charge
O1    O     O_R   0.371460 0.581430 0.500010 -0.564627
O2    O     O_R   0.628540 0.418570 0.499990 -0.545115
O3    O     O_R   0.628540 0.581430 0.499990 -0.573558
O4    O     O_R   0.371460 0.418570 0.500010 -0.541452
C1    C     C_R   0.329690 0.499858 0.499977 0.851809
C2    C     C_R   0.670149 0.500022 0.498894 0.870200
O5    O     O_R   0.499990 0.581440 0.319660 -0.570688
O6    O     O_R   0.500010 0.418560 0.680340 -0.596958
O7    O     O_R   0.500010 0.581440 0.680340 -0.580507
O8    O     O_R   0.499990 0.418560 0.319660 -0.601050
C3    C     C_R   0.512490 0.500242 0.262775 0.799413
C4    C     C_R   0.490258 0.499987 0.738314 0.782718
Cu1   Cu    Cu3+1 0.500000 0.596430 0.500000 0.960054
Cu2   Cu    Cu3+1 0.500000 0.403570 0.500000 0.967759
C5    C     C_R   0.539097 0.679904 0.115764 -0.304991
C6    C     C_R   0.466521 0.320865 0.891351 -0.311772
C7    C     C_R   0.450521 0.675712 0.892842 -0.356103
C8    C     C_R   0.558695 0.327126 0.111789 -0.314280
C9    C     C_R   0.508744 0.766264 0.065395 0.474690
C10   C     C_R   0.489955 0.234615 0.949162 0.421316
C11   C     C_R   0.460643 0.764523 0.956124 0.472781
C12   C     C_R   0.544525 0.238467 0.053600 0.442813
C13   C     C_R   0.484617 0.588539 0.941180 0.018720
C14   C     C_R   0.525551 0.413574 0.061098 -0.006131
C15   C     C_R   0.517788 0.589790 0.062039 0.010701
C16   C     C_R   0.491800 0.411558 0.940566 -0.000782
C17   C     C_R   0.481946 0.499742 0.875159 -0.134257
C18   C     C_R   0.526423 0.501589 0.127005 -0.121405
H1    H     H_    0.578344 0.684645 0.198508 0.206233
H2    H     H_    0.424935 0.315657 0.810903 0.196971
H3    H     H_    0.410681 0.673800 0.810853 0.182403
H4    H     H_    0.598537 0.327968 0.194357 0.194021
C19   C     C_R   0.092379 0.575422 0.547609 -0.247171
C20   C     C_R   0.904800 0.426047 0.560150 -0.240577
C21   C     C_R   0.906631 0.568960 0.431290 -0.266068
C22   C     C_R   0.094733 0.419573 0.445428 -0.240881
H5    H     H_    0.055551 0.635349 0.586998 0.167477
H6    H     H_    0.939924 0.370171 0.609553 0.169872
H7    H     H_    0.944958 0.620590 0.378349 0.157346
H8    H     H_    0.059816 0.358912 0.405191 0.172486
C23   C     C_R   0.184494 0.575641 0.553098 0.440028
C24   C     C_R   0.812753 0.427978 0.564056 0.426520
C25   C     C_R   0.813634 0.572072 0.432276 0.429362
C26   C     C_R   0.186998 0.421200 0.442824 0.432350
C27   C     C_R   0.232693 0.499108 0.498384 -0.256035
C28   C     C_R   0.766901 0.499979 0.498163 -0.237658
C29   C     C_R   0.047730 0.497069 0.496021 -0.002621
C30   C     C_R   0.951419 0.496904 0.495361 0.012870
C31   C     C_R   0.539995 0.107669 0.594965 0.326749
C32   C     C_R   0.420396 0.892923 0.497811 0.284203
C33   C     C_R   0.464377 0.109098 0.396816 0.322656
C34   C     C_R   0.581225 0.891901 0.487851 0.286779
C35   C     C_R   0.539244 0.209181 0.592978 0.077577
C36   C     C_R   0.422359 0.791348 0.497880 0.030783
C37   C     C_R   0.462591 0.210370 0.404039 0.076171
C38   C     C_R   0.578134 0.790620 0.495047 0.015670
H9    H     H_    0.569958 0.248699 0.667509 0.176923
H10   H     H_    0.360209 0.753184 0.500055 0.212620
H11   H     H_    0.432154 0.250751 0.330432 0.169140
H12   H     H_    0.639790 0.751855 0.494500 0.189717
N1    N     N_R   0.500000 0.258690 0.500000 -0.261280
N2    N     N_R   0.500000 0.741310 0.500000 -0.247938
C39   C     C_R   0.502122 0.055029 0.494915 -0.167798
C40   C     C_R   0.501228 0.945747 0.493174 -0.123136
O9    O     O_3   0.581498 0.155988 0.102261 -0.574227
C41   C     C_3   0.661400 0.137951 0.038107 -0.306640
H13   H     H_    0.706789 0.201413 0.041063 0.150348
H14   H     H_    0.648563 0.116531 0.940771 0.221064
H15   H     H_    0.696060 0.077267 0.083319 0.173633
O10   O     O_3   0.420481 0.850029 0.919870 -0.567486
C42   C     C_3   0.424312 0.862369 0.790967 -0.302745
H16   H     H_    0.368583 0.823745 0.746719 0.186636
H17   H     H_    0.489061 0.839405 0.750762 0.146174
H18   H     H_    0.416258 0.940160 0.770055 0.210994
O11   O     O_3   0.463855 0.148119 0.896321 -0.583032
C43   C     C_3   0.411275 0.095327 0.981012 -0.122150
H19   H     H_    0.453461 0.046560 0.036348 0.258723
H20   H     H_    0.364637 0.049590 0.928319 0.183195
H21   H     H_    0.370142 0.141951 0.043053 0.132167
O12   O     O_3   0.515319 0.851330 0.131790 -0.562864
C44   C     C_3   0.602494 0.886528 0.121803 -0.308163
H22   H     H_    0.618639 0.906325 0.024582 0.176735
H23   H     H_    0.651687 0.834088 0.157482 0.145355
H24   H     H_    0.607624 0.952627 0.179366 0.223008
O13   O     O_3   0.226963 0.652055 0.609838 -0.565654
C45   C     C_3   0.225150 0.636505 0.738518 -0.318652
H25   H     H_    0.254006 0.700497 0.784867 0.194425
H26   H     H_    0.265597 0.572375 0.763268 0.142304
H27   H     H_    0.156441 0.628408 0.774903 0.161744
O14   O     O_3   0.767969 0.356366 0.627940 -0.552689
C46   C     C_3   0.753184 0.388403 0.750125 -0.291209
H28   H     H_    0.716204 0.331503 0.800953 0.186465
H29   H     H_    0.712103 0.455089 0.752788 0.144379
H30   H     H_    0.816731 0.400605 0.798942 0.152861
O15   O     O_3   0.766176 0.636705 0.359870 -0.584967
C47   C     C_3   0.804306 0.729883 0.358824 -0.309951
H31   H     H_    0.827082 0.752773 0.452018 0.175081
H32   H     H_    0.753317 0.782291 0.329428 0.201067
H33   H     H_    0.858936 0.733774 0.289812 0.165320
O16   O     O_3   0.231866 0.344294 0.390028 -0.550014
C48   C     C_3   0.245742 0.364303 0.263696 -0.280719
H34   H     H_    0.282147 0.302912 0.221247 0.186785
H35   H     H_    0.286958 0.430262 0.250528 0.145335
H36   H     H_    0.181877 0.371723 0.214240 0.152042
O17   O     O_3   0.578503 0.064424 0.695931 -0.701625
H37   H     H_    0.567030 0.994252 0.694784 0.339075
O18   O     O_3   0.338239 0.936237 0.505374 -0.703389
H38   H     H_    0.344953 0.005375 0.526266 0.347815
O19   O     O_3   0.428544 0.067130 0.292747 -0.715438
H39   H     H_    0.445497 0.998288 0.288288 0.375433
O20   O     O_3   0.663681 0.934207 0.476324 -0.741102
H40   H     H_    0.657198 0.002672 0.452302 0.349496

loop_
_geom_bond_atom_site_label_1
_geom_bond_atom_site_label_2
_geom_bond_distance
_ccdc_geom_bond_type
C41   H14   1.112745 S    
C31   C35   1.405480 A    
C48   H34   1.109511 S    
C31   C39   1.427616 A    
C37   H11   1.081210 S    
C32   C40   1.423953 A    
O15   C47   1.412173 S    
C20   C24   1.392228 A    
C43   H21   1.116210 S    
O3    C2    1.291268 A    
C44   H22   1.113455 S    
O13   C45   1.410498 S    
C15   C18   1.417488 A    
C5    C9    1.395162 A    
C16   C17   1.421601 A    
C7    C13   1.416186 A    
O1    C1    1.293081 A    
C9    C11   1.394417 A    
C14   C16   1.405717 A    
C45   H26   1.113273 S    
C5    C15   1.413024 A    
C41   H15   1.108060 S    
C6    H2    1.080990 S    
C47   H33   1.110313 S    
C22   C29   1.395635 A    
C24   C28   1.413279 A    
O7    Cu1   1.964308 S    
C35   N1    1.360376 A    
Cu1   N2    2.005517 S    
O20   H40   0.988682 S    
C47   H32   1.108555 S    
C25   O15   1.394757 S    
O18   H38   0.988137 S    
O10   C42   1.407335 S    
C13   C17   1.420979 A    
C21   C25   1.406688 A    
C33   C37   1.404116 A    
O3    Cu1   1.954744 S    
C6    C10   1.397094 A    
C41   H13   1.114624 S    
C33   O19   1.381035 S    
C8    C12   1.395208 A    
Cu1   Cu2   2.669689 S    
O2    C2    1.290484 A    
C21   C30   1.395884 A    
C44   H23   1.112350 S    
C5    H1    1.080787 S    
C6    C16   1.415943 A    
C4    C17   1.486012 S    
C22   H8    1.083781 S    
C33   C39   1.424867 A    
C43   H19   1.109754 S    
C34   C40   1.422168 A    
C46   H28   1.109834 S    
C42   H17   1.114195 S    
C35   H9    1.081545 S    
C45   H25   1.107863 S    
O12   C44   1.407981 S    
C31   O17   1.381386 S    
C36   N2    1.364148 A    
C34   O20   1.381499 S    
Cu2   N1    2.005517 S    
C1    C27   1.466788 S    
C19   H5    1.084048 S    
C38   H12   1.076149 S    
C10   O11   1.384115 S    
C24   O14   1.383278 S    
O1    Cu1   1.954224 S    
C21   H7    1.081919 S    
O11   C43   1.412921 S    
C12   O9    1.379762 S    
C46   H29   1.113436 S    
O5    C3    1.293524 A    
C29   C30   1.456220 S    
O6    C4    1.296628 A    
C47   H31   1.114185 S    
C32   C36   1.406417 A    
C10   C12   1.406560 A    
C48   H36   1.113249 S    
O8    C3    1.301843 A    
O8    Cu2   1.964309 S    
C32   O18   1.381645 S    
C19   C29   1.394864 A    
C8    C14   1.412198 A    
C22   C26   1.395172 A    
C20   C30   1.394395 A    
C44   H24   1.108730 S    
C26   C27   1.415699 A    
C36   H10   1.077502 S    
O6    Cu2   1.963187 S    
C2    C28   1.462762 S    
C20   H6    1.083838 S    
C14   C18   1.410411 A    
C43   H20   1.107961 S    
O4    C1    1.291048 A    
C45   H27   1.113426 S    
C42   H18   1.108071 S    
C23   O13   1.382139 S    
O17   H37   0.986593 S    
C11   O10   1.390080 S    
C19   C23   1.394503 A    
C42   H16   1.109027 S    
O19   H39   0.988081 S    
C46   H30   1.113138 S    
C26   O16   1.382763 S    
O14   C46   1.410291 S    
C3    C18   1.483481 S    
C7    H3    1.077474 S    
C37   N1    1.361103 A    
O16   C48   1.410273 S    
C38   N2    1.364326 A    
C13   C15   1.405650 A    
O4    Cu2   1.954744 S    
C9    O12   1.381914 S    
O2    Cu2   1.954224 S    
C25   C28   1.413293 A    
C7    C11   1.414606 A    
O7    C4    1.299583 A    
C39   C40   1.512866 S    
O5    Cu1   1.963188 S    
C8    H4    1.082479 S    
C48   H35   1.113548 S    
O9    C41   1.410446 S    
C23   C27   1.412571 A    
C34   C38   1.405065 A    
