data_mof_unit_22223.cif
_audit_creation_date              2012-12-10T20:51:26-0500
_audit_creation_method            fapswitch 2.2
_symmetry_space_group_name_H-M    P1
_symmetry_Int_Tables_number       1
_space_group_crystal_system       triclinic
_cell_length_a                    17.701052
_cell_length_b                    8.917697
_cell_length_c                    8.090768
_cell_angle_alpha                 90.000503
_cell_angle_beta                  90.045736
_cell_angle_gamma                 90.005081
_cell_volume                      1277.14850103

loop_
_atom_site_label
_atom_site_type_symbol
_atom_type_description
_atom_site_fract_x
_atom_site_fract_y
_atom_site_fract_z
_atom_type_partial_charge
C1    C     C_R   0.500021 0.217984 0.499999 1.020827
C2    C     C_R   0.849434 0.574575 0.385365 0.387961
C3    C     C_R   0.767110 0.380769 0.595842 0.373952
C4    C     C_R   0.232949 0.380615 0.404056 0.374067
C5    C     C_R   0.228808 0.591731 0.601353 0.374401
C6    C     C_R   0.771135 0.591713 0.398294 0.374733
C7    C     C_R   0.729476 0.491546 0.499689 -0.481131
C8    C     C_R   0.270527 0.491453 0.500236 -0.481181
C9    C     C_R   0.886496 0.471611 0.489542 -0.255800
C10   C     C_R   0.113486 0.471767 0.509529 -0.255695
C11   C     C_1   0.966481 0.472540 0.496196 0.033087
C12   C     C_R   0.500006 0.782008 0.500000 1.019490
C13   C     C_1   0.033503 0.472595 0.502709 0.033024
C14   C     C_1   0.500026 0.065164 0.499998 -0.067701
C15   C     C_1   0.500019 0.934788 0.499998 -0.122229
C16   C     C_R   0.353126 0.498895 0.499896 1.074085
C17   C     C_R   0.646876 0.498916 0.500100 1.073827
C18   C     C_R   0.846048 0.375396 0.595591 0.391304
C19   C     C_R   0.154009 0.375428 0.403759 0.391446
C20   C     C_R   0.150483 0.574734 0.613854 0.387998
H1    H     H_    0.935628 0.264605 0.673902 0.356905
H2    H     H_    0.064398 0.265186 0.324400 0.356801
H3    H     H_    0.061019 0.620523 0.748213 0.358869
H4    H     H_    0.938752 0.620066 0.250444 0.358804
H5    H     H_    0.737563 0.030751 0.833483 0.399896
H6    H     H_    0.262723 0.029047 0.169436 0.399765
H7    H     H_    0.349201 0.921259 0.636430 0.389752
H8    H     H_    0.651011 0.921609 0.364138 0.389632
N1    N     N_1   0.500000 0.500000 0.073640 0.030378
N2    N     N_1   0.500000 0.500000 0.926360 0.030380
O1    O     O_R   0.500000 0.285350 0.636850 -0.610249
O2    O     O_3   0.118501 0.276350 0.297068 -0.635421
O3    O     O_3   0.111598 0.663093 0.725953 -0.645281
O4    O     O_3   0.888242 0.662810 0.273012 -0.645231
O5    O     O_2   0.679967 0.313715 0.857925 -0.255575
O6    O     O_2   0.656682 0.175879 0.600687 -0.365039
O7    O     O_3   0.772056 0.100860 0.775835 -0.413385
O8    O     O_2   0.320377 0.312639 0.142695 -0.255085
O9    O     O_2   0.343268 0.175583 0.400602 -0.365615
O10   O     O_3   0.228069 0.100209 0.225032 -0.413227
O11   O     O_2   0.217063 0.859693 0.762195 -0.180532
O12   O     O_R   0.500000 0.714650 0.363150 -0.609364
O13   O     O_2   0.314155 0.684574 0.857126 -0.257931
O14   O     O_3   0.335453 0.826352 0.580367 -0.581584
O15   O     O_2   0.782867 0.859763 0.237672 -0.181306
O16   O     O_2   0.685664 0.684813 0.142835 -0.257646
O17   O     O_3   0.664567 0.826397 0.419791 -0.581353
O18   O     O_R   0.500000 0.714650 0.636850 -0.609432
O19   O     O_R   0.500000 0.285350 0.363150 -0.610415
O20   O     O_R   0.389120 0.500000 0.636930 -0.584895
O21   O     O_R   0.610880 0.500000 0.363070 -0.585110
O22   O     O_R   0.610880 0.500000 0.636930 -0.574849
O23   O     O_R   0.389120 0.500000 0.363070 -0.575224
O24   O     O_3   0.881653 0.276299 0.702071 -0.635560
S1    S     S_3+6 0.716444 0.241850 0.710096 0.109110
S2    S     S_3+6 0.283680 0.241297 0.290573 0.109248
S3    S     S_3+6 0.273344 0.743512 0.707671 0.109597
S4    S     S_3+6 0.726576 0.743598 0.292236 0.109548
Zn1   Zn    Zn3+2 0.500000 0.500000 0.682780 1.137175
Zn2   Zn    Zn3+2 0.500000 0.500000 0.317220 1.136984

loop_
_geom_bond_atom_site_label_1
_geom_bond_atom_site_label_2
_ccdc_geom_bond_type
C5    C8    A    
C12   C15   S    
H8    O17   S    
C6    C7    A    
O21   Zn2   S    
O22   Zn1   S    
C11   C13   T    
C6    S4    S    
C10   C20   A    
O9    S2    D    
C4    C19   A    
N1    Zn2   S    
C5    S3    S    
O14   S3    S    
C4    C8    A    
H6    O10   S    
N2    Zn1   S    
C2    O4    S    
O11   S3    D    
C8    C16   S    
O6    S1    D    
C2    C6    A    
C4    S2    S    
O17   S4    S    
C9    C11   S    
C17   O21   A    
N1    N2    T    
O19   Zn2   S    
H2    O2    S    
O18   Zn1   S    
C19   O2    S    
C17   O22   A    
C12   O18   A    
C16   O20   A    
C18   O24   S    
C3    C7    A    
H1    O24   S    
H4    O4    S    
O15   S4    D    
C7    C17   S    
C20   O3    S    
O1    Zn1   S    
O7    S1    S    
C9    C18   A    
C1    O1    A    
O8    S2    D    
C3    C18   A    
C10   C19   A    
O12   Zn2   S    
O20   Zn1   S    
C5    C20   A    
O13   S3    D    
C16   O23   A    
C12   O12   A    
C1    C14   S    
H3    O3    S    
C14   C15   T    
C2    C9    A    
C3    S1    S    
H7    O14   S    
O23   Zn2   S    
O5    S1    D    
O16   S4    D    
H5    O7    S    
O10   S2    S    
C10   C13   S    
C1    O19   A    
