data_mof_unit_54516.cif
_audit_creation_date              2013-03-05T15:45:30-0500
_audit_creation_method            fapswitch 2.2
_symmetry_space_group_name_H-M    P1
_symmetry_Int_Tables_number       1
_space_group_crystal_system       triclinic
_cell_length_a                    20.723707
_cell_length_b                    7.083939
_cell_length_c                    20.342733
_cell_angle_alpha                 90.002246
_cell_angle_beta                  101.559472
_cell_angle_gamma                 90.004591
_cell_volume                      2925.85164778

loop_
_atom_site_label
_atom_site_type_symbol
_atom_site_description
_atom_site_fract_x
_atom_site_fract_y
_atom_site_fract_z
_atom_type_partial_charge
O1    O     O_R   0.423690 0.494470 0.435930 -0.589606
O2    O     O_R   0.576310 0.994470 0.564070 -0.589627
O3    O     O_R   0.556070 0.822310 0.435760 -0.578018
O4    O     O_R   0.443930 0.322310 0.564240 -0.578019
C1    C     C_R   0.575695 0.655391 0.420644 0.960259
C2    C     C_R   0.424305 0.155387 0.579356 0.960278
O5    O     O_R   0.422940 0.824080 0.428040 -0.602067
O6    O     O_R   0.577060 0.324080 0.571960 -0.602128
O7    O     O_R   0.442240 0.995960 0.556300 -0.579888
O8    O     O_R   0.557760 0.495960 0.443700 -0.579867
C3    C     C_R   0.398425 0.657012 0.410519 0.934762
C4    C     C_R   0.601573 0.157033 0.589485 0.934810
O9    O     O_3   0.506490 0.661310 0.542090 -0.276948
O10   O     O_3   0.493510 0.161310 0.457910 -0.276909
V1    V     V_3+5 0.498800 0.935560 0.492190 1.184903
V2    V     V_3+5 0.501200 0.435560 0.507810 1.184891
C5    C     C_R   0.837880 0.072935 0.856546 -0.130319
C6    C     C_R   0.162137 0.573027 0.143429 -0.130264
C7    C     C_R   0.661849 0.161065 0.643842 -0.129448
C8    C     C_R   0.338134 0.660972 0.356183 -0.129420
C9    C     C_R   0.753224 0.346407 0.707611 -0.229627
C10   C     C_R   0.246620 0.846071 0.292575 -0.229352
C11   C     C_R   0.700638 0.326604 0.653096 -0.127749
C12   C     C_R   0.299231 0.826279 0.347067 -0.127712
C13   C     C_R   0.678151 0.012878 0.690157 -0.289250
C14   C     C_R   0.321930 0.512995 0.309752 -0.289267
C15   C     C_R   0.730980 0.032773 0.745714 0.219728
C16   C     C_R   0.269080 0.532885 0.254217 0.219600
C17   C     C_R   0.768671 0.201286 0.754745 0.214225
C18   C     C_R   0.231268 0.701173 0.245326 0.214063
C19   C     C_R   0.821530 0.221148 0.810261 -0.284094
C20   C     C_R   0.178387 0.721030 0.189832 -0.284031
C21   C     C_R   0.799050 0.907470 0.847362 -0.147109
C22   C     C_R   0.201079 0.407793 0.152477 -0.147164
C23   C     C_R   0.746424 0.887688 0.792873 -0.232540
C24   C     C_R   0.253730 0.388022 0.206943 -0.232297
H1    H     H_    0.851072 0.348644 0.816106 0.142406
H2    H     H_    0.148749 0.848332 0.184094 0.142375
H3    H     H_    0.809932 0.790663 0.882192 0.136246
H4    H     H_    0.190266 0.291166 0.117552 0.136142
H5    H     H_    0.781416 0.476347 0.713182 0.134488
H6    H     H_    0.218335 0.975835 0.287112 0.134532
H7    H     H_    0.718217 0.757775 0.787327 0.129084
H8    H     H_    0.282030 0.258286 0.212380 0.129111
H9    H     H_    0.689775 0.443450 0.618283 0.141348
H10   H     H_    0.310025 0.942946 0.381974 0.141297
H11   H     H_    0.648617 0.885367 0.684282 0.140212
H12   H     H_    0.351560 0.385678 0.315519 0.140182
C25   C     C_3   0.266079 0.249631 0.819316 0.097331
C26   C     C_3   0.733948 0.749690 0.180705 0.097321
C27   C     C_3   0.235342 0.907507 0.780263 -0.507430
C28   C     C_3   0.764618 0.407515 0.219702 -0.507469
C29   C     C_3   0.286515 0.918540 0.733493 0.258548
C30   C     C_3   0.713455 0.418550 0.266483 0.258566
H13   H     H_    0.366252 0.187826 0.801330 0.175374
H14   H     H_    0.633764 0.687905 0.198672 0.175371
H15   H     H_    0.193320 0.814828 0.757835 0.195603
H16   H     H_    0.806621 0.314768 0.242103 0.195596
H17   H     H_    0.257857 0.836829 0.827771 0.150024
H18   H     H_    0.742080 0.336915 0.172182 0.150030
H19   H     H_    0.335186 0.875086 0.763814 0.052266
H20   H     H_    0.664775 0.375128 0.236167 0.052245
C31   C     C_1   0.379035 0.146439 0.625277 -0.220741
C32   C     C_1   0.620965 0.646450 0.374723 -0.220697
C33   C     C_3   0.208431 0.107323 0.792507 0.327154
C34   C     C_3   0.791568 0.607314 0.207492 0.327170
C35   C     C_3   0.318561 0.245508 0.773798 -0.526813
C36   C     C_3   0.681459 0.745556 0.226216 -0.526807
C37   C     C_3   0.293471 0.125941 0.709708 0.177353
C38   C     C_3   0.706529 0.625943 0.290291 0.177346
C39   C     C_3   0.224676 0.204388 0.675629 -0.318483
C40   C     C_3   0.775335 0.704325 0.324381 -0.318501
C41   C     C_3   0.173948 0.181241 0.722210 -0.472642
C42   C     C_3   0.826062 0.681146 0.277802 -0.472626
C43   C     C_1   0.340756 0.137986 0.663338 0.042674
C44   C     C_1   0.659244 0.637995 0.336662 0.042675
C45   C     C_1   0.160173 0.096638 0.837863 -0.044947
C46   C     C_1   0.839826 0.596624 0.162136 -0.044957
C47   C     C_1   0.121400 0.088752 0.875414 -0.287731
C48   C     C_1   0.878600 0.588739 0.124585 -0.287722
H21   H     H_    0.149729 0.319407 0.727026 0.172250
H22   H     H_    0.850313 0.819283 0.273008 0.172243
H23   H     H_    0.134413 0.081783 0.698720 0.206492
H24   H     H_    0.865572 0.581625 0.301278 0.206511
H25   H     H_    0.229235 0.356758 0.664131 0.218660
H26   H     H_    0.770800 0.856694 0.335892 0.218619
H27   H     H_    0.243617 0.393258 0.812492 0.091590
H28   H     H_    0.756434 0.893291 0.187559 0.091617
H29   H     H_    0.328874 0.392497 0.759593 0.206600
H30   H     H_    0.671161 0.892538 0.240437 0.206639
H31   H     H_    0.206148 0.133569 0.626808 0.208528
H32   H     H_    0.793848 0.633477 0.373196 0.208524
O11   O     O_R   0.942280 0.741210 0.056360 -0.588187
O12   O     O_R   0.057720 0.241210 0.943640 -0.588196
O13   O     O_R   0.077070 0.409690 0.071960 -0.597442
O14   O     O_R   0.922930 0.909690 0.928040 -0.597512
C49   C     C_R   0.101762 0.576972 0.089203 0.924371
C50   C     C_R   0.898239 0.076951 0.910794 0.924413
O15   O     O_R   0.943940 0.411580 0.064250 -0.586903
O16   O     O_R   0.056060 0.911580 0.935750 -0.586893
O17   O     O_R   0.923670 0.239840 0.935920 -0.590240
O18   O     O_R   0.076330 0.739840 0.064080 -0.590227
C51   C     C_R   0.924189 0.580043 0.079000 0.973171
C52   C     C_R   0.075810 0.080047 0.921000 0.973198
O19   O     O_3   0.993540 0.572620 0.957940 -0.278325
O20   O     O_3   0.006460 0.072620 0.042060 -0.278299
V3    V     V_3+5 0.001200 0.298330 0.007800 1.152388
V4    V     V_3+5 0.998800 0.798330 0.992200 1.152377
N1    N     N_R   0.269948 0.786799 0.676833 0.230604
O21   O     O_R   0.314130 0.668501 0.664668 -0.441145
O22   O     O_R   0.211463 0.784564 0.638714 -0.425517
N2    N     N_R   0.730014 0.286785 0.323130 0.230603
O23   O     O_R   0.685812 0.168574 0.335317 -0.441104
O24   O     O_R   0.788510 0.284461 0.361224 -0.425542
C53   C     C_3   0.297050 0.244363 0.895433 -0.341340
C54   C     C_3   0.325964 0.055270 0.923064 -0.896363
H33   H     H_    0.286047 0.958054 0.930423 0.251881
H34   H     H_    0.356124 0.989947 0.889885 0.252648
H35   H     H_    0.358145 0.078172 0.973046 0.247146
H36   H     H_    0.336846 0.352137 0.905580 0.188164
H37   H     H_    0.259589 0.288430 0.924580 0.182268
C55   C     C_3   0.702983 0.744529 0.104587 -0.341368
C56   C     C_3   0.674040 0.555491 0.076915 -0.896358
H38   H     H_    0.713942 0.458251 0.069547 0.251888
H39   H     H_    0.643859 0.490160 0.110073 0.252647
H40   H     H_    0.641874 0.578470 0.026933 0.247159
H41   H     H_    0.663207 0.852341 0.094457 0.188171
H42   H     H_    0.740456 0.788604 0.075453 0.182293

loop_
_geom_bond_atom_site_label_1
_geom_bond_atom_site_label_2
_geom_bond_distance
_ccdc_geom_bond_type
O17   V3    1.987362 S    
O15   C51   1.315673 A    
C53   H37   1.111860 S    
C15   C17   1.418169 A    
C25   H27   1.115939 S    
O1    C3    1.326209 A    
O16   C52   1.315663 A    
C29   C37   1.562519 S    
O11   C51   1.313512 A    
C2    O7    1.305182 A    
N2    O24   1.301469 A    
C28   C34   1.559604 S    
C56   H38   1.109290 S    
O5    C3    1.308860 A    
O19   V3    2.182915 S    
C21   H3    1.083326 S    
C25   C33   1.574672 S    
C11   H9    1.083304 S    
N1    O22   1.301491 A    
O11   V4    1.962614 S    
C40   H32   1.110204 S    
C46   C48   1.215870 T    
C56   H39   1.108789 S    
O20   V3    1.738909 S    
C53   C54   1.527910 S    
C34   C42   1.555761 S    
C35   H29   1.112713 S    
C33   C41   1.555772 S    
C54   H33   1.109295 S    
C27   C33   1.559619 S    
C55   H41   1.112327 S    
C37   C39   1.557591 S    
C28   H18   1.105317 S    
C39   H25   1.112453 S    
C29   H19   1.115040 S    
C8    C12   1.412768 A    
O14   C50   1.310345 A    
C36   H30   1.112699 S    
C28   H16   1.112733 S    
O18   V4    1.987437 S    
C27   H15   1.112752 S    
C6    C49   1.493307 S    
C20   H2    1.084197 S    
C23   H7    1.083906 S    
C5    C50   1.493335 S    
C13   H11   1.084154 S    
C49   O18   1.327517 A    
C26   H28   1.115922 S    
O20   V4    2.182820 S    
O5    V1    1.993905 S    
O14   V4    1.993947 S    
O12   C52   1.313505 A    
O6    V2    1.994045 S    
C5    C21   1.412771 A    
C42   H22   1.113199 S    
C41   H21   1.113214 S    
N2    O23   1.301039 A    
C28   C30   1.562166 S    
C27   H17   1.105335 S    
C45   C47   1.215869 T    
C34   C46   1.492320 S    
O19   V4    1.738844 S    
O12   V3    1.962632 S    
O16   V4    1.979007 S    
C33   C45   1.492313 S    
C48   C51   1.451716 S    
C40   C42   1.558581 S    
C39   C41   1.558577 S    
C56   H40   1.110439 S    
C30   H20   1.115031 S    
C15   C23   1.398634 A    
H14   C36   1.111603 S    
C9    C17   1.398495 A    
C3    C8    1.493400 S    
C19   H1    1.084159 S    
C1    C32   1.451911 S    
C27   C29   1.562154 S    
C2    C31   1.451905 S    
O4    V2    1.978869 S    
C7    C11   1.412780 A    
C26   C34   1.574652 S    
H13   C35   1.111616 S    
C30   C38   1.562505 S    
O6    C4    1.308830 A    
C32   C44   1.215952 T    
C30   N2    1.469217 S    
O1    V2    1.987786 S    
O2    V1    1.987709 S    
C6    C22   1.412761 A    
O13   V3    1.993803 S    
C9    H5    1.083913 S    
O4    C2    1.307013 A    
C25   C53   1.553282 S    
C9    C11   1.397408 A    
C38   C44   1.492581 S    
C5    C19   1.405702 A    
C10   C12   1.397449 A    
C47   C52   1.451711 S    
C24   H8    1.083943 S    
C6    C20   1.405754 A    
O3    C1    1.307024 A    
O3    V1    1.978908 S    
O2    C4    1.326246 A    
C29   N1    1.469220 S    
C10   C18   1.398569 A    
C42   H24   1.113073 S    
C8    C14   1.405882 A    
C40   H26   1.112449 S    
O13   C49   1.310375 A    
C25   C35   1.563589 S    
C14   H12   1.084192 S    
C13   C15   1.414155 A    
C50   O17   1.327555 A    
O15   V3    1.979047 S    
C14   C16   1.414173 A    
C54   H35   1.110457 S    
C12   H10   1.083331 S    
C16   C18   1.418210 A    
O7    V1    1.967364 S    
C1    O8    1.305188 A    
C17   C19   1.413981 A    
O8    V2    1.967342 S    
N1    O21   1.301071 A    
C18   C20   1.413999 A    
C10   H6    1.083949 S    
C31   C43   1.215950 T    
C4    C7    1.493430 S    
C21   C23   1.397579 A    
C54   H34   1.108794 S    
C37   C43   1.492576 S    
C22   C24   1.397617 A    
C55   H42   1.111858 S    
C7    C13   1.405827 A    
C39   H31   1.110210 S    
C26   C55   1.553258 S    
C16   C24   1.398708 A    
C36   C38   1.554252 S    
C53   H36   1.112340 S    
O9    V2    1.739252 S    
O10   V1    1.739319 S    
C22   H4    1.083356 S    
C38   C40   1.557571 S    
C35   C37   1.554261 S    
C55   C56   1.527885 S    
C26   C36   1.563584 S    
C41   H23   1.113088 S    
