data_mof_unit_56084.cif
_audit_creation_date              2012-12-10T19:00:48-0500
_audit_creation_method            fapswitch 2.2
_symmetry_space_group_name_H-M    P1
_symmetry_Int_Tables_number       1
_space_group_crystal_system       triclinic
_cell_length_a                    15.033304
_cell_length_b                    10.807918
_cell_length_c                    9.577783
_cell_angle_alpha                 89.567568
_cell_angle_beta                  89.370838
_cell_angle_gamma                 90.955401
_cell_volume                      1555.82922995

loop_
_atom_site_label
_atom_site_type_symbol
_atom_type_description
_atom_site_fract_x
_atom_site_fract_y
_atom_site_fract_z
_atom_type_partial_charge
C1    C     C_R   0.499477 0.262509 0.500401 0.788431
C2    C     C_R   0.906249 0.557763 0.597825 0.110034
C3    C     C_R   0.956978 0.345169 0.303142 -0.207436
C4    C     C_R   0.049553 0.351064 0.301798 -0.222979
C5    C     C_R   0.094812 0.422296 0.400229 0.113303
C6    C     C_R   0.046835 0.489657 0.500601 0.072277
C7    C     C_R   0.092448 0.560017 0.601932 0.114368
C8    C     C_R   0.044633 0.628621 0.699835 -0.214126
C9    C     C_R   0.952037 0.628378 0.696991 -0.198475
C10   C     C_R   0.187468 0.427324 0.400023 -0.245333
C11   C     C_R   0.232400 0.495792 0.501528 -0.065378
C12   C     C_R   0.328920 0.499170 0.500622 0.810993
C13   C     C_R   0.185210 0.560935 0.603057 -0.260743
C14   C     C_R   0.508796 0.062764 0.624364 0.109287
C15   C     C_R   0.493850 0.129169 0.501409 -0.109695
C16   C     C_R   0.468707 0.064832 0.380565 -0.216551
C17   C     C_R   0.468431 0.935860 0.380027 -0.215845
C18   C     C_R   0.492804 0.870540 0.500561 -0.085988
C19   C     C_R   0.507293 0.935294 0.623939 0.042408
C20   C     C_3   0.581872 0.925686 0.725180 -0.460072
C21   C     C_3   0.585001 0.067245 0.725295 0.323348
C22   C     C_R   0.553045 0.581331 0.071684 0.240598
C23   C     C_R   0.499223 0.737483 0.499715 0.806203
C24   C     C_R   0.441316 0.429423 0.078246 -0.070952
C25   C     C_R   0.439391 0.429819 0.929959 0.229087
C26   C     C_R   0.553390 0.580875 0.924731 0.224037
C27   C     C_3   0.652348 0.590931 0.917629 -0.512386
C28   C     C_3   0.651969 0.592049 0.076023 -0.482056
C29   C     C_R   0.670929 0.494811 0.499438 0.809963
C30   C     C_R   0.814048 0.558617 0.594428 -0.304707
C31   C     C_R   0.767517 0.485662 0.498934 -0.074126
C32   C     C_R   0.813291 0.406190 0.406594 0.123467
C33   C     C_R   0.907356 0.412228 0.402024 0.102459
C34   C     C_R   0.953341 0.486724 0.499803 0.015309
Cu1   Cu    Cu3+1 0.500000 0.499980 0.640670 0.929664
Cu2   Cu    Cu3+1 0.500000 0.500020 0.359330 0.933909
H1    H     H_    0.778021 0.617423 0.665956 0.150097
H2    H     H_    0.683712 0.506964 0.874044 0.222913
H3    H     H_    0.675575 0.680085 0.870210 0.186885
H4    H     H_    0.925083 0.288992 0.224602 0.158686
H5    H     H_    0.085831 0.299171 0.223995 0.143523
H6    H     H_    0.078851 0.683202 0.777763 0.143822
H7    H     H_    0.916146 0.683000 0.772769 0.142603
N1    N     N_R   0.500570 0.500930 0.147930 -0.204197
N2    N     N_R   0.500570 0.500890 0.852020 -0.188906
O1    O     O_R   0.500000 0.319640 0.618810 -0.589720
O2    O     O_R   0.500010 0.319680 0.381230 -0.589536
O3    O     O_R   0.370250 0.499950 0.618800 -0.583251
O4    O     O_R   0.370260 0.499990 0.381220 -0.585698
O5    O     O_R   0.499990 0.680320 0.618770 -0.574559
O6    O     O_R   0.500000 0.680360 0.381190 -0.581998
O7    O     O_R   0.629740 0.500010 0.618780 -0.589307
O8    O     O_R   0.629750 0.500050 0.381200 -0.573809
H8    H     H_    0.452175 0.887895 0.284507 0.162310
H9    H     H_    0.559159 0.882635 0.825520 0.184659
H10   H     H_    0.641477 0.881701 0.678350 0.174354
C35   C     C_3   0.559514 0.123036 0.866911 -0.814157
H11   H     H_    0.556749 0.225307 0.858445 0.253604
H12   H     H_    0.493543 0.087274 0.903894 0.209761
H13   H     H_    0.610091 0.099091 0.945889 0.225884
C36   C     C_3   0.672018 0.122397 0.663474 -0.818832
H14   H     H_    0.686396 0.083384 0.558723 0.215857
H15   H     H_    0.667408 0.224447 0.652922 0.236872
H16   H     H_    0.728317 0.101179 0.733318 0.229684
H17   H     H_    0.395065 0.371993 0.138400 0.141081
C37   C     C_3   0.365595 0.354008 0.865651 -0.792880
H18   H     H_    0.312096 0.415399 0.829762 0.240650
H19   H     H_    0.389001 0.293714 0.781663 0.260105
H20   H     H_    0.333723 0.290294 0.943595 0.170784
H21   H     H_    0.683282 0.509077 0.121962 0.224147
C38   C     C_3   0.763834 0.309780 0.321268 -0.883302
H22   H     H_    0.693143 0.297224 0.352403 0.245854
H23   H     H_    0.767733 0.334603 0.208731 0.227772
H24   H     H_    0.793988 0.217763 0.337560 0.224213
H25   H     H_    0.674783 0.681875 0.119981 0.194005
H26   H     H_    0.224795 0.376221 0.322576 0.139255
H27   H     H_    0.220792 0.614341 0.680689 0.146618
H28   H     H_    0.452295 0.113742 0.285373 0.161858

loop_
_geom_bond_atom_site_label_1
_geom_bond_atom_site_label_2
_ccdc_geom_bond_type
C8    C9    A    
C37   H19   S    
C19   C20   S    
C20   H10   S    
C12   O4    A    
C7    C8    A    
C26   C27   S    
C14   C21   S    
C8    H6    S    
C28   H25   S    
C5    C6    A    
C1    O1    A    
C35   H12   S    
C37   H20   S    
C4    H5    S    
C3    C33   A    
C27   H2    S    
C15   C16   A    
Cu2   O2    S    
C18   C19   A    
C36   H15   S    
Cu2   O8    S    
C26   N2    A    
C10   H26   S    
C22   N1    A    
Cu1   Cu2   S    
C27   H3    S    
C16   C17   A    
C1    C15   S    
C21   C36   S    
C12   O3    A    
C2    C34   A    
C37   H18   S    
C22   C28   S    
C20   H9    S    
Cu1   O3    S    
C33   C34   A    
C32   C38   S    
C13   H27   S    
C9    H7    S    
C18   C23   S    
C24   C25   A    
C38   H23   S    
C1    O2    A    
C35   H13   S    
C6    C34   A    
C30   H1    S    
C2    C9    A    
C36   H16   S    
C21   C35   S    
C23   O6    A    
C31   C32   A    
Cu1   O5    S    
C17   C18   A    
Cu2   O6    S    
C24   H17   S    
C3    H4    S    
C24   N1    A    
Cu2   N1    S    
C3    C4    A    
Cu1   N2    S    
C25   N2    A    
Cu1   O7    S    
C14   C19   A    
C28   H21   S    
C25   C37   S    
C4    C5    A    
C23   O5    A    
C38   H24   S    
C11   C12   S    
C6    C7    A    
C2    C30   A    
C32   C33   A    
C5    C10   A    
C29   C31   S    
C11   C13   A    
C35   H11   S    
C30   C31   A    
C29   O8    A    
C16   H28   S    
C36   H14   S    
C10   C11   A    
C7    C13   A    
C38   H22   S    
C20   C21   S    
C22   C26   A    
C27   C28   S    
C14   C15   A    
Cu1   O1    S    
C17   H8    S    
Cu2   O4    S    
C29   O7    A    
