data_mof_unit_10892.cif
_audit_creation_date              2012-12-10T17:03:57-0500
_audit_creation_method            fapswitch 2.2
_symmetry_space_group_name_H-M    P1
_symmetry_Int_Tables_number       1
_space_group_crystal_system       triclinic
_cell_length_a                    9.802089
_cell_length_b                    11.045095
_cell_length_c                    15.759095
_cell_angle_alpha                 94.68704
_cell_angle_beta                  79.406833
_cell_angle_gamma                 111.216927
_cell_volume                      1563.18856385

loop_
_atom_site_label
_atom_site_type_symbol
_atom_type_description
_atom_site_fract_x
_atom_site_fract_y
_atom_site_fract_z
_atom_type_partial_charge
C1    C     C_R   0.556102 0.745416 0.506204 0.868187
C2    C     C_R   0.443869 0.254582 0.493845 0.868502
C3    C     C_R   0.314441 0.458000 0.077082 0.096982
C4    C     C_R   0.673604 0.519265 0.923616 0.152645
C5    C     C_R   0.211620 0.389431 0.021544 0.106487
C6    C     C_R   0.777214 0.597229 0.975575 0.082317
C7    C     C_2   0.587737 0.884489 0.509650 -0.360765
C8    C     C_2   0.412156 0.115501 0.490533 -0.361122
C9    C     C_2   0.484166 0.930546 0.498573 -0.154327
C10   C     C_2   0.515607 0.069430 0.501816 -0.152859
C11   C     C_2   0.923135 0.490164 0.492409 -0.076334
C12   C     C_2   0.078295 0.512269 0.506036 -0.081741
C13   C     C_R   0.411018 0.484209 0.662791 0.795411
C14   C     C_R   0.588882 0.515724 0.337083 0.794375
C15   C     C_R   0.355354 0.460029 0.755066 -0.054038
C16   C     C_R   0.642760 0.537109 0.244172 -0.059190
C17   C     C_R   0.159710 0.356257 0.871846 -0.200540
C18   C     C_R   0.835006 0.635190 0.124377 -0.206567
C19   C     C_R   0.207442 0.385161 0.784567 -0.206383
C20   C     C_R   0.790185 0.609970 0.212414 -0.201600
C21   C     C_R   0.455333 0.502091 0.813179 -0.211220
C22   C     C_R   0.540744 0.492381 0.187368 -0.225011
C23   C     C_R   0.413158 0.462417 0.899297 0.061571
C24   C     C_R   0.579297 0.526699 0.100223 0.064418
C25   C     C_R   0.260370 0.399348 0.931272 0.079888
C26   C     C_R   0.731737 0.591058 0.066349 0.092044
C27   C     C_R   0.519323 0.491000 0.955036 -0.021975
C28   C     C_R   0.470192 0.491746 0.045250 -0.079488
Cu1   Cu    Cu3+1 0.362980 0.479380 0.485080 0.928327
Cu2   Cu    Cu3+1 0.637020 0.520620 0.514920 0.931345
H1    H     H_    0.624482 0.134367 0.513510 0.180180
H2    H     H_    0.375243 0.865602 0.486961 0.179596
H3    H     H_    0.303484 0.050285 0.478827 0.148517
H4    H     H_    0.696458 0.949712 0.521274 0.148668
N1    N     N_2   0.842890 0.551600 0.537350 -0.287053
N2    N     N_2   0.157110 0.448400 0.462650 -0.293199
O1    O     O_R   0.426810 0.668300 0.492040 -0.577017
O2    O     O_R   0.573190 0.331700 0.507960 -0.575601
O3    O     O_R   0.658240 0.703130 0.517240 -0.575039
O4    O     O_R   0.341760 0.296870 0.482760 -0.575631
O5    O     O_R   0.319390 0.472820 0.610170 -0.578259
O6    O     O_R   0.680610 0.527180 0.389830 -0.579048
O7    O     O_R   0.550820 0.507640 0.635370 -0.577801
O8    O     O_R   0.449180 0.492360 0.364630 -0.574175
C29   C     C_3   0.052744 0.306816 0.058202 -0.384615
C30   C     C_3   0.943391 0.377323 0.061696 -0.831008
H5    H     H_    0.963350 0.455496 0.111222 0.260439
H6    H     H_    0.953067 0.420387 0.998808 0.246540
H7    H     H_    0.828209 0.307986 0.079464 0.242503
H8    H     H_    0.016595 0.215781 0.019331 0.183754
H9    H     H_    0.045796 0.272097 0.123273 0.214738
C31   C     C_3   0.933780 0.679973 0.933555 -0.422169
C32   C     C_3   0.932662 0.757479 0.857596 -0.845372
H10   H     H_    0.860226 0.815694 0.878184 0.253471
H11   H     H_    0.047062 0.824784 0.834456 0.242996
H12   H     H_    0.893252 0.692777 0.802759 0.241194
H13   H     H_    0.991599 0.754268 0.978892 0.204872
H14   H     H_    0.002327 0.618711 0.912183 0.200002
H15   H     H_    0.431049 0.427452 0.211553 0.177668
H16   H     H_    0.565480 0.570155 0.791320 0.140855
H17   H     H_    0.871407 0.645598 0.255318 0.153687
H18   H     H_    0.128408 0.349610 0.740346 0.154619
H19   H     H_    0.043017 0.302480 0.891506 0.153691
H20   H     H_    0.952479 0.682552 0.103213 0.126090
C33   C     C_3   0.262638 0.533228 0.154348 -0.347345
C34   C     C_3   0.169129 0.451677 0.232931 -0.863744
H21   H     H_    0.186918 0.358261 0.234193 0.238341
H22   H     H_    0.198559 0.508171 0.292570 0.259591
H23   H     H_    0.049234 0.430627 0.234305 0.243150
H24   H     H_    0.358880 0.612140 0.175455 0.202027
H25   H     H_    0.198504 0.586446 0.132884 0.192274
C35   C     C_3   0.726447 0.441864 0.847831 -0.396000
C36   C     C_3   0.651850 0.295594 0.861612 -0.834658
H26   H     H_    0.668978 0.269712 0.924523 0.248648
H27   H     H_    0.531108 0.263708 0.860236 0.261984
H28   H     H_    0.701251 0.242824 0.809268 0.238108
H29   H     H_    0.710288 0.465806 0.784652 0.205350
H30   H     H_    0.847284 0.462703 0.840987 0.205250
H31   H     H_    0.126158 0.584232 0.553667 0.160824
H32   H     H_    0.876837 0.420870 0.443061 0.160178
H33   H     H_    0.107161 0.377707 0.419897 0.191885
H34   H     H_    0.889607 0.616961 0.583729 0.186702

loop_
_geom_bond_atom_site_label_1
_geom_bond_atom_site_label_2
_ccdc_geom_bond_type
C34   H22   S    
C36   H26   S    
C18   C26   A    
C4    C35   S    
C13   O5    A    
C32   H10   S    
C31   C32   S    
C15   C19   A    
Cu1   N2    S    
Cu1   Cu2   S    
Cu2   N1    S    
C22   C24   A    
C3    C28   A    
C24   C26   A    
C34   H23   S    
C29   H9    S    
C19   H18   S    
C33   H24   S    
C12   H31   S    
Cu2   O2    S    
C20   H17   S    
C35   H30   S    
C9    H2    S    
C10   H1    S    
C23   C27   A    
C12   N2    D    
C9    C10   S    
C1    O1    A    
C14   O6    A    
C34   H21   S    
C36   H27   S    
C3    C33   S    
N1    H34   S    
C32   H11   S    
C21   C23   A    
C30   H6    S    
C21   H16   S    
C4    C6    A    
C11   H32   S    
C22   H15   S    
C33   H25   S    
C5    C29   S    
C35   H29   S    
C2    O2    A    
C30   H7    S    
N2    H33   S    
C16   C20   A    
C31   H14   S    
C5    C25   A    
C13   C15   S    
Cu1   O8    S    
C36   H28   S    
C14   C16   S    
Cu2   O7    S    
C29   C30   S    
C13   O7    A    
C4    C27   A    
C7    H4    S    
C14   O8    A    
C32   H12   S    
C7    C9    D    
C30   H5    S    
C16   C22   A    
Cu1   O5    S    
C1    C7    S    
C2    C8    S    
C24   C28   A    
C35   C36   S    
C3    C5    A    
C11   C12   S    
C17   C25   A    
C11   N1    D    
C17   H19   S    
C18   H20   S    
C6    C26   A    
C29   H8    S    
Cu1   O4    S    
C17   C19   A    
Cu2   O3    S    
C18   C20   A    
C8    H3    S    
C23   C25   A    
C31   H13   S    
C1    O3    A    
C2    O4    A    
C15   C21   A    
C8    C10   D    
C33   C34   S    
Cu1   O1    S    
C27   C28   A    
Cu2   O6    S    
C6    C31   S    
