data_mof_unit_43788.cif
_audit_creation_date              2012-12-10T20:53:03-0500
_audit_creation_method            fapswitch 2.2
_symmetry_space_group_name_H-M    P1
_symmetry_Int_Tables_number       1
_space_group_crystal_system       triclinic
_cell_length_a                    18.40935
_cell_length_b                    18.395566
_cell_length_c                    18.368205
_cell_angle_alpha                 59.974999
_cell_angle_beta                  60.019467
_cell_angle_gamma                 59.678329
_cell_volume                      4387.51086549

loop_
_atom_site_label
_atom_site_type_symbol
_atom_type_description
_atom_site_fract_x
_atom_site_fract_y
_atom_site_fract_z
_atom_type_partial_charge
C1    C     C_R   0.389616 0.102017 0.117747 0.806817
C2    C     C_R   0.610280 0.883342 0.897608 0.845727
C3    C     C_R   0.101519 0.119460 0.388592 0.832927
C4    C     C_R   0.889270 0.892860 0.609328 0.809616
C5    C     C_R   0.118900 0.389732 0.101031 0.800264
C6    C     C_R   0.896897 0.608781 0.884163 0.834905
C7    C     C_R   0.095251 0.661002 0.157423 -0.142369
C8    C     C_R   0.789045 0.362316 0.803082 -0.137352
C9    C     C_R   0.697509 0.167855 0.074895 -0.165699
C10   C     C_R   0.343613 0.809008 0.806516 -0.141397
C11   C     C_R   0.161059 0.057445 0.673961 -0.143311
C12   C     C_R   0.825999 0.842333 0.330256 -0.131255
C13   C     C_R   0.091977 0.616141 0.246544 0.153094
C14   C     C_R   0.825336 0.418901 0.720409 0.152614
C15   C     C_R   0.648409 0.257421 0.068028 0.099772
C16   C     C_R   0.407310 0.727439 0.834753 0.149315
C17   C     C_R   0.248564 0.058152 0.631904 0.128166
C18   C     C_R   0.742234 0.856705 0.395662 0.153264
C19   C     C_R   0.016262 0.592463 0.312218 0.058385
C20   C     C_R   0.918305 0.403935 0.686289 0.035293
C21   C     C_R   0.591464 0.309732 0.015895 0.074266
C22   C     C_R   0.401624 0.688093 0.925782 0.042080
C23   C     C_R   0.314756 0.998404 0.584675 0.059087
C24   C     C_R   0.687634 0.944518 0.399173 0.039168
C25   C     C_R   0.942050 0.619324 0.287732 0.179386
C26   C     C_R   0.974446 0.325710 0.734905 0.136127
C27   C     C_R   0.584802 0.269416 0.971269 0.213770
C28   C     C_R   0.327681 0.731365 0.988147 0.135726
C29   C     C_R   0.291454 0.938561 0.579678 0.190937
C30   C     C_R   0.716554 0.018425 0.330276 0.138616
C31   C     C_R   0.946909 0.665424 0.198092 -0.164966
C32   C     C_R   0.934288 0.270721 0.818189 -0.162546
C33   C     C_R   0.635425 0.179066 0.979657 -0.145500
C34   C     C_R   0.263891 0.812554 0.956626 -0.173271
C35   C     C_R   0.203401 0.938498 0.623759 -0.160943
C36   C     C_R   0.799789 0.000661 0.263198 -0.194957
C37   C     C_R   0.023083 0.685667 0.133562 -0.210261
C38   C     C_R   0.842659 0.289925 0.852231 -0.238384
C39   C     C_R   0.691827 0.129189 0.030321 -0.210921
C40   C     C_R   0.272902 0.851507 0.866657 -0.229732
C41   C     C_R   0.139048 0.997166 0.670882 -0.195489
C42   C     C_R   0.854216 0.913603 0.264223 -0.254325
C43   C     C_R   0.966980 0.592201 0.463532 -0.289368
C44   C     C_R   0.007947 0.408050 0.533660 -0.281029
C45   C     C_R   0.592054 0.463117 0.958445 -0.286678
C46   C     C_R   0.407720 0.534632 0.009632 -0.270203
C47   C     C_R   0.463568 0.953008 0.591171 -0.273783
C48   C     C_R   0.534614 0.008465 0.406581 -0.289544
C49   C     C_R   0.939951 0.550597 0.556104 -0.049516
C50   C     C_R   0.042610 0.448744 0.442895 -0.046687
C51   C     C_R   0.550789 0.555915 0.936698 -0.058634
C52   C     C_R   0.448440 0.443083 0.040844 -0.054078
C53   C     C_R   0.555792 0.936485 0.550383 -0.059086
C54   C     C_R   0.443480 0.037043 0.447235 -0.068505
C55   C     C_R   0.957615 0.456256 0.591982 0.011770
C56   C     C_R   0.012911 0.542937 0.406552 0.015301
C57   C     C_R   0.456081 0.592486 0.958689 0.006899
C58   C     C_R   0.542333 0.406130 0.006464 0.023996
C59   C     C_R   0.592099 0.961727 0.455344 0.016925
C60   C     C_R   0.407551 0.999113 0.540210 0.026545
C61   C     C_R   0.106328 0.390694 0.389124 0.773822
C62   C     C_R   0.889307 0.608946 0.610524 0.783466
C63   C     C_R   0.390657 0.389349 0.106577 0.776014
C64   C     C_R   0.608983 0.610328 0.888435 0.785347
C65   C     C_R   0.389203 0.104805 0.390277 0.774554
C66   C     C_R   0.610272 0.888908 0.608901 0.783585
C67   C     C_R   0.014439 0.089895 0.306463 0.157309
C68   C     C_R   0.922836 0.994620 0.678804 0.161164
C69   C     C_R   0.103123 0.307285 0.003527 0.164168
C70   C     C_R   0.040744 0.666829 0.847948 0.153881
C71   C     C_R   0.311796 0.001396 0.098344 0.150502
C72   C     C_R   0.681829 0.872312 0.029082 0.145680
C73   C     C_R   0.011862 0.040050 0.270904 -0.274595
C74   C     C_R   0.898066 0.064199 0.707140 -0.207459
C75   C     C_R   0.057511 0.269922 0.997426 -0.216005
C76   C     C_R   0.077035 0.710978 0.857442 -0.252301
C77   C     C_R   0.279394 0.984421 0.055978 -0.261429
C78   C     C_R   0.711659 0.885883 0.076587 -0.277174
C79   C     C_R   0.968549 0.978312 0.327576 -0.253819
C80   C     C_R   0.903035 0.147207 0.645858 -0.228582
C81   C     C_R   0.999119 0.324492 0.949280 -0.273342
C82   C     C_R   0.123559 0.664718 0.916845 -0.202296
C83   C     C_R   0.338266 0.928457 0.005524 -0.249163
C84   C     C_R   0.651208 0.928309 0.139190 -0.207848
C85   C     C_R   0.918478 0.978189 0.415360 0.215973
C86   C     C_R   0.941772 0.159425 0.554664 0.234613
C87   C     C_R   0.994216 0.413605 0.901882 0.220061
C88   C     C_R   0.142144 0.572072 0.958771 0.215414
C89   C     C_R   0.426123 0.885231 0.005179 0.237149
C90   C     C_R   0.560238 0.960858 0.152735 0.256458
C91   C     C_R   0.950926 0.997729 0.456865 0.039612
C92   C     C_R   0.972429 0.086362 0.526576 0.029986
C93   C     C_R   0.009990 0.455805 0.936822 0.040618
C94   C     C_R   0.086255 0.533070 0.967953 -0.001885
C95   C     C_R   0.463194 0.930019 0.014183 0.019733
C96   C     C_R   0.532307 0.971687 0.087197 -0.005470
C97   C     C_R   0.999382 0.057692 0.399756 0.030142
C98   C     C_R   0.943402 0.012093 0.586941 -0.000900
C99   C     C_R   0.067466 0.401025 0.989057 0.017958
C100  C     C_R   0.030179 0.585697 0.913881 0.046103
C101  C     C_R   0.404794 0.987319 0.066147 0.040635
C102  C     C_R   0.592320 0.921309 0.027265 0.033847
C103  C     C_R   0.932137 0.964688 0.551633 -0.187994
C104  C     C_R   0.023099 0.089001 0.438252 -0.174090
C105  C     C_R   0.977398 0.549744 0.915040 -0.161997
C106  C     C_R   0.090781 0.442129 0.019171 -0.213320
C107  C     C_R   0.556070 0.913806 0.978547 -0.169631
C108  C     C_R   0.442500 0.020622 0.089233 -0.176068
H1    H     H_    0.879449 0.201029 0.669839 0.150148
H2    H     H_    0.953798 0.951605 0.297933 0.165048
H3    H     H_    0.159040 0.697326 0.916490 0.154984
H4    H     H_    0.975540 0.293488 0.932506 0.152871
H5    H     H_    0.674282 0.923285 0.186027 0.148827
H6    H     H_    0.311692 0.904509 0.984625 0.168031
H7    H     H_    0.948341 0.664236 0.434659 0.170668
H8    H     H_    0.017496 0.337649 0.559172 0.162178
H9    H     H_    0.663963 0.434547 0.936776 0.173111
H10   H     H_    0.336377 0.562000 0.024216 0.164915
H11   H     H_    0.434924 0.928630 0.662948 0.171875
H12   H     H_    0.562179 0.027074 0.334585 0.167050
H13   H     H_    0.030094 0.058810 0.199565 0.136808
H14   H     H_    0.880065 0.052135 0.777105 0.152757
H15   H     H_    0.078770 0.198201 0.015553 0.139346
H16   H     H_    0.081117 0.775803 0.810396 0.161091
H17   H     H_    0.208385 0.001317 0.074256 0.140209
H18   H     H_    0.780254 0.851075 0.075328 0.145210
H19   H     H_    0.025552 0.721923 0.064910 0.151644
H20   H     H_    0.813564 0.246077 0.915605 0.167732
H21   H     H_    0.731715 0.060280 0.034767 0.159574
H22   H     H_    0.223189 0.913873 0.843758 0.157036
H23   H     H_    0.071704 0.996133 0.704951 0.170330
H24   H     H_    0.918169 0.901437 0.212234 0.150794
H25   H     H_    0.153292 0.677922 0.105947 0.145846
H26   H     H_    0.718856 0.372725 0.828090 0.157902
H27   H     H_    0.741697 0.128342 0.113732 0.153389
H28   H     H_    0.346633 0.837940 0.737880 0.158452
H29   H     H_    0.109368 0.103706 0.709169 0.144734
H30   H     H_    0.867687 0.775688 0.327629 0.143956
H31   H     H_    0.891160 0.686266 0.178090 0.134465
H32   H     H_    0.973415 0.210558 0.856818 0.149813
H33   H     H_    0.631822 0.146901 0.946281 0.135763
H34   H     H_    0.205705 0.846391 0.001287 0.151628
H35   H     H_    0.184346 0.892838 0.621646 0.132705
H36   H     H_    0.823573 0.053986 0.209118 0.146484
O1    O     O_3   0.250000 0.250000 0.250000 -0.473732
O2    O     O_3   0.750000 0.750000 0.750000 -0.467807
O3    O     O_R   0.305080 0.134200 0.134200 -0.649402
O4    O     O_R   0.694920 0.865800 0.865800 -0.630683
O5    O     O_R   0.134200 0.134200 0.305080 -0.632512
O6    O     O_R   0.865800 0.865800 0.694920 -0.673514
O7    O     O_R   0.134200 0.305080 0.134200 -0.660252
O8    O     O_R   0.865800 0.694920 0.865800 -0.657656
O9    O     O_R   0.134200 0.305090 0.426530 -0.652545
O10   O     O_R   0.865800 0.694910 0.573470 -0.645754
O11   O     O_R   0.305090 0.426530 0.134200 -0.665670
O12   O     O_R   0.694910 0.573470 0.865800 -0.639968
O13   O     O_R   0.426530 0.134200 0.305090 -0.653316
O14   O     O_R   0.573470 0.865800 0.694910 -0.636963
O15   O     O_R   0.134190 0.426530 0.134200 -0.638917
O16   O     O_R   0.865810 0.573470 0.865800 -0.640766
O17   O     O_R   0.426530 0.134200 0.134190 -0.649154
O18   O     O_R   0.573470 0.865800 0.865810 -0.632449
O19   O     O_R   0.134200 0.134190 0.426530 -0.644948
O20   O     O_R   0.865800 0.865810 0.573470 -0.634660
O21   O     O_R   0.426530 0.305080 0.134210 -0.637675
O22   O     O_R   0.573470 0.694920 0.865790 -0.661587
O23   O     O_R   0.305080 0.134210 0.426530 -0.637068
O24   O     O_R   0.694920 0.865790 0.573470 -0.665059
O25   O     O_R   0.134210 0.426530 0.305080 -0.637243
O26   O     O_R   0.865790 0.573470 0.694920 -0.662272
Zn1   Zn    Zn3+2 0.206620 0.206630 0.380140 0.960126
Zn2   Zn    Zn3+2 0.793380 0.793370 0.619860 0.938520
Zn3   Zn    Zn3+2 0.206630 0.380140 0.206620 0.947498
Zn4   Zn    Zn3+2 0.793370 0.619860 0.793380 0.941901
Zn5   Zn    Zn3+2 0.380140 0.206620 0.206630 0.949029
Zn6   Zn    Zn3+2 0.619860 0.793380 0.793370 0.955540
Zn7   Zn    Zn3+2 0.206620 0.206620 0.206620 0.919235
Zn8   Zn    Zn3+2 0.793380 0.793380 0.793380 0.928434
N1    N     N_3   0.010040 0.180708 0.253369 -0.416045
H37   H     H_    0.949099 0.215480 0.241630 0.171404
H38   H     H_    0.060107 0.181595 0.191510 0.198908
N2    N     N_3   0.958619 0.907497 0.735222 -0.495168
H39   H     H_    0.907859 0.881965 0.785078 0.229374
H40   H     H_    0.008214 0.867224 0.696371 0.169317
N3    N     N_3   0.194606 0.254927 0.998081 -0.447470
H41   H     H_    0.229313 0.292463 0.986451 0.185429
H42   H     H_    0.196499 0.200660 0.056824 0.227008
N4    N     N_3   0.038345 0.689241 0.762206 -0.491402
H43   H     H_    0.097051 0.700822 0.712977 0.169444
H44   H     H_    0.984718 0.746582 0.750629 0.221495
N5    N     N_3   0.255947 0.008755 0.185114 -0.411091
H45   H     H_    0.243538 0.948695 0.227099 0.173864
H46   H     H_    0.194830 0.058469 0.180380 0.198355
N6    N     N_3   0.737628 0.796649 0.999383 -0.412344
H47   H     H_    0.746390 0.739348 0.054902 0.165387
H48   H     H_    0.800167 0.803550 0.958202 0.206333
C109  C     C_3   0.818961 0.004405 0.437764 -0.329358
C110  C     C_3   0.755534 0.060942 0.499581 -0.868970
H49   H     H_    0.774804 0.119452 0.475718 0.251157
H50   H     H_    0.686595 0.085507 0.499790 0.239737
H51   H     H_    0.752935 0.022312 0.569569 0.254911
H52   H     H_    0.806316 0.047266 0.374523 0.219668
H53   H     H_    0.801148 0.945681 0.460477 0.257545
C111  C     C_3   0.931423 0.254270 0.489978 -0.407587
C112  C     C_3   0.860997 0.286381 0.449316 -0.890841
H54   H     H_    0.794812 0.289004 0.502114 0.264176
H55   H     H_    0.856489 0.353816 0.399211 0.254888
H56   H     H_    0.878259 0.241591 0.415061 0.267410
H57   H     H_    0.909810 0.300584 0.524649 0.194632
H58   H     H_    0.994761 0.260596 0.436234 0.210177
C113  C     C_3   0.008449 0.443682 0.803312 -0.354125
C114  C     C_3   0.052782 0.515025 0.737624 -0.834512
H59   H     H_    0.003794 0.583286 0.731981 0.259970
H60   H     H_    0.106914 0.504870 0.756226 0.260467
H61   H     H_    0.082917 0.510144 0.669893 0.225103
H62   H     H_    0.056669 0.385816 0.781963 0.214385
H63   H     H_    0.946369 0.459789 0.794482 0.256719
C115  C     C_3   0.232577 0.518603 0.971301 -0.353040
C116  C     C_3   0.308337 0.542267 0.885272 -0.944089
H64   H     H_    0.304113 0.611705 0.865176 0.265369
H65   H     H_    0.373291 0.497884 0.895807 0.262473
H66   H     H_    0.306817 0.533629 0.830421 0.273345
H67   H     H_    0.231087 0.533193 0.023581 0.235647
H68   H     H_    0.249527 0.445974 0.990545 0.191946
C117  C     C_3   0.460342 0.784021 0.030842 -0.380787
C118  C     C_3   0.542073 0.728718 0.061937 -0.869719
H69   H     H_    0.537937 0.752918 0.108915 0.258007
H70   H     H_    0.544294 0.658262 0.097838 0.232938
H71   H     H_    0.605227 0.727424 0.005270 0.253419
H72   H     H_    0.406719 0.762301 0.090411 0.213044
H73   H     H_    0.469249 0.765799 0.977391 0.249487
C119  C     C_3   0.499468 0.947014 0.249276 -0.379870
C120  C     C_3   0.494147 0.853246 0.292038 -0.911672
H74   H     H_    0.561104 0.802028 0.292041 0.267043
H75   H     H_    0.448450 0.842756 0.361693 0.248811
H76   H     H_    0.468264 0.844111 0.255064 0.266783
H77   H     H_    0.525995 0.953813 0.287261 0.195479
H78   H     H_    0.430837 0.995232 0.257572 0.202927
N7    N     N_3   0.165256 0.596370 0.269561 -0.476806
H79   H     H_    0.141031 0.626047 0.316851 0.176546
H80   H     H_    0.192239 0.527496 0.298456 0.204170
N8    N     N_3   0.767438 0.485480 0.668976 -0.479675
H81   H     H_    0.794359 0.476953 0.607259 0.188538
H82   H     H_    0.762032 0.548819 0.658799 0.181129
N9    N     N_3   0.656790 0.293640 0.115487 -0.478714
H83   H     H_    0.688793 0.340515 0.070025 0.186815
H84   H     H_    0.592994 0.325388 0.152775 0.192887
N10   N     N_3   0.471918 0.682256 0.771085 -0.485571
H85   H     H_    0.467268 0.619353 0.795084 0.191022
H86   H     H_    0.535716 0.674273 0.762262 0.189661
N11   N     N_3   0.268752 0.121412 0.635843 -0.477809
H87   H     H_    0.317420 0.086685 0.666414 0.183014
H88   H     H_    0.294596 0.160946 0.570879 0.203768
N12   N     N_3   0.710267 0.782647 0.450385 -0.491263
H89   H     H_    0.651448 0.798974 0.441273 0.185579
H90   H     H_    0.696615 0.769386 0.517256 0.198380
C121  C     C_3   0.855999 0.602598 0.355349 -0.425068
C122  C     C_3   0.859172 0.512247 0.369878 -0.869512
H91   H     H_    0.869116 0.509498 0.306337 0.258965
H92   H     H_    0.914244 0.457868 0.395388 0.259965
H93   H     H_    0.795254 0.501845 0.419507 0.250707
H94   H     H_    0.841527 0.606294 0.419915 0.225142
H95   H     H_    0.798839 0.655288 0.331923 0.206267
C123  C     C_3   0.076380 0.297027 0.694822 -0.418185
C124  C     C_3   0.128220 0.228261 0.760559 -0.889385
H96   H     H_    0.100169 0.243170 0.822329 0.250089
H97   H     H_    0.128612 0.160524 0.780296 0.256788
H98   H     H_    0.198150 0.227056 0.728595 0.272016
H99   H     H_    0.099703 0.266781 0.644500 0.229702
H100  H     H_    0.096785 0.356900 0.659246 0.211316
C125  C     C_3   0.523717 0.319008 0.916195 -0.416443
C126  C     C_3   0.558970 0.384945 0.826656 -0.900632
H101  H     H_    0.561163 0.438908 0.835753 0.269004
H102  H     H_    0.626621 0.349666 0.788280 0.265177
H103  H     H_    0.514115 0.416114 0.787435 0.256712
H104  H     H_    0.516153 0.271232 0.902430 0.199376
H105  H     H_    0.455838 0.353474 0.954092 0.195076
C127  C     C_3   0.313944 0.686667 0.088158 -0.415893
C128  C     C_3   0.246531 0.746107 0.146604 -0.911028
H106  H     H_    0.258618 0.808827 0.120552 0.255708
H107  H     H_    0.177358 0.763058 0.152262 0.262035
H108  H     H_    0.251765 0.709945 0.214489 0.264119
H109  H     H_    0.290920 0.630401 0.115282 0.231244
H110  H     H_    0.379012 0.656124 0.098510 0.206450
C129  C     C_3   0.358000 0.875368 0.527120 -0.448242
C130  C     C_3   0.413940 0.789901 0.580499 -0.856327
H111  H     H_    0.455568 0.804572 0.595441 0.273286
H112  H     H_    0.370158 0.756053 0.643770 0.264660
H113  H     H_    0.458998 0.743948 0.541022 0.250570
H114  H     H_    0.322657 0.856968 0.507816 0.199135
H115  H     H_    0.402243 0.908428 0.464141 0.210844
C131  C     C_3   0.654188 0.115818 0.320582 -0.401931
C132  C     C_3   0.694888 0.184065 0.294509 -0.889319
H116  H     H_    0.707072 0.177744 0.350740 0.259195
H117  H     H_    0.756540 0.181145 0.235868 0.265415
H118  H     H_    0.645552 0.252017 0.278024 0.257736
H119  H     H_    0.625302 0.138989 0.269019 0.229727
H120  H     H_    0.597986 0.120618 0.383557 0.218509

loop_
_geom_bond_atom_site_label_1
_geom_bond_atom_site_label_2
_ccdc_geom_bond_type
C19   C56   S    
C3    C104  S    
C69   N3    S    
N6    H48   S    
O1    Zn1   S    
C25   C31   A    
C84   H5    S    
O2    Zn2   S    
C89   C95   A    
O15   Zn3   S    
C132  H116  S    
C36   C42   A    
N7    H79   S    
C66   O14   A    
C37   H19   S    
C1    O17   A    
C2    O18   A    
C22   C57   S    
C53   C59   A    
C92   C98   A    
C115  H67   S    
C48   H12   S    
C54   C65   S    
C54   C60   A    
C112  H54   S    
C18   N12   S    
C48   C54   A    
C87   C113  S    
C30   C131  S    
O12   Zn4   S    
C100  C105  A    
C17   C23   A    
C64   O22   A    
C34   C40   A    
C23   C29   A    
C10   C40   A    
C131  C132  S    
C10   H28   S    
C32   H32   S    
C132  H118  S    
C96   C102  A    
C25   C121  S    
C8    C38   A    
C72   N6    S    
C130  H111  S    
O17   Zn5   S    
C114  H60   S    
N3    H42   S    
C26   C123  S    
C45   C51   A    
C2    O4    A    
C98   C103  A    
C4    C103  S    
C46   C52   A    
C2    C107  S    
C9    C39   A    
C114  H59   S    
C46   H10   S    
N4    H44   S    
C121  C122  S    
C128  H108  S    
C66   O24   A    
C1    O3    A    
N2    H39   S    
O14   Zn6   S    
C80   C86   A    
C6    O16   A    
C93   C105  A    
C47   C60   A    
C14   N8    S    
C131  H120  S    
C6    C105  S    
N2    H40   S    
C34   H34   S    
N3    H41   S    
O1    Zn5   S    
C121  H94   S    
N10   H86   S    
C126  H101  S    
C5    O15   A    
O2    Zn6   S    
C111  H57   S    
O2    Zn4   S    
C95   C101  A    
N12   H90   S    
C128  H106  S    
C4    O20   A    
C109  H53   S    
C110  H49   S    
C67   C73   A    
C32   C38   A    
O19   Zn1   S    
C124  H96   S    
C93   C99   A    
O4    Zn8   S    
C130  H113  S    
C70   N4    S    
O6    Zn8   S    
C43   H7    S    
O11   Zn3   S    
C101  C108  A    
C112  H55   S    
N6    H47   S    
C71   C101  A    
C28   C34   A    
C127  H110  S    
N9    H83   S    
N1    H38   S    
C119  H78   S    
C83   H6    S    
C90   C119  S    
C131  H119  S    
C125  H104  S    
C84   C90   A    
C20   C55   S    
C62   O26   A    
C22   C28   A    
C70   C100  A    
C117  C118  S    
C24   C30   A    
C5    C106  S    
C16   N10   S    
C85   C91   A    
C23   C60   S    
C83   C89   A    
C88   C94   A    
C45   C58   A    
C3    O5    A    
C13   C19   A    
C12   C42   A    
N5    H45   S    
C76   H16   S    
C14   C20   A    
C109  H52   S    
C113  H62   S    
C18   C24   A    
C13   N7    S    
C27   C125  S    
C120  H74   S    
C76   C82   A    
C116  H64   S    
C41   H23   S    
C118  H71   S    
C26   C32   A    
C123  C124  S    
C29   C129  S    
C39   H21   S    
C33   H33   S    
C49   C55   A    
C52   C58   A    
C8    H26   S    
C129  H114  S    
C17   N11   S    
C78   C84   A    
C27   C33   A    
C31   C37   A    
C16   C22   A    
N4    H43   S    
C12   C18   A    
C80   H1    S    
C122  H92   S    
C30   C36   A    
N5    H46   S    
C94   C106  A    
C129  C130  S    
C91   C103  A    
C75   H15   S    
C116  H65   S    
C120  H75   S    
C94   C100  A    
O3    Zn7   S    
C92   C104  A    
N8    H82   S    
C113  C114  S    
C81   H4    S    
C63   O21   A    
C20   C26   A    
C68   N2    S    
O9    Zn1   S    
C110  H51   S    
O5    Zn7   S    
N8    H81   S    
C7    C37   A    
C43   C49   A    
O10   Zn2   S    
C102  C107  A    
N7    H80   S    
C33   C39   A    
C91   C97   A    
C90   C96   A    
C53   C66   S    
C124  H97   S    
C81   C87   A    
C35   C41   A    
C95   C107  A    
O13   Zn5   S    
C51   C57   A    
C9    H27   S    
C113  H63   S    
C65   O13   A    
C74   H14   S    
N11   H88   S    
O1    Zn3   S    
C118  H70   S    
C127  H109  S    
N9    H84   S    
C46   C57   A    
C70   C76   A    
C119  H77   S    
C21   C27   A    
C8    C14   A    
O20   Zn2   S    
C122  H93   S    
C61   O25   A    
C31   H31   S    
C78   H18   S    
C86   C111  S    
C1    C108  S    
C71   C77   A    
C77   H17   S    
N10   H85   S    
C48   C59   A    
C129  H115  S    
O26   Zn4   S    
O24   Zn2   S    
C44   C50   A    
C99   C106  A    
C40   H22   S    
C11   C17   A    
C123  H100  S    
C49   C62   S    
C79   H2    S    
C124  H98   S    
C121  H95   S    
C114  H61   S    
O16   Zn4   S    
C123  H99   S    
C75   C81   A    
C51   C64   S    
C89   C117  S    
C110  H50   S    
C73   C79   A    
C15   N9    S    
C61   O9    A    
C125  H105  S    
C38   H20   S    
C52   C63   S    
C7    H25   S    
O1    Zn7   S    
C3    O19   A    
N11   H87   S    
O21   Zn5   S    
C28   C127  S    
C4    O6    A    
C29   C35   A    
C65   O23   A    
C73   H13   S    
C117  H72   S    
C5    O7    A    
O22   Zn6   S    
O23   Zn1   S    
C85   C109  S    
O25   Zn3   S    
C82   H3    S    
C69   C99   A    
N12   H89   S    
C111  H58   S    
C122  H91   S    
C11   H29   S    
C6    O8    A    
C21   C58   S    
C132  H117  S    
C117  H73   S    
C10   C16   A    
C50   C56   A    
C116  H66   S    
C130  H112  S    
C44   C55   A    
C115  C116  S    
C15   C21   A    
C72   C102  A    
C126  H103  S    
C82   C88   A    
C47   C53   A    
C87   C93   A    
C47   H11   S    
C119  C120  S    
C79   C85   A    
C88   C115  S    
C64   O12   A    
C69   C75   A    
C12   H30   S    
C115  H68   S    
C128  H107  S    
O8    Zn8   S    
C109  C110  S    
C19   C25   A    
C120  H76   S    
C68   C98   A    
C45   H9    S    
C67   N1    S    
C97   C104  A    
O7    Zn7   S    
C67   C97   A    
C86   C92   A    
C63   O11   A    
N1    H37   S    
C62   O10   A    
C43   C56   A    
C7    C13   A    
O18   Zn6   S    
C111  C112  S    
C44   H8    S    
C126  H102  S    
C118  H69   S    
C74   C80   A    
C11   C41   A    
C72   C78   A    
C50   C61   S    
C77   C83   A    
C127  C128  S    
C96   C108  A    
C42   H24   S    
C112  H56   S    
C71   N5    S    
C36   H36   S    
C68   C74   A    
C125  C126  S    
C9    C15   A    
C35   H35   S    
C24   C59   S    
O2    Zn8   S    
