data_mof_unit_34046.cif
_audit_creation_date              2012-12-10T16:48:07-0500
_audit_creation_method            fapswitch 2.2
_symmetry_space_group_name_H-M    P1
_symmetry_Int_Tables_number       1
_space_group_crystal_system       triclinic
_cell_length_a                    15.849339
_cell_length_b                    8.684994
_cell_length_c                    7.461322
_cell_angle_alpha                 102.918205
_cell_angle_beta                  94.809442
_cell_angle_gamma                 92.178405
_cell_volume                      995.837563778

loop_
_atom_site_label
_atom_site_type_symbol
_atom_type_description
_atom_site_fract_x
_atom_site_fract_y
_atom_site_fract_z
_atom_type_partial_charge
C1    C     C_R   0.497476 0.199757 0.453311 0.884327
C2    C     C_R   0.502524 0.800243 0.546689 0.884327
C3    C     C_R   0.339990 0.500004 0.501233 0.818935
C4    C     C_R   0.660010 0.499995 0.498767 0.818935
C5    C     C_2   0.496267 0.031882 0.427038 -0.346009
C6    C     C_2   0.503733 0.968118 0.572962 -0.346009
C7    C     C_3   0.971548 0.365957 0.539767 0.426446
C8    C     C_3   0.028451 0.634043 0.460233 0.426446
C9    C     C_3   0.020295 0.374047 0.370186 -0.242859
C10   C     C_3   0.979705 0.625953 0.629813 -0.242859
C11   C     C_1   0.250490 0.500702 0.502593 -0.121468
C12   C     C_1   0.749510 0.499298 0.497407 -0.121468
C13   C     C_3   0.035028 0.490653 0.665088 -0.118732
C14   C     C_3   0.964972 0.509347 0.334912 -0.118732
C15   C     C_3   0.083207 0.500262 0.497733 -0.022850
C16   C     C_3   0.916793 0.499738 0.502267 -0.022850
C17   C     C_1   0.174913 0.500772 0.500087 0.072261
C18   C     C_1   0.825086 0.499228 0.499913 0.072261
Cu1   Cu    Cu3+1 0.509330 0.517380 0.684380 0.982892
Cu2   Cu    Cu3+1 0.490670 0.482620 0.315620 0.982892
H1    H     H_    0.037508 0.271643 0.264009 0.210691
H2    H     H_    0.962492 0.728357 0.735991 0.210691
H3    H     H_    0.489228 0.960400 0.286369 0.181521
H4    H     H_    0.510772 0.039600 0.713630 0.181521
H5    H     H_    0.434376 0.376913 0.948314 0.231232
H6    H     H_    0.565624 0.623087 0.051686 0.231232
N1    N     N_2   0.476600 0.456420 0.038510 -0.211149
N2    N     N_2   0.523400 0.543580 0.961490 -0.211149
O1    O     O_R   0.506070 0.286130 0.619780 -0.585283
O2    O     O_R   0.493930 0.713870 0.380220 -0.585283
O3    O     O_R   0.490300 0.256770 0.308360 -0.583844
O4    O     O_R   0.509700 0.743230 0.691640 -0.583844
O5    O     O_R   0.386960 0.514660 0.655680 -0.583864
O6    O     O_R   0.613040 0.485340 0.344320 -0.583864
O7    O     O_R   0.371190 0.485310 0.344260 -0.565019
O8    O     O_R   0.628810 0.514690 0.655740 -0.565019
Cl1   Cl    Cl    0.932793 0.188316 0.594395 -0.539612
Cl2   Cl    Cl    0.067207 0.811684 0.405605 -0.539612
C19   C     C_1   0.923711 0.520534 0.154986 0.368302
N3    N     N_1   0.890746 0.529391 0.013588 -0.255917
C20   C     C_1   0.076289 0.479466 0.845014 0.368302
N4    N     N_1   0.109254 0.470609 0.986412 -0.255917

loop_
_geom_bond_atom_site_label_1
_geom_bond_atom_site_label_2
_ccdc_geom_bond_type
C8    C14   S    
C9    C14   S    
C4    O8    A    
C15   C17   S    
Cu2   N1    S    
C4    C12   S    
C20   N4    T    
H6    N2    S    
Cu1   Cu2   S    
C5    H3    S    
C3    O7    A    
C2    O2    A    
Cu2   O6    S    
C1    O1    A    
C7    Cl1   S    
C6    H4    S    
C16   C18   S    
Cu2   O2    S    
C10   H2    S    
Cu1   N2    S    
C9    H1    S    
C2    C6    S    
C8    Cl2   S    
C1    C5    S    
Cu1   O4    S    
C13   C20   S    
C7    C16   S    
C8    C15   S    
C14   C16   S    
Cu1   O8    S    
C13   C15   S    
C1    O3    A    
C9    C15   S    
C5    C6    D    
Cu2   O3    S    
C4    O6    A    
C3    C11   S    
C3    O5    A    
Cu1   O1    S    
C7    C13   S    
C2    O4    A    
Cu1   O5    S    
C12   C18   T    
C19   N3    T    
C7    C9    S    
C11   C17   T    
C10   C16   S    
C14   C19   S    
Cu2   O7    S    
C10   C13   S    
C8    C10   S    
N1    N2    D    
H5    N1    S    
