data_mof_unit_19942.cif
_audit_creation_date              2012-12-11T14:57:51-0500
_audit_creation_method            fapswitch 2.2
_symmetry_space_group_name_H-M    P1
_symmetry_Int_Tables_number       1
_space_group_crystal_system       triclinic
_cell_length_a                    6.948787
_cell_length_b                    16.262727
_cell_length_c                    17.563302
_cell_angle_alpha                 100.288236
_cell_angle_beta                  90.076866
_cell_angle_gamma                 89.478651
_cell_volume                      1952.77000033

loop_
_atom_site_label
_atom_site_type_symbol
_atom_type_description
_atom_site_fract_x
_atom_site_fract_y
_atom_site_fract_z
_atom_type_partial_charge
O1    O     O_R   0.506180 0.438940 0.579430 -0.532048
O2    O     O_R   0.170520 0.406230 0.413590 -0.536944
O3    O     O_R   0.005180 0.561060 0.420570 -0.546945
C1    C     C_R   0.341776 0.379518 0.388837 0.780270
O4    O     O_R   0.176140 0.429310 0.578370 -0.543608
O5    O     O_R   0.010830 0.584300 0.586530 -0.555711
C2    C     C_R   0.345974 0.413747 0.604682 0.838216
O6    O     O_R   0.500520 0.415700 0.413470 -0.532758
O7    O     O_3   0.340830 0.550820 0.502480 -0.393684
V1    V     V_3+5 0.064040 0.490570 0.499540 1.463647
O8    O     O_R   0.681400 0.593770 0.586410 -0.511770
C3    C     C_R   0.849738 0.620143 0.612111 0.789997
O9    O     O_R   0.675790 0.570690 0.421630 -0.535446
C4    C     C_R   0.843924 0.588561 0.397043 0.866811
V2    V     V_3+5 0.564650 0.509430 0.500460 1.505676
O10   O     O_3   0.837730 0.449180 0.497520 -0.385191
C5    C     C_R   0.910537 0.867075 0.169367 -0.183295
C6    C     C_R   0.851525 0.639849 0.335009 -0.266188
C7    C     C_R   0.848218 0.648089 0.198631 -0.038868
C8    C     C_R   0.840791 0.600661 0.257305 0.353632
C9    C     C_R   0.871653 0.727949 0.353050 0.415563
C10   C     C_R   0.873120 0.777060 0.293204 -0.095733
C11   C     C_R   0.869550 0.735098 0.215298 -0.032337
C12   C     C_R   0.886371 0.780286 0.154468 -0.164674
C13   C     C_R   0.902443 0.910234 0.246136 0.279990
C14   C     C_R   0.878073 0.866258 0.307857 0.382875
H1    H     H_    0.880297 0.747751 0.095158 0.173451
H2    H     H_    0.836243 0.616388 0.139604 0.151162
C15   C     C_R   0.831814 0.919673 0.744781 -0.229130
C16   C     C_R   0.775919 0.946853 0.677539 0.418980
C17   C     C_R   0.731634 0.886355 0.612551 -0.272467
C18   C     C_R   0.745849 0.800496 0.614868 0.401997
C19   C     C_R   0.819174 0.772626 0.681769 -0.047883
C20   C     C_R   0.853153 0.833797 0.749217 -0.058111
C21   C     C_R   0.859005 0.686572 0.683420 -0.083277
C22   C     C_R   0.924492 0.662940 0.753157 -0.025833
C23   C     C_R   0.957884 0.723850 0.821482 -0.058317
C24   C     C_R   0.911992 0.810080 0.819896 -0.057650
C25   C     C_R   0.955201 0.577209 0.755245 -0.190874
C26   C     C_R   0.018729 0.550064 0.820963 0.383999
C27   C     C_R   0.060344 0.607783 0.887125 0.445432
C28   C     C_R   0.036618 0.694064 0.887511 0.205169
H3    H     H_    0.864064 0.968423 0.793437 0.129375
H4    H     H_    0.684179 0.904665 0.559405 0.191654
H5    H     H_    0.925470 0.528748 0.706115 0.178344
C29   C     C_R   0.408509 0.199578 0.397513 0.331758
C30   C     C_R   0.401171 0.114023 0.401661 0.461328
C31   C     C_R   0.410437 0.054798 0.333579 -0.130182
C32   C     C_R   0.416276 0.079847 0.262264 -0.118309
C33   C     C_R   0.403931 0.165243 0.255721 0.022687
C34   C     C_R   0.389750 0.226746 0.324713 -0.077844
C35   C     C_R   0.404624 0.188630 0.181373 -0.090744
C36   C     C_R   0.373355 0.274764 0.175569 -0.009003
C37   C     C_R   0.361008 0.336176 0.244935 -0.026386
C38   C     C_R   0.361069 0.312438 0.318847 -0.091964
C39   C     C_R   0.350593 0.303771 0.103679 0.318216
C40   C     C_R   0.343311 0.389149 0.101179 -0.099602
C41   C     C_R   0.346668 0.447961 0.168530 0.425355
C42   C     C_R   0.349467 0.422070 0.239473 -0.107846
H6    H     H_    0.419850 0.988751 0.335479 0.165984
H7    H     H_    0.427723 0.030549 0.212177 0.135667
H8    H     H_    0.329978 0.410090 0.046168 0.221498
H9    H     H_    0.345115 0.470809 0.290172 0.145338
C43   C     C_R   0.404327 0.133471 0.830031 -0.125201
C44   C     C_R   0.363661 0.365427 0.668645 -0.190266
C45   C     C_R   0.504160 0.350464 0.793575 0.444163
C46   C     C_R   0.463710 0.399429 0.736656 0.345912
C47   C     C_R   0.290975 0.284193 0.660874 -0.208923
C48   C     C_R   0.329214 0.234751 0.717547 0.047711
C49   C     C_R   0.448314 0.265327 0.781962 -0.126472
C50   C     C_R   0.500882 0.210251 0.833765 0.511026
C51   C     C_R   0.277826 0.107063 0.768353 -0.244479
C52   C     C_R   0.247096 0.155389 0.711152 -0.101977
H10   H     H_    0.203838 0.048043 0.763982 0.136861
H11   H     H_    0.152315 0.132049 0.663343 0.129615
H12   H     H_    0.207816 0.258896 0.609893 0.157851
O11   O     O_R   0.265840 0.084300 0.086750 -0.521193
O12   O     O_R   0.589750 0.070740 0.921690 -0.534143
O13   O     O_R   0.755020 0.915730 0.913400 -0.552497
C53   C     C_R   0.420642 0.083305 0.893045 0.796815
O14   O     O_R   0.595830 0.093740 0.086480 -0.525631
O15   O     O_R   0.761150 0.938890 0.079360 -0.544862
C54   C     C_R   0.424572 0.120543 0.111666 0.789602
O16   O     O_R   0.259710 0.061140 0.920790 -0.538586
O17   O     O_3   0.425260 0.949200 0.997610 -0.364296
V3    V     V_3+5 0.702060 0.009430 0.000450 1.561891
O18   O     O_R   0.090530 0.929220 0.078150 -0.514247
C55   C     C_R   0.922077 0.913555 0.104353 0.847964
O19   O     O_R   0.084440 0.906220 0.913360 -0.523974
C56   C     C_R   0.916502 0.877460 0.890295 0.740061
V4    V     V_3+5 0.201450 0.990520 0.999290 1.595194
O20   O     O_3   0.928380 0.050800 0.002390 -0.364901
O21   O     O_3   0.696282 0.743955 0.549794 -0.536877
C57   C     C_3   0.497020 0.749106 0.536643 -0.129831
H13   H     H_    0.456852 0.808724 0.518060 0.107213
H14   H     H_    0.412031 0.740253 0.588266 0.105800
H15   H     H_    0.459641 0.698305 0.488432 0.161842
Cl1   Cl    Cl    0.047692 0.442020 0.818516 -0.595454
Cl2   Cl    Cl    0.127319 0.758151 0.970919 -0.636710
Cl3   Cl    Cl    0.341585 0.555098 0.164569 -0.623556
O22   O     O_3   0.438492 0.255622 0.465411 -0.576549
C58   C     C_3   0.637628 0.255637 0.482412 -0.170499
H16   H     H_    0.722110 0.280367 0.437798 0.145141
H17   H     H_    0.692808 0.192537 0.487959 0.155361
H18   H     H_    0.663183 0.296474 0.538949 0.146546
O23   O     O_3   0.408668 0.090660 0.473792 -0.556860
C59   C     C_3   0.257163 0.035777 0.482062 -0.221751
H19   H     H_    0.288432 0.971725 0.450185 0.167560
H20   H     H_    0.116485 0.059305 0.463807 0.188687
H21   H     H_    0.244782 0.031204 0.544088 0.142379
Cl4   Cl    Cl    0.917123 0.020638 0.264762 -0.666326
Cl5   Cl    Cl    0.302983 0.240265 0.014616 -0.646425
O24   O     O_3   0.640757 0.231606 0.889680 -0.514199
C60   C     C_3   0.822466 0.211297 0.855127 -0.042413
H22   H     H_    0.935262 0.227626 0.899890 0.206398
H23   H     H_    0.851191 0.247649 0.808394 0.142840
H24   H     H_    0.836042 0.143164 0.832031 0.105338
Cl6   Cl    Cl    0.597349 0.401394 0.883343 -0.477750
Cl7   Cl    Cl    0.519361 0.507030 0.754384 -0.610786
Cl8   Cl    Cl    0.834881 0.926182 0.400855 -0.667129
Cl9   Cl    Cl    0.825262 0.491148 0.231234 -0.653142
O25   O     O_3   0.890100 0.765224 0.429405 -0.504698
C61   C     C_3   0.087121 0.770656 0.448059 -0.135321
H25   H     H_    0.165485 0.809830 0.412606 0.135649
H26   H     H_    0.154587 0.707681 0.441068 0.097612
H27   H     H_    0.100979 0.800737 0.509634 0.143461
O26   O     O_3   0.138006 0.580194 0.950669 -0.493366
C62   C     C_3   0.985792 0.557142 0.995197 0.021366
H28   H     H_    0.913198 0.499960 0.965233 0.205055
H29   H     H_    0.878170 0.608597 0.009974 0.097130
H30   H     H_    0.046201 0.542233 0.049484 0.187784
O27   O     O_3   0.756819 0.033105 0.681835 -0.568638
C63   C     C_3   0.763074 0.058337 0.609218 -0.228196
H31   H     H_    0.624999 0.044239 0.578191 0.210865
H32   H     H_    0.887109 0.029616 0.573907 0.155654
H33   H     H_    0.781490 0.127108 0.618749 0.150330

loop_
_geom_bond_atom_site_label_1
_geom_bond_atom_site_label_2
_ccdc_geom_bond_type
O18   C55   A    
C26   C27   A    
O21   C57   S    
O18   V4    S    
C6    C9    A    
C43   C53   S    
C27   C28   A    
C4    C6    S    
O2    C1    A    
C21   C22   A    
C12   H1    S    
C1    O6    A    
C62   H28   S    
C57   H14   S    
C60   H22   S    
O17   V4    S    
C40   H8    S    
O17   V3    S    
O22   C58   S    
C22   C23   A    
C23   C24   A    
C14   Cl8   S    
O5    C3    A    
C16   C17   A    
O12   C53   A    
C61   H26   S    
O23   C59   S    
O11   C54   A    
V2    O10   S    
C5    C55   S    
C23   C28   A    
C39   C40   A    
C50   O24   S    
C58   H18   S    
C43   C50   A    
C9    O25   S    
C27   O26   S    
O13   C56   A    
C29   C30   A    
O8    V2    S    
C7    C8    A    
O27   C63   S    
C44   C46   A    
C63   H33   S    
C33   C35   A    
C59   H19   S    
C48   C52   A    
C49   C50   A    
O1    V2    S    
O16   V4    S    
O19   V4    S    
O7    V1    S    
C34   C38   A    
O14   V3    S    
C53   O16   A    
C25   H5    S    
O12   V3    S    
C45   C46   A    
O1    C2    A    
O9    C4    A    
C15   H3    S    
C59   H20   S    
C58   H16   S    
O14   C54   A    
C31   H6    S    
C37   C42   A    
C22   C25   A    
C29   O22   S    
C5    C12   A    
C32   H7    S    
C17   H4    S    
C61   H25   S    
C44   C47   A    
C41   Cl3   S    
C51   H10   S    
O19   C56   A    
V4    O20   S    
O4    C2    A    
C47   C48   A    
C61   H27   S    
C57   H15   S    
C13   C14   A    
C36   C37   A    
C15   C20   A    
C35   C54   S    
C7    C11   A    
C15   C16   A    
C2    C44   S    
C30   C31   A    
C11   C12   A    
C30   O23   S    
C33   C34   A    
C57   H13   S    
C3    C21   S    
C58   H17   S    
C7    H2    S    
C8    Cl9   S    
O3    C4    A    
C31   C32   A    
O6    V2    S    
O9    V2    S    
C1    C38   S    
C10   C14   A    
C63   H31   S    
C59   H21   S    
C52   H11   S    
O26   C62   S    
O2    V1    S    
C62   H30   S    
C25   C26   A    
C35   C36   A    
O24   C60   S    
C36   C39   A    
C37   C38   A    
O11   V4    S    
C20   C24   A    
C17   C18   A    
C51   C52   A    
C62   H29   S    
O5    V1    S    
C60   H23   S    
O8    C3    A    
C47   H12   S    
C24   C56   S    
C42   H9    S    
C5    C13   A    
C18   C19   A    
C41   C42   A    
O4    V1    S    
O3    V1    S    
V3    O20   S    
C28   Cl2   S    
O15   V3    S    
C40   C41   A    
C45   C49   A    
O15   C55   A    
C29   C34   A    
C19   C21   A    
C19   C20   A    
C18   O21   S    
C6    C8    A    
C43   C51   A    
O7    V2    S    
C48   C49   A    
C60   H24   S    
C13   Cl4   S    
C16   O27   S    
C32   C33   A    
C45   Cl6   S    
C63   H32   S    
C10   C11   A    
C26   Cl1   S    
V1    O10   S    
O25   C61   S    
C9    C10   A    
C46   Cl7   S    
C39   Cl5   S    
O13   V3    S    
