data_mof_unit_61593.cif
_audit_creation_date              2012-12-10T21:18:26-0500
_audit_creation_method            fapswitch 2.2
_symmetry_space_group_name_H-M    P1
_symmetry_Int_Tables_number       1
_space_group_crystal_system       triclinic
_cell_length_a                    17.492162
_cell_length_b                    16.818839
_cell_length_c                    10.511576
_cell_angle_alpha                 90.356214
_cell_angle_beta                  92.076493
_cell_angle_gamma                 90.07235
_cell_volume                      3090.38927581

loop_
_atom_site_label
_atom_site_type_symbol
_atom_type_description
_atom_site_fract_x
_atom_site_fract_y
_atom_site_fract_z
_atom_type_partial_charge
Br1   Br    Br    0.347667 0.408991 0.883493 -0.354767
Br2   Br    Br    0.652540 0.590820 0.116696 -0.372558
Br3   Br    Br    0.728811 0.677909 0.463522 -0.308762
Br4   Br    Br    0.267550 0.324750 0.540467 -0.306057
Br5   Br    Br    0.266788 0.675107 0.536061 -0.348434
Br6   Br    Br    0.721668 0.322637 0.428106 -0.357505
C1    C     C_R   0.352550 0.499941 0.504187 0.936882
C2    C     C_R   0.545205 0.251798 0.586815 0.418021
C3    C     C_R   0.543825 0.749035 0.588768 0.398338
C4    C     C_R   0.455078 0.251024 0.412774 0.399131
C5    C     C_R   0.500000 0.875978 0.500158 -0.225896
C6    C     C_R   0.499918 0.124113 0.500104 -0.224941
C7    C     C_1   0.499978 0.963665 0.500188 0.254637
C8    C     C_1   0.499930 0.036429 0.500148 0.254551
C9    C     C_R   0.499880 0.499691 0.257041 0.951255
C10   C     C_R   0.500171 0.500301 0.742976 0.959761
C11   C     C_3   0.436850 0.537297 0.039274 -0.217192
C12   C     C_R   0.647101 0.499986 0.491654 0.940497
C13   C     C_3   0.563289 0.462646 0.960790 -0.216125
C14   C     C_3   0.499763 0.576176 0.960553 -0.137416
C15   C     C_3   0.500380 0.423777 0.039533 -0.142304
C16   C     C_3   0.437800 0.462544 0.954154 0.306736
C17   C     C_3   0.562349 0.537401 0.045926 0.309258
C18   C     C_3   0.500073 0.500930 0.877584 -0.144985
C19   C     C_3   0.500063 0.499028 0.122474 -0.141178
C20   C     C_R   0.847250 0.570808 0.421622 -0.147840
C21   C     C_R   0.149862 0.426990 0.454219 -0.155489
C22   C     C_R   0.149536 0.570547 0.452369 -0.154981
C23   C     C_1   0.964551 0.498121 0.399112 0.037098
C24   C     C_R   0.844666 0.427650 0.408401 -0.151282
C25   C     C_R   0.770232 0.572446 0.448888 0.295395
C26   C     C_R   0.226979 0.426678 0.490400 0.298088
C27   C     C_R   0.226650 0.572080 0.488540 0.280012
C28   C     C_R   0.767511 0.426876 0.435136 0.271605
C29   C     C_R   0.729055 0.499741 0.461230 -0.224096
C30   C     C_R   0.268186 0.499619 0.498103 -0.223207
C31   C     C_R   0.884049 0.498977 0.403730 0.013610
C32   C     C_R   0.112406 0.498431 0.431242 0.010875
C33   C     C_1   0.032472 0.497995 0.407729 0.041130
C34   C     C_R   0.455274 0.832590 0.410201 0.271784
C35   C     C_R   0.545865 0.167529 0.588374 0.270838
C36   C     C_R   0.544629 0.833333 0.590183 0.271035
C37   C     C_R   0.454175 0.166734 0.411536 0.271447
C38   C     C_R   0.455973 0.748311 0.411586 0.417066
Cl1   Cl    Cl    0.398046 0.883702 0.295400 -0.366768
Cl2   Cl    Cl    0.604610 0.116501 0.701141 -0.366793
Cl3   Cl    Cl    0.601742 0.885395 0.705235 -0.360752
Cl4   Cl    Cl    0.395608 0.114694 0.298506 -0.362828
Cl5   Cl    Cl    0.398515 0.696761 0.297568 -0.456148
Cl6   Cl    Cl    0.604459 0.303653 0.697935 -0.449693
Cl7   Cl    Cl    0.600471 0.698351 0.703724 -0.431766
Cl8   Cl    Cl    0.397450 0.301907 0.299392 -0.441660
H1    H     H_    0.385180 0.566905 0.075369 0.222401
H2    H     H_    0.614936 0.433000 0.924683 0.223308
H3    H     H_    0.499832 0.638240 0.925236 0.231599
H4    H     H_    0.500263 0.361737 0.074976 0.231272
H5    H     H_    0.879185 0.625990 0.417325 0.191680
H6    H     H_    0.118421 0.371413 0.447788 0.193383
H7    H     H_    0.117832 0.625772 0.444511 0.193907
H8    H     H_    0.874559 0.372076 0.393710 0.193677
N1    N     N_R   0.500000 0.707230 0.500000 -0.201693
N2    N     N_R   0.500000 0.292770 0.500000 -0.200644
O1    O     O_R   0.389110 0.566570 0.499990 -0.566746
O2    O     O_R   0.610890 0.433430 0.500010 -0.563176
O3    O     O_R   0.610890 0.566570 0.500010 -0.555421
O4    O     O_R   0.389110 0.433430 0.499990 -0.556048
O5    O     O_R   0.499980 0.566530 0.313950 -0.569282
O6    O     O_R   0.500020 0.433470 0.686050 -0.569041
O7    O     O_R   0.500020 0.566530 0.686050 -0.594945
O8    O     O_R   0.499980 0.433470 0.313950 -0.596000
Zn1   Zn    Zn3+2 0.500000 0.588860 0.500000 1.101695
Zn2   Zn    Zn3+2 0.500000 0.411140 0.500000 1.102445

loop_
_geom_bond_atom_site_label_1
_geom_bond_atom_site_label_2
_ccdc_geom_bond_type
C38   Cl5   S    
C11   H1    S    
C1    C30   S    
C3    Cl7   S    
C4    Cl8   S    
C27   C30   A    
C12   O3    A    
C3    C36   A    
C3    N1    A    
C26   C30   A    
C16   C18   S    
C13   C15   S    
C6    C37   A    
C32   C33   S    
C9    C19   S    
C21   C32   A    
C11   C14   S    
C5    C36   A    
C28   C29   A    
O7    Zn1   S    
O4    Zn2   S    
C14   C18   S    
Br5   C27   S    
C35   Cl2   S    
C10   O6    A    
C37   Cl4   S    
N1    Zn1   S    
C17   C19   S    
C4    C37   A    
Br1   C16   S    
C10   C18   S    
C15   C16   S    
C4    N2    A    
C14   H3    S    
C34   Cl1   S    
C24   C28   A    
C2    C35   A    
O3    Zn1   S    
Br6   C28   S    
C24   C31   A    
C24   H8    S    
C13   C17   S    
C6    C35   A    
C14   C17   S    
C22   C32   A    
O6    Zn2   S    
C9    O5    A    
C23   C33   T    
N2    Zn2   S    
Br3   C25   S    
C1    O1    A    
Br4   C26   S    
C13   H2    S    
O1    Zn1   S    
C22   C27   A    
C25   C29   A    
C2    Cl6   S    
C12   C29   S    
C22   H7    S    
C9    O8    A    
C15   C19   S    
C21   C26   A    
C20   C25   A    
C10   O7    A    
C6    C8    S    
C21   H6    S    
C15   H4    S    
C20   C31   A    
C38   N1    A    
C11   C16   S    
C11   C19   S    
C13   C18   S    
C1    O4    A    
C5    C7    S    
C12   O2    A    
O5    Zn1   S    
C36   Cl3   S    
O2    Zn2   S    
C5    C34   A    
C20   H5    S    
C34   C38   A    
C23   C31   S    
Br2   C17   S    
O8    Zn2   S    
C7    C8    T    
C2    N2    A    
