data_mof_unit_61773.cif
_audit_creation_date              2012-12-10T18:47:58-0500
_audit_creation_method            fapswitch 2.2
_symmetry_space_group_name_H-M    P1
_symmetry_Int_Tables_number       1
_space_group_crystal_system       triclinic
_cell_length_a                    19.419129
_cell_length_b                    18.172697
_cell_length_c                    14.355161
_cell_angle_alpha                 89.990865
_cell_angle_beta                  90.837311
_cell_angle_gamma                 89.998223
_cell_volume                      5065.36584477

loop_
_atom_site_label
_atom_site_type_symbol
_atom_type_description
_atom_site_fract_x
_atom_site_fract_y
_atom_site_fract_z
_atom_type_partial_charge
C1    C     C_R   0.367817 0.499995 0.499742 0.787756
C2    C     C_R   0.632175 0.499994 0.500262 0.787560
C3    C     C_R   0.963703 0.567150 0.499679 0.069765
C4    C     C_R   0.036235 0.432759 0.497947 0.069624
C5    C     C_R   0.036286 0.567130 0.502011 0.069731
C6    C     C_R   0.963721 0.432742 0.500761 0.069596
C7    C     C_R   0.072517 0.499943 0.499865 0.029411
C8    C     C_R   0.927453 0.499946 0.500323 0.029408
C9    C     C_R   0.456244 0.721479 0.441469 0.330419
C10   C     C_R   0.543825 0.278536 0.558451 0.323577
C11   C     C_R   0.543779 0.721452 0.558514 0.330448
C12   C     C_R   0.456190 0.278549 0.441534 0.323473
C13   C     C_R   0.455690 0.799118 0.440824 -0.241077
C14   C     C_R   0.544422 0.200899 0.559058 -0.242215
C15   C     C_R   0.544371 0.799091 0.559131 -0.241083
C16   C     C_R   0.455626 0.200910 0.440893 -0.242260
C17   C     C_R   0.500036 0.838787 0.499975 0.205823
C18   C     C_R   0.500029 0.161222 0.499973 0.207418
C19   C     C_R   0.477275 0.961078 0.578429 0.304432
C20   C     C_R   0.522783 0.038932 0.421513 0.304158
C21   C     C_R   0.522806 0.961098 0.421523 0.304417
C22   C     C_R   0.477290 0.038911 0.578436 0.304134
C23   C     C_R   0.500035 0.078573 0.499974 -0.194918
C24   C     C_R   0.500042 0.921436 0.499976 -0.194987
C25   C     C_R   0.499881 0.500005 0.330887 0.813111
C26   C     C_R   0.500120 0.499995 0.669112 0.813115
C27   C     C_1   0.499870 0.500012 0.228628 -0.181465
C28   C     C_1   0.500132 0.499987 0.771372 -0.181363
C29   C     C_1   0.499898 0.500011 0.143272 0.008462
C30   C     C_1   0.500104 0.499988 0.856728 0.008483
C31   C     C_1   0.499968 0.500003 0.042680 0.023080
C32   C     C_1   0.500036 0.499995 0.957320 0.023079
C33   C     C_R   0.742377 0.458286 0.434391 -0.195606
C34   C     C_R   0.256156 0.542462 0.434549 -0.194384
C35   C     C_R   0.257607 0.457378 0.564761 -0.195667
C36   C     C_R   0.743793 0.541570 0.566422 -0.194787
C37   C     C_R   0.814092 0.459372 0.433272 -0.115112
C38   C     C_R   0.184408 0.541393 0.433461 -0.119682
C39   C     C_R   0.185893 0.458444 0.565947 -0.115346
C40   C     C_R   0.815541 0.540481 0.567544 -0.119528
C41   C     C_R   0.851268 0.499935 0.500394 0.188557
C42   C     C_R   0.148701 0.499930 0.499746 0.188676
C43   C     C_R   0.707127 0.499962 0.500365 -0.022472
C44   C     C_R   0.292850 0.499959 0.499678 -0.023012
Cu1   Cu    Cu3+1 0.500000 0.573360 0.500000 0.996768
Cu2   Cu    Cu3+1 0.500000 0.426640 0.500000 0.992333
H1    H     H_    0.714353 0.426302 0.382652 0.146510
H2    H     H_    0.283035 0.575074 0.383411 0.144176
H3    H     H_    0.285634 0.424687 0.615791 0.147109
H4    H     H_    0.716886 0.573488 0.618216 0.143777
H5    H     H_    0.840604 0.428650 0.380009 0.146534
H6    H     H_    0.156726 0.572835 0.380889 0.144469
H7    H     H_    0.159395 0.426987 0.618550 0.146602
H8    H     H_    0.843207 0.571193 0.620810 0.144494
H9    H     H_    0.420637 0.828213 0.394383 0.167005
H10   H     H_    0.579528 0.171813 0.605437 0.167363
H11   H     H_    0.579439 0.828165 0.605559 0.167006
H12   H     H_    0.420532 0.171831 0.394505 0.167372
N1    N     N_R   0.500000 0.683620 0.500000 -0.151228
N2    N     N_R   0.500000 0.316380 0.500000 -0.152086
O1    O     O_R   0.400190 0.561980 0.499990 -0.553832
O2    O     O_R   0.599810 0.438020 0.500010 -0.556407
O3    O     O_R   0.599810 0.561980 0.500010 -0.553853
O4    O     O_R   0.400190 0.438020 0.499990 -0.556524
O5    O     O_R   0.500000 0.561970 0.376060 -0.539835
O6    O     O_R   0.500000 0.438030 0.623940 -0.541270
O7    O     O_R   0.500000 0.561970 0.623940 -0.539716
O8    O     O_R   0.500000 0.438030 0.376060 -0.541268
N3    N     N_3   0.926242 0.635202 0.494720 -0.592674
H13   H     H_    0.939076 0.667187 0.552913 0.221408
H14   H     H_    0.940585 0.663411 0.434600 0.232494
N4    N     N_3   0.073547 0.364789 0.491216 -0.594501
H15   H     H_    0.062180 0.331983 0.548769 0.222904
H16   H     H_    0.057675 0.337435 0.430579 0.230894
N5    N     N_3   0.073766 0.635097 0.508482 -0.592576
H17   H     H_    0.060939 0.667902 0.451011 0.221456
H18   H     H_    0.059431 0.662452 0.569222 0.232470
N6    N     N_3   0.926392 0.364689 0.505988 -0.594431
H19   H     H_    0.937753 0.332697 0.447718 0.222888
H20   H     H_    0.942259 0.336486 0.566009 0.230937
N7    N     N_3   0.410661 0.682177 0.380321 -0.532982
H21   H     H_    0.421210 0.698063 0.311995 0.212876
H22   H     H_    0.360274 0.698360 0.394831 0.197888
N8    N     N_3   0.589427 0.317862 0.619563 -0.523321
H23   H     H_    0.579096 0.301790 0.687887 0.213028
H24   H     H_    0.639844 0.301961 0.604758 0.205687
N9    N     N_3   0.589369 0.682121 0.619644 -0.532850
H25   H     H_    0.579021 0.698187 0.687958 0.212714
H26   H     H_    0.639771 0.698093 0.604873 0.198351
N10   N     N_3   0.410576 0.317888 0.380438 -0.523267
H27   H     H_    0.421011 0.301956 0.312100 0.213113
H28   H     H_    0.360172 0.301854 0.395105 0.205562
Cl1   Cl    Cl    0.446244 0.913199 0.676481 -0.505466
Cl2   Cl    Cl    0.553726 0.086816 0.323416 -0.507655
Cl3   Cl    Cl    0.553836 0.913245 0.323469 -0.505484
Cl4   Cl    Cl    0.446333 0.086769 0.676527 -0.507712

loop_
_geom_bond_atom_site_label_1
_geom_bond_atom_site_label_2
_ccdc_geom_bond_type
C14   H10   S    
N9    H25   S    
C27   C29   T    
C14   C18   A    
C10   N2    A    
N7    H21   S    
Cu1   Cu2   S    
Cu2   O8    S    
Cu2   O2    S    
C26   O7    A    
C12   N10   S    
C3    N3    S    
N8    H24   S    
Cu2   O6    S    
C37   H5    S    
N6    H20   S    
C6    N6    S    
C38   H6    S    
C7    C42   S    
Cu1   O1    S    
N3    H14   S    
C9    C13   A    
C11   C15   A    
C12   C16   A    
C11   N9    S    
C35   H3    S    
C19   Cl1   S    
C15   H11   S    
C25   O8    A    
C4    C7    A    
C11   N1    A    
N7    H22   S    
C39   C42   A    
C17   C24   S    
C18   C23   S    
C26   O6    A    
C36   C40   A    
C19   C22   A    
C34   C44   A    
N8    H23   S    
C4    C6    A    
C3    C8    A    
C10   C14   A    
C5    C7    A    
N6    H19   S    
C6    C8    A    
C21   Cl3   S    
Cu1   O3    S    
C33   C37   A    
Cu2   O4    S    
C9    N1    A    
C33   C43   A    
C5    N5    S    
C35   C39   A    
N5    H17   S    
Cu1   O7    S    
C1    C44   S    
N10   H28   S    
C31   C32   T    
C20   C23   A    
C2    C43   S    
C25   O5    A    
C16   H12   S    
C8    C41   S    
C35   C44   A    
N5    H18   S    
N4    H16   S    
C40   C41   A    
C40   H8    S    
N9    H26   S    
Cu1   O5    S    
C33   H1    S    
C34   H2    S    
C1    O4    A    
C4    N4    S    
C36   H4    S    
C2    O3    A    
C15   C17   A    
C20   Cl2   S    
Cu1   N1    S    
Cu2   N2    S    
C34   C38   A    
C22   Cl4   S    
N4    H15   S    
C3    C5    A    
C1    O1    A    
C38   C42   A    
C25   C27   S    
C26   C28   S    
C13   C17   A    
C28   C30   T    
C19   C24   A    
C29   C31   S    
C30   C32   S    
N10   H27   S    
C39   H7    S    
C10   N8    S    
C37   C41   A    
N3    H13   S    
C12   N2    A    
C20   C21   A    
C16   C18   A    
C21   C24   A    
C22   C23   A    
C36   C43   A    
C2    O2    A    
C9    N7    S    
C13   H9    S    
