data_mof_unit_15516.cif
_audit_creation_date              2012-12-10T17:22:43-0500
_audit_creation_method            fapswitch 2.2
_symmetry_space_group_name_H-M    P1
_symmetry_Int_Tables_number       1
_space_group_crystal_system       triclinic
_cell_length_a                    10.625739
_cell_length_b                    10.804021
_cell_length_c                    9.609679
_cell_angle_alpha                 89.934735
_cell_angle_beta                  89.50667
_cell_angle_gamma                 93.295213
_cell_volume                      1101.33164269

loop_
_atom_site_label
_atom_site_type_symbol
_atom_type_description
_atom_site_fract_x
_atom_site_fract_y
_atom_site_fract_z
_atom_type_partial_charge
C1    C     C_R   0.495340 0.262429 0.500271 0.858530
C2    C     C_3   0.960967 0.501098 0.366825 -0.193681
C3    C     C_3   0.035670 0.398864 0.435876 -0.270669
C4    C     C_3   0.122468 0.501348 0.501770 -0.029365
C5    C     C_R   0.309701 0.116807 0.669798 -0.164046
C6    C     C_R   0.225426 0.046688 0.754349 -0.157789
C7    C     C_R   0.222864 0.918186 0.750723 -0.140829
C8    C     C_R   0.306849 0.858960 0.665234 -0.148804
C9    C     C_R   0.398741 0.928057 0.585022 0.100245
C10   C     C_R   0.399655 0.059005 0.586016 0.030659
C11   C     C_R   0.488460 0.127778 0.500733 -0.213122
C12   C     C_R   0.259435 0.499976 0.500588 0.770693
C13   C     C_R   0.574084 0.067730 0.415467 0.499511
C14   C     C_R   0.570159 0.938921 0.413513 -0.308587
C15   C     C_R   0.486900 0.869851 0.500022 -0.159682
C16   C     C_R   0.669353 0.664634 0.142397 -0.147900
C17   C     C_R   0.752362 0.745242 0.069502 -0.209085
C18   C     C_R   0.752205 0.745669 0.926000 -0.200513
C19   C     C_R   0.669024 0.665499 0.854470 -0.124679
C20   C     C_R   0.583133 0.581217 0.924411 0.214276
C21   C     C_R   0.583220 0.580988 0.073938 0.212586
C22   C     C_R   0.420677 0.422944 0.074714 -0.035945
C23   C     C_R   0.495709 0.736838 0.499982 0.783295
C24   C     C_R   0.420671 0.423013 0.926906 -0.053603
C25   C     C_R   0.740528 0.502278 0.499374 0.816672
C26   C     C_3   0.039144 0.505453 0.633691 -0.208468
C27   C     C_3   0.951600 0.404977 0.566296 0.572249
C28   C     C_3   0.877522 0.504529 0.497964 -0.037387
C29   C     C_3   0.964253 0.606773 0.563114 -0.257656
C30   C     C_3   0.050099 0.603301 0.432070 -0.137071
Cu1   Cu    Cu3+1 0.499990 0.499990 0.640660 0.940224
Cu2   Cu    Cu3+1 0.500010 0.500010 0.359340 0.954287
H1    H     H_    0.154493 0.864088 0.813169 0.128519
H2    H     H_    0.297193 0.758980 0.661903 0.154975
H3    H     H_    0.634360 0.892222 0.346002 0.153320
H4    H     H_    0.355604 0.359722 0.130475 0.132224
H5    H     H_    0.676715 0.672092 0.252152 0.188021
H6    H     H_    0.817122 0.808075 0.125098 0.140262
H7    H     H_    0.816914 0.808808 0.869343 0.138608
H8    H     H_    0.676223 0.673926 0.744592 0.187620
H9    H     H_    0.355475 0.359969 0.872570 0.124133
H10   H     H_    0.073395 0.506396 0.742525 0.140325
H11   H     H_    0.931763 0.691698 0.613806 0.134211
H12   H     H_    0.094393 0.685232 0.376927 0.136571
H13   H     H_    0.926165 0.500501 0.258199 0.163753
H14   H     H_    0.067800 0.313881 0.385042 0.121510
H15   H     H_    0.301728 0.215935 0.670360 0.132101
N1    N     N_R   0.501210 0.501210 0.147910 -0.199038
N2    N     N_R   0.501250 0.501290 0.852040 -0.199529
O1    O     O_R   0.499990 0.319640 0.618810 -0.576666
O2    O     O_R   0.500000 0.319660 0.381240 -0.536743
O3    O     O_R   0.316850 0.499960 0.618770 -0.606329
O4    O     O_R   0.316860 0.499980 0.381190 -0.580868
O5    O     O_R   0.500000 0.680340 0.618760 -0.608932
O6    O     O_R   0.500010 0.680360 0.381190 -0.595390
O7    O     O_R   0.683140 0.500020 0.618810 -0.573556
O8    O     O_R   0.683150 0.500040 0.381230 -0.598807
O9    O     O_3   0.888402 0.304122 0.635471 -0.575784
C31   C     C_3   0.977706 0.224706 0.686169 -0.378606
H16   H     H_    0.042603 0.273368 0.761050 0.158924
H17   H     H_    0.031652 0.184043 0.599499 0.157619
H18   H     H_    0.927098 0.146987 0.742615 0.196803
O10   O     O_3   0.657382 0.137010 0.329914 -0.552736
C32   C     C_3   0.783001 0.112542 0.361965 -0.296393
H19   H     H_    0.810624 0.026514 0.309528 0.140472
H20   H     H_    0.798902 0.106360 0.476166 0.180924
H21   H     H_    0.845910 0.190137 0.321595 0.194611
H22   H     H_    0.160185 0.092051 0.821418 0.119519

loop_
_geom_bond_atom_site_label_1
_geom_bond_atom_site_label_2
_ccdc_geom_bond_type
C6    H22   S    
C22   N1    A    
C18   H7    S    
Cu2   O2    S    
C23   O6    A    
C20   N2    A    
Cu1   O7    S    
C4    C12   S    
C11   C13   A    
C9    C10   A    
Cu1   O3    S    
C3    H14   S    
C4    C26   S    
C12   O4    A    
C13   O10   S    
C25   O7    A    
C16   H5    S    
C2    C30   S    
C21   N1    A    
C10   C11   A    
C32   H19   S    
C3    C27   S    
C17   C18   A    
C9    C15   A    
C31   H16   S    
Cu1   O5    S    
C8    H2    S    
C13   C14   A    
C29   H11   S    
C25   C28   S    
C24   H9    S    
Cu2   N1    S    
C30   H12   S    
C26   C27   S    
C29   C30   S    
C25   O8    A    
Cu2   O8    S    
Cu1   N2    S    
C24   N2    A    
C15   C23   S    
C28   C29   S    
C12   O3    A    
C2    C3    S    
C6    C7    A    
C17   H6    S    
C2    H13   S    
C5    C6    A    
C22   C24   A    
C31   H17   S    
C19   H8    S    
C7    H1    S    
Cu1   O1    S    
C5    C10   A    
O10   C32   S    
C5    H15   S    
C32   H21   S    
Cu2   O4    S    
C7    C8    A    
C22   H4    S    
C20   C21   A    
C26   H10   S    
C23   O5    A    
C18   C19   A    
C1    O1    A    
C14   H3    S    
C14   C15   A    
C16   C17   A    
C31   H18   S    
C2    C28   S    
C1    O2    A    
Cu2   O6    S    
C26   C29   S    
O9    C31   S    
C16   C21   A    
Cu1   Cu2   S    
C4    C30   S    
C3    C4    S    
C19   C20   A    
C32   H20   S    
C8    C9    A    
C27   C28   S    
C27   O9    S    
C1    C11   S    
