data_mof_unit_23910.cif
_audit_creation_date              2013-03-05T15:43:30-0500
_audit_creation_method            fapswitch 2.2
_symmetry_space_group_name_H-M    P1
_symmetry_Int_Tables_number       1
_space_group_crystal_system       triclinic
_cell_length_a                    10.738603
_cell_length_b                    10.882187
_cell_length_c                    9.725882
_cell_angle_alpha                 89.543844
_cell_angle_beta                  89.511264
_cell_angle_gamma                 89.357759
_cell_volume                      1136.4136596

loop_
_atom_site_label
_atom_site_type_symbol
_atom_site_description
_atom_site_fract_x
_atom_site_fract_y
_atom_site_fract_z
_atom_type_partial_charge
O1    O     O_R   0.500020 0.321960 0.617040 -0.589928
O2    O     O_R   0.499980 0.321920 0.382900 -0.552877
C1    C     C_R   0.493234 0.265180 0.500318 0.879709
O3    O     O_R   0.317710 0.500000 0.617070 -0.589187
O4    O     O_R   0.317670 0.499960 0.382930 -0.603140
C2    C     C_R   0.260013 0.500765 0.500163 0.748888
Cu1   Cu    Cu3+1 0.500030 0.500020 0.638630 0.911966
Cu2   Cu    Cu3+1 0.499970 0.499980 0.361370 0.921650
O5    O     O_R   0.500020 0.678080 0.617100 -0.561867
O6    O     O_R   0.499980 0.678040 0.382960 -0.586810
O7    O     O_R   0.682330 0.500040 0.617070 -0.594764
O8    O     O_R   0.682290 0.500000 0.382930 -0.605772
C3    C     C_R   0.494828 0.734463 0.499567 0.844018
C4    C     C_R   0.740037 0.498187 0.499476 0.769105
C5    C     C_3   0.075531 0.386878 0.583006 -0.406038
H1    H     H_    0.110431 0.390611 0.690398 0.152116
H2    H     H_    0.115890 0.301434 0.538121 0.151120
C6    C     C_3   0.931059 0.386122 0.586313 -0.121579
H3    H     H_    0.903908 0.405598 0.694977 0.123885
H4    H     H_    0.101457 0.625931 0.673979 0.167053
H5    H     H_    0.888794 0.626919 0.671009 0.168099
C7    C     C_3   0.069006 0.618212 0.566038 -0.392796
C8    C     C_3   0.072791 0.491134 0.350228 -0.379046
C9    C     C_3   0.122160 0.499440 0.499925 0.152464
H6    H     H_    0.107260 0.570083 0.287609 0.168326
H7    H     H_    0.107956 0.405615 0.300547 0.151661
C10   C     C_3   0.878207 0.496572 0.498751 0.127167
C11   C     C_3   0.925151 0.617454 0.564053 -0.414481
C12   C     C_3   0.930178 0.493014 0.349304 -0.383412
H8    H     H_    0.894507 0.412970 0.292380 0.167425
H9    H     H_    0.897780 0.576091 0.291627 0.158774
H10   H     H_    0.103243 0.699877 0.508566 0.167072
H11   H     H_    0.890261 0.698528 0.504707 0.154515
C13   C     C_2   0.416267 0.933238 0.414829 0.164500
C14   C     C_2   0.492237 0.867015 0.497150 -0.380047
H12   H     H_    0.562496 0.911473 0.557765 0.121372
C15   C     C_2   0.444850 0.064016 0.393314 0.004706
C16   C     C_2   0.465558 0.134366 0.504371 -0.409004
H13   H     H_    0.452993 0.094579 0.606439 0.146037
C17   C     C_2   0.400023 0.490193 0.923435 -0.094801
N1    N     N_2   0.498630 0.498660 0.846910 -0.283743
H14   H     H_    0.308887 0.500326 0.877549 0.143057
H15   H     H_    0.576157 0.454590 0.885312 0.206169
C18   C     C_2   0.406984 0.464808 0.075794 0.031580
N2    N     N_2   0.498590 0.498630 0.153040 -0.153502
H16   H     H_    0.328091 0.420009 0.124068 0.113240
C19   C     C_3   0.303231 0.880087 0.344226 -0.379787
C20   C     C_3   0.183196 0.936282 0.402484 -0.873073
H17   H     H_    0.176668 0.918476 0.514981 0.256960
H18   H     H_    0.179432 0.037001 0.384076 0.250896
H19   H     H_    0.101914 0.894132 0.352008 0.231706
H20   H     H_    0.308603 0.898795 0.231993 0.198388
H21   H     H_    0.296426 0.779195 0.357914 0.205294
C21   C     C_R   0.464889 0.105364 0.249306 0.187103
C22   C     C_R   0.582672 0.089729 0.187686 -0.136161
C23   C     C_R   0.600574 0.118076 0.048482 -0.168754
C24   C     C_R   0.500504 0.160039 0.969393 -0.110608
C25   C     C_R   0.382659 0.174604 0.029727 -0.157627
C26   C     C_R   0.364972 0.148821 0.169666 -0.146549
H22   H     H_    0.659901 0.053790 0.246927 0.126912
H23   H     H_    0.691613 0.105954 0.001483 0.119961
H24   H     H_    0.514231 0.180998 0.861418 0.140372
H25   H     H_    0.305199 0.207040 0.968282 0.119551
H26   H     H_    0.273397 0.161231 0.215039 0.107057
C27   C     C_3   0.579575 0.599625 0.106813 -0.071492
C28   C     C_3   0.507473 0.718209 0.070351 -0.823432
H27   H     H_    0.482651 0.720633 0.959971 0.249459
H28   H     H_    0.420972 0.725937 0.132780 0.251118
H29   H     H_    0.566027 0.799583 0.090384 0.218022
H30   H     H_    0.642194 0.623646 0.191368 0.204106
H31   H     H_    0.646953 0.573500 0.025849 0.104195
C29   C     C_R   0.879617 0.259734 0.552064 0.114463
C30   C     C_R   0.799947 0.200719 0.646947 -0.149385
C31   C     C_R   0.761748 0.080162 0.625112 -0.141637
C32   C     C_R   0.801312 0.017271 0.507728 -0.115675
C33   C     C_R   0.877964 0.075241 0.411391 -0.159604
C34   C     C_R   0.917572 0.195193 0.433369 -0.135849
H32   H     H_    0.769062 0.246997 0.739549 0.113585
H33   H     H_    0.702253 0.035298 0.700067 0.117577
H34   H     H_    0.773426 0.923345 0.491388 0.108407
H35   H     H_    0.908486 0.026393 0.320442 0.118613
H36   H     H_    0.981924 0.234602 0.360035 0.113007

loop_
_geom_bond_atom_site_label_1
_geom_bond_atom_site_label_2
_geom_bond_distance
_ccdc_geom_bond_type
C5    C6    1.551601 S    
C28   H28   1.108165 S    
C22   C23   1.398338 A    
C10   C12   1.553125 S    
C13   C15   1.472177 S    
C30   C31   1.397317 A    
C14   H12   1.082205 S    
Cu1   Cu2   2.696607 S    
Cu1   O7    1.967067 S    
C26   H26   1.081937 S    
C29   C34   1.410866 A    
C7    H10   1.110541 S    
C8    C12   1.531472 S    
C15   C16   1.350293 D    
C3    C14   1.442416 S    
O4    C2    1.292853 A    
O7    C4    1.296340 A    
C28   H29   1.111223 S    
C5    H1    1.113880 S    
C23   C24   1.397323 A    
C5    H2    1.112283 S    
C13   C14   1.347103 D    
C8    H7    1.112798 S    
O5    C3    1.294389 A    
Cu2   N2    2.026545 S    
C20   H19   1.110472 S    
C1    C16   1.457641 S    
C8    C9    1.557349 S    
C4    C10   1.483619 S    
C32   H34   1.081633 S    
C19   H21   1.108060 S    
C17   H14   1.083228 S    
C28   H27   1.108385 S    
C7    C11   1.545198 S    
C22   H22   1.081675 S    
N1    H15   1.027670 S    
O3    Cu1   1.970839 S    
C18   H16   1.083833 S    
C21   C26   1.404224 A    
C6    C29   1.528156 S    
C31   C32   1.396406 A    
C24   H24   1.082068 S    
C33   C34   1.396051 A    
O3    C2    1.299434 A    
C6    H3    1.115256 S    
C25   C26   1.399256 A    
C27   H31   1.101659 S    
C30   H32   1.083119 S    
O1    C1    1.299782 A    
C32   C33   1.393728 A    
C12   H8    1.109400 S    
C19   C20   1.527077 S    
Cu2   O8    1.970841 S    
C2    C9    1.480602 S    
C5    C9    1.547632 S    
C15   C21   1.482382 S    
C17   N1    1.292805 D    
H5    C11   1.113112 S    
O8    C4    1.296592 A    
C11   H11   1.113593 S    
C31   H33   1.082296 S    
N2    C27   1.474196 S    
C7    C9    1.549281 S    
C18   N2    1.301050 D    
C25   H25   1.082672 S    
Cu1   O5    1.947306 S    
C21   C22   1.404193 A    
C20   H17   1.111393 S    
O1    Cu1   1.950689 S    
O2    Cu2   1.947306 S    
C6    C10   1.571201 S    
H4    C7    1.113064 S    
C29   C30   1.409040 A    
O6    C3    1.294417 A    
C33   H35   1.082165 S    
O4    Cu2   1.967068 S    
C19   H20   1.109928 S    
O2    C1    1.295768 A    
C12   H9    1.114112 S    
C24   C25   1.398298 A    
C16   H13   1.087806 S    
C34   H36   1.078673 S    
C20   H18   1.109506 S    
Cu1   N1    2.025573 S    
C17   C18   1.507517 S    
C8    H6    1.114001 S    
Cu2   O6    1.950689 S    
C27   C28   1.538022 S    
C10   C11   1.556147 S    
C23   H23   1.082848 S    
C13   C19   1.521769 S    
C27   H30   1.101638 S    
