data_mof_unit_47783.cif
_audit_creation_date              2012-12-10T17:42:45-0500
_audit_creation_method            fapswitch 2.2
_symmetry_space_group_name_H-M    P1
_symmetry_Int_Tables_number       1
_space_group_crystal_system       triclinic
_cell_length_a                    9.927441
_cell_length_b                    10.760287
_cell_length_c                    13.495461
_cell_angle_alpha                 93.117661
_cell_angle_beta                  74.020873
_cell_angle_gamma                 90.490864
_cell_volume                      1383.8306587

loop_
_atom_site_label
_atom_site_type_symbol
_atom_type_description
_atom_site_fract_x
_atom_site_fract_y
_atom_site_fract_z
_atom_type_partial_charge
C1    C     C_R   0.502023 0.738554 0.495659 0.878713
C2    C     C_R   0.384934 0.492443 0.814945 -0.152918
C3    C     C_R   0.385152 0.856343 0.348760 -0.162605
C4    C     C_R   0.424975 0.493923 0.701671 0.860096
C5    C     C_R   0.316014 0.914875 0.287615 -0.138472
C6    C     C_R   0.307503 0.043467 0.292532 -0.160601
C7    C     C_R   0.371320 0.114133 0.356414 -0.176186
C8    C     C_R   0.437811 0.057024 0.422594 0.094245
C9    C     C_R   0.441958 0.926265 0.419723 0.103256
C10   C     C_R   0.507141 0.869071 0.485783 -0.124740
C11   C     C_R   0.580085 0.936261 0.544339 -0.261171
C12   C     C_R   0.460562 0.513898 0.971133 0.073432
C13   C     C_R   0.583892 0.063191 0.544021 -0.009871
C14   C     C_R   0.505835 0.125418 0.488218 -0.171636
C15   C     C_R   0.811983 0.671039 0.631023 -0.150060
C16   C     C_R   0.501256 0.259664 0.496348 0.860173
C17   C     C_R   0.859199 0.758487 0.693263 -0.186057
C18   C     C_R   0.999400 0.760981 0.691322 -0.197415
C19   C     C_R   0.092971 0.675550 0.627590 -0.174848
C20   C     C_R   0.049416 0.586913 0.562389 0.167192
C21   C     C_R   0.904567 0.585626 0.563439 0.165820
C22   C     C_R   0.949947 0.416558 0.440594 -0.093574
C23   C     C_R   0.488465 0.473770 0.866624 0.038049
C24   C     C_R   0.092560 0.415957 0.441364 -0.139534
C25   C     C_R   0.573686 0.490036 0.298781 0.855255
C26   C     C_R   0.783917 0.407454 0.029472 -0.229710
C27   C     C_R   0.610211 0.464474 0.187737 -0.095033
C28   C     C_R   0.245644 0.519396 0.874575 0.102582
C29   C     C_R   0.224724 0.572983 0.974391 -0.196518
C30   C     C_R   0.335497 0.579830 0.018842 -0.202919
C31   C     C_1   0.672527 0.124057 0.600628 0.192110
C32   C     C_3   0.358939 0.406710 0.180646 -0.370226
C33   C     C_3   0.312482 0.302413 0.113658 -0.345399
C34   C     C_R   0.552095 0.476188 0.027390 0.064134
C35   C     C_3   0.154447 0.281752 0.150647 -0.928662
C36   C     C_3   0.119625 0.485166 0.836371 -0.383047
C37   C     C_3   0.120857 0.344962 0.802137 -0.321676
C38   C     C_3   0.065777 0.320791 0.707530 -0.811352
C39   C     C_R   0.686085 0.428251 0.974876 0.152881
C40   C     C_R   0.713543 0.389489 0.871762 -0.250637
C41   C     C_R   0.613189 0.406039 0.819792 -0.191599
C42   C     C_R   0.506082 0.460147 0.133652 0.027143
C43   C     C_R   0.749840 0.437599 0.134337 -0.226927
H1    H     H_    0.829808 0.430113 0.174513 0.167721
H2    H     H_    0.196620 0.676959 0.635929 0.203566
H3    H     H_    0.806265 0.335660 0.834759 0.175251
H4    H     H_    0.162641 0.346134 0.394682 0.136278
H5    H     H_    0.885468 0.368072 0.992432 0.141994
H6    H     H_    0.318699 0.626440 0.094282 0.136876
H7    H     H_    0.122231 0.606640 0.018872 0.141867
H8    H     H_    0.631857 0.359269 0.744965 0.202133
H9    H     H_    0.633983 0.888960 0.591628 0.157151
H10   H     H_    0.121339 0.263131 0.233837 0.249790
H11   H     H_    0.097654 0.365443 0.138212 0.268301
H12   H     H_    0.395671 0.756425 0.337561 0.164077
H13   H     H_    0.125267 0.201048 0.106177 0.252718
H14   H     H_    0.336603 0.321010 0.031151 0.244326
H15   H     H_    0.369359 0.215064 0.117065 0.210229
H16   H     H_    0.356792 0.359657 0.251014 0.203995
H17   H     H_    0.279669 0.482257 0.204742 0.207619
H18   H     H_    0.983848 0.389153 0.705368 0.250231
H19   H     H_    0.152210 0.327037 0.636133 0.299451
H20   H     H_    0.022130 0.225427 0.707553 0.238761
H21   H     H_    0.227724 0.303722 0.783284 0.214974
H22   H     H_    0.057462 0.291869 0.866547 0.190033
H23   H     H_    0.270900 0.860355 0.235074 0.131397
H24   H     H_    0.021362 0.507718 0.897103 0.171551
H25   H     H_    0.114862 0.545287 0.774406 0.227890
H26   H     H_    0.253816 0.088024 0.244695 0.151008
H27   H     H_    0.370247 0.212800 0.350920 0.144521
H28   H     H_    0.913881 0.348223 0.392058 0.144441
H29   H     H_    0.702200 0.671562 0.639001 0.200378
H30   H     H_    0.786079 0.823461 0.744402 0.147936
H31   H     H_    0.035382 0.827362 0.741485 0.149810
N1    N     N_R   0.856860 0.501200 0.500990 -0.125583
N2    N     N_R   0.142450 0.501280 0.501020 -0.131108
N3    N     N_1   0.746311 0.170021 0.644755 -0.243112
O1    O     O_R   0.385310 0.683220 0.500000 -0.642588
O2    O     O_R   0.614640 0.683250 0.500010 -0.630683
O3    O     O_R   0.328400 0.499950 0.653610 -0.625631
O4    O     O_R   0.557730 0.499970 0.653620 -0.643687
O5    O     O_R   0.385360 0.316750 0.499990 -0.642076
O6    O     O_R   0.614690 0.316780 0.500000 -0.610143
O7    O     O_R   0.442270 0.500030 0.346380 -0.646298
O8    O     O_R   0.671600 0.500050 0.346390 -0.614014
Zn1   Zn    Zn3+2 0.346880 0.499980 0.499990 0.906030
Zn2   Zn    Zn3+2 0.653120 0.500020 0.500010 0.940935

loop_
_geom_bond_atom_site_label_1
_geom_bond_atom_site_label_2
_ccdc_geom_bond_type
C6    H26   S    
O6    Zn2   S    
C33   H15   S    
C35   H10   S    
C19   C20   A    
C34   C42   A    
C7    H27   S    
O2    Zn2   S    
C36   H24   S    
C7    C8    A    
C40   H3    S    
C15   H29   S    
C12   C23   A    
C37   C38   S    
C36   C37   S    
O7    Zn1   S    
C4    O3    A    
C5    C6    A    
C26   C39   A    
C20   N2    A    
C18   C19   A    
O3    Zn1   S    
C11   H9    S    
C3    H12   S    
C4    O4    A    
C8    C9    A    
C37   H22   S    
C25   O7    A    
C8    C14   A    
C9    C10   A    
C26   H5    S    
C38   H18   S    
O1    Zn1   S    
C18   H31   S    
C13   C14   A    
C35   H11   S    
C17   H30   S    
C1    O1    A    
C22   N1    A    
C16   O5    A    
C26   C43   A    
C31   N3    T    
C29   H7    S    
O8    Zn2   S    
C34   C39   A    
C39   C40   A    
C24   N2    A    
O5    Zn1   S    
C16   O6    A    
C19   H2    S    
C2    C4    S    
C43   H1    S    
C29   C30   A    
C3    C9    A    
C25   O8    A    
C17   C18   A    
O4    Zn2   S    
N1    Zn2   S    
C40   C41   A    
C30   H6    S    
C1    O2    A    
C14   C16   S    
C32   H17   S    
C12   C34   A    
N2    Zn1   S    
C22   H28   S    
C37   H21   S    
C38   H20   S    
C15   C17   A    
C28   C29   A    
C33   H14   S    
C12   C30   A    
C35   H13   S    
C24   H4    S    
C13   C31   S    
C1    C10   S    
C5    H23   S    
C3    C5    A    
C36   H25   S    
C6    C7    A    
C25   C27   S    
C21   N1    A    
C23   C41   A    
C32   C33   S    
C11   C13   A    
C27   C42   A    
C33   C35   S    
C22   C24   A    
C10   C11   A    
C27   C43   A    
C15   C21   A    
C20   C21   A    
C28   C36   S    
C2    C23   A    
C32   C42   S    
C2    C28   A    
C32   H16   S    
C41   H8    S    
C38   H19   S    
