data_mof_unit_23071.cif
_audit_creation_date              2012-12-11T16:45:54-0500
_audit_creation_method            fapswitch 2.2
_symmetry_space_group_name_H-M    P1
_symmetry_Int_Tables_number       1
_space_group_crystal_system       monoclinic
_cell_length_a                    19.81213
_cell_length_b                    17.06778
_cell_length_c                    15.302717
_cell_angle_alpha                 90.0
_cell_angle_beta                  52.568922
_cell_angle_gamma                 90.0
_cell_volume                      4109.07222041

loop_
_atom_site_label
_atom_site_type_symbol
_atom_type_description
_atom_site_fract_x
_atom_site_fract_y
_atom_site_fract_z
_atom_type_partial_charge
C1    C     C_R   0.874013 0.693955 0.993186 -0.126871
C2    C     C_R   0.210796 0.347462 0.977529 0.150770
C3    C     C_R   0.289204 0.847462 0.022471 0.150770
C4    C     C_R   0.710796 0.847462 0.977529 0.150770
C5    C     C_R   0.807962 0.638849 0.324991 0.071708
C6    C     C_R   0.192038 0.638849 0.675009 0.071708
C7    C     C_R   0.307962 0.138849 0.324991 0.071708
C8    C     C_R   0.692038 0.138849 0.675009 0.071708
C9    C     C_R   0.700938 0.634375 0.529133 0.148360
C10   C     C_R   0.299062 0.634375 0.470867 0.148361
C11   C     C_R   0.200938 0.134375 0.529133 0.148360
C12   C     C_R   0.125987 0.693955 0.006813 -0.126871
C13   C     C_R   0.799062 0.134375 0.470867 0.148361
C14   C     C_R   0.727960 0.664536 0.427307 0.045075
C15   C     C_R   0.272040 0.664536 0.572693 0.045075
C16   C     C_R   0.227960 0.164536 0.427307 0.045075
C17   C     C_R   0.772040 0.164536 0.572693 0.045075
C18   C     C_R   0.183833 0.229465 0.428114 -0.196805
C19   C     C_R   0.816167 0.229465 0.571886 -0.196805
C20   C     C_R   0.683833 0.729465 0.428114 -0.196805
C21   C     C_R   0.316167 0.729465 0.571886 -0.196806
C22   C     C_R   0.132772 0.274636 0.523738 -0.186148
C23   C     C_R   0.374013 0.193955 0.993186 -0.126871
C24   C     C_R   0.867228 0.274636 0.476262 -0.186148
C25   C     C_R   0.632772 0.774636 0.523738 -0.186148
C26   C     C_R   0.367228 0.774636 0.476262 -0.186147
C27   C     C_R   0.125621 0.254279 0.618311 0.017316
C28   C     C_R   0.874379 0.254279 0.381689 0.017316
C29   C     C_R   0.625621 0.754279 0.618311 0.017316
C30   C     C_R   0.374379 0.754279 0.381689 0.017316
C31   C     C_R   0.649278 0.678105 0.624105 0.107555
C32   C     C_R   0.350722 0.678105 0.375894 0.107555
C33   C     C_R   0.149278 0.178105 0.624105 0.107555
C34   C     C_R   0.625987 0.193955 0.006814 -0.126871
C35   C     C_R   0.850721 0.178105 0.375894 0.107555
C36   C     C_3   0.691981 0.647134 0.671115 -0.166487
C37   C     C_3   0.308020 0.647134 0.328885 -0.166488
C38   C     C_3   0.191981 0.147134 0.671115 -0.166487
C39   C     C_3   0.808019 0.147134 0.328885 -0.166487
C40   C     C_R   0.900699 0.301402 0.206854 -0.160766
C41   C     C_R   0.099301 0.301402 0.793145 -0.160766
C42   C     C_R   0.400699 0.801402 0.206854 -0.160766
C43   C     C_R   0.599301 0.801402 0.793145 -0.160766
C44   C     C_3   0.749146 0.600196 0.566611 -0.588233
C45   C     C_R   0.890136 0.314579 0.303242 0.077504
C46   C     C_3   0.250854 0.600196 0.433389 -0.588233
C47   C     C_3   0.249146 0.100196 0.566611 -0.588234
C48   C     C_3   0.750854 0.100196 0.433389 -0.588233
C49   C     C_2   0.694458 0.236052 0.093268 -0.201007
C50   C     C_2   0.305542 0.236052 0.906732 -0.201007
C51   C     C_2   0.194459 0.736051 0.093267 -0.201006
C52   C     C_2   0.805542 0.736052 0.906732 -0.201005
C53   C     C_2   0.215565 0.807136 0.046213 -0.195190
C54   C     C_2   0.784435 0.807136 0.953788 -0.195187
C55   C     C_2   0.715565 0.307136 0.046212 -0.195189
C56   C     C_R   0.109864 0.314579 0.696758 0.077503
C57   C     C_2   0.284435 0.307136 0.953788 -0.195189
C58   C     C_R   0.830182 0.410663 0.951055 -0.152601
C59   C     C_R   0.169818 0.410663 0.048945 -0.152601
C60   C     C_R   0.330182 0.910663 0.951055 -0.152601
C61   C     C_R   0.669818 0.910663 0.048946 -0.152602
C62   C     C_R   0.858246 0.578246 0.315420 -0.141428
C63   C     C_R   0.141754 0.578246 0.684580 -0.141429
C64   C     C_R   0.358246 0.078246 0.315420 -0.141428
C65   C     C_R   0.641754 0.078246 0.684580 -0.141428
C66   C     C_R   0.840627 0.320235 0.048401 -0.111035
C67   C     C_R   0.390136 0.814579 0.303242 0.077504
C68   C     C_R   0.159373 0.320235 0.951599 -0.111036
C69   C     C_R   0.340627 0.820235 0.048401 -0.111035
C70   C     C_R   0.659373 0.820235 0.951599 -0.111036
C71   C     C_R   0.850423 0.672201 0.220954 -0.123127
C72   C     C_R   0.149577 0.672201 0.779046 -0.123126
C73   C     C_R   0.350423 0.172201 0.220954 -0.123126
C74   C     C_R   0.649577 0.172201 0.779046 -0.123126
C75   C     C_R   0.907069 0.393262 0.304067 -0.135104
C76   C     C_R   0.092931 0.393262 0.695933 -0.135103
C77   C     C_R   0.407069 0.893262 0.304067 -0.135103
C78   C     C_R   0.609864 0.814579 0.696758 0.077503
C79   C     C_R   0.592931 0.893262 0.695933 -0.135103
C80   C     C_R   0.864414 0.602263 0.897602 -0.157743
C81   C     C_R   0.135586 0.602263 0.102397 -0.157743
C82   C     C_R   0.364414 0.102263 0.897602 -0.157743
C83   C     C_R   0.635586 0.102263 0.102397 -0.157743
C84   C     C_R   0.845569 0.679440 0.932341 0.157439
C85   C     C_R   0.154432 0.679439 0.067658 0.157439
C86   C     C_R   0.345569 0.179440 0.932341 0.157439
C87   C     C_R   0.654431 0.179440 0.067658 0.157439
C88   C     C_1   0.634855 0.597426 0.768400 0.083504
C89   C     C_R   0.789204 0.347462 0.022471 0.150770
C90   C     C_1   0.365145 0.597426 0.231600 0.083505
C91   C     C_1   0.134855 0.097426 0.768400 0.083504
C92   C     C_1   0.865145 0.097426 0.231600 0.083504
H1    H     H_    0.881016 0.749986 0.019564 0.085542
H2    H     H_    0.273136 0.691935 0.317645 0.132399
H3    H     H_    0.226864 0.191935 0.682355 0.132399
H4    H     H_    0.773136 0.191935 0.317645 0.132399
H5    H     H_    0.816141 0.620788 0.517315 0.190888
H6    H     H_    0.183859 0.620788 0.482685 0.190888
H7    H     H_    0.316141 0.120788 0.517315 0.190889
H8    H     H_    0.683859 0.120788 0.482685 0.190888
H9    H     H_    0.740988 0.535527 0.577601 0.197876
H10   H     H_    0.259012 0.535527 0.422399 0.197876
H11   H     H_    0.240988 0.035527 0.577601 0.197876
H12   H     H_    0.118985 0.749986 0.980435 0.085542
H13   H     H_    0.759011 0.035527 0.422399 0.197876
H14   H     H_    0.718477 0.213938 0.135949 0.125806
H15   H     H_    0.281523 0.213937 0.864051 0.125806
H16   H     H_    0.218479 0.713936 0.135945 0.125805
H17   H     H_    0.781524 0.713938 0.864050 0.125805
H18   H     H_    0.189746 0.830071 0.006139 0.125915
H19   H     H_    0.810252 0.830070 0.993865 0.125913
H20   H     H_    0.689748 0.330070 0.006136 0.125914
H21   H     H_    0.310252 0.330070 0.993864 0.125914
H22   H     H_    0.909074 0.245562 0.168735 0.104764
H23   H     H_    0.381016 0.249986 0.019564 0.085542
H24   H     H_    0.090926 0.245562 0.831264 0.104764
H25   H     H_    0.409074 0.745562 0.168735 0.104764
H26   H     H_    0.590926 0.745562 0.831264 0.104764
H27   H     H_    0.809067 0.444044 0.911717 0.100178
H28   H     H_    0.190933 0.444044 0.088283 0.100178
H29   H     H_    0.309067 0.944044 0.911718 0.100178
H30   H     H_    0.690932 0.944044 0.088283 0.100178
H31   H     H_    0.843979 0.536583 0.377175 0.113432
H32   H     H_    0.156020 0.536583 0.622825 0.113432
H33   H     H_    0.343979 0.036583 0.377175 0.113432
H34   H     H_    0.618984 0.249986 0.980436 0.085542
H35   H     H_    0.656020 0.036583 0.622825 0.113432
H36   H     H_    0.831226 0.270802 0.098608 0.089129
H37   H     H_    0.168774 0.270802 0.901392 0.089130
H38   H     H_    0.331226 0.770802 0.098609 0.089129
H39   H     H_    0.668774 0.770802 0.901392 0.089129
H40   H     H_    0.829694 0.720835 0.197696 0.092639
H41   H     H_    0.170306 0.720836 0.802303 0.092639
H42   H     H_    0.329694 0.220835 0.197696 0.092639
H43   H     H_    0.670306 0.220835 0.802304 0.092639
H44   H     H_    0.917878 0.421013 0.358036 0.083551
H45   H     H_    0.109076 0.329917 0.518009 0.121805
H46   H     H_    0.082123 0.421013 0.641964 0.083551
H47   H     H_    0.417878 0.921013 0.358036 0.083551
H48   H     H_    0.582122 0.921013 0.641964 0.083551
H49   H     H_    0.860134 0.575092 0.837266 0.093840
H50   H     H_    0.139866 0.575091 0.162733 0.093840
H51   H     H_    0.360134 0.075092 0.837266 0.093840
H52   H     H_    0.639866 0.075092 0.162734 0.093840
H53   H     H_    0.197043 0.251567 0.352889 0.126303
H54   H     H_    0.802957 0.251567 0.647111 0.126303
H55   H     H_    0.697043 0.751567 0.352889 0.126303
H56   H     H_    0.890924 0.329917 0.481991 0.121805
H57   H     H_    0.302957 0.751567 0.647111 0.126303
H58   H     H_    0.609076 0.829916 0.518009 0.121805
H59   H     H_    0.390924 0.829916 0.481991 0.121805
H60   H     H_    0.726864 0.691935 0.682355 0.132399
N1    N     N_R   0.908660 0.628630 0.995840 -0.044126
N2    N     N_R   0.096530 0.421430 0.063580 -0.040784
N3    N     N_R   0.403470 0.921430 0.936420 -0.040784
N4    N     N_R   0.596530 0.921430 0.063580 -0.040784
N5    N     N_R   0.927500 0.575670 0.211370 -0.040990
N6    N     N_R   0.072500 0.575670 0.788630 -0.040990
N7    N     N_R   0.427500 0.075670 0.211370 -0.040990
N8    N     N_R   0.572500 0.075670 0.788630 -0.040990
N9    N     N_R   0.908660 0.365680 0.995820 -0.045323
N10   N     N_R   0.091340 0.365680 0.004180 -0.045323
N11   N     N_R   0.408660 0.865680 0.995820 -0.045323
N12   N     N_R   0.091340 0.628630 0.004160 -0.044126
N13   N     N_R   0.591340 0.865680 0.004180 -0.045323
N14   N     N_R   0.922310 0.631420 0.151980 -0.040931
N15   N     N_R   0.077690 0.631420 0.848020 -0.040931
N16   N     N_R   0.422310 0.131420 0.151980 -0.040931
N17   N     N_R   0.577690 0.131420 0.848020 -0.040931
N18   N     N_R   0.927500 0.426330 0.211360 -0.038803
N19   N     N_R   0.072500 0.426330 0.788640 -0.038803
N20   N     N_R   0.427500 0.926330 0.211360 -0.038803
N21   N     N_R   0.572500 0.926330 0.788640 -0.038803
N22   N     N_R   0.903470 0.570760 0.936440 -0.039357
N23   N     N_R   0.408660 0.128630 0.995840 -0.044126
N24   N     N_R   0.096530 0.570760 0.063560 -0.039357
N25   N     N_R   0.403470 0.070760 0.936440 -0.039357
N26   N     N_R   0.596530 0.070760 0.063560 -0.039357
N27   N     N_1   0.589949 0.558453 0.844948 -0.095466
N28   N     N_1   0.410051 0.558453 0.155052 -0.095466
N29   N     N_1   0.089949 0.058453 0.844948 -0.095466
N30   N     N_1   0.910051 0.058453 0.155052 -0.095466
N31   N     N_R   0.591340 0.128630 0.004160 -0.044126
N32   N     N_R   0.922310 0.368460 0.151950 -0.038082
N33   N     N_R   0.077690 0.368460 0.848050 -0.038082
N34   N     N_R   0.422310 0.868460 0.151950 -0.038082
N35   N     N_R   0.577690 0.868460 0.848050 -0.038082
N36   N     N_R   0.903470 0.421430 0.936420 -0.040784
Ni1   Ni    Ni4+2 0.000000 0.630300 0.000000 0.211670
Ni2   Ni    Ni4+2 0.500000 0.130300 0.000000 0.211669
Ni3   Ni    Ni4+2 1.000000 0.369700 0.000000 0.214652
Ni4   Ni    Ni4+2 0.500000 0.869700 0.000000 0.214652
Ni5   Ni    Ni4+2 0.988090 0.497570 0.863760 0.209946
Ni6   Ni    Ni4+2 0.011910 0.497570 0.136240 0.209946
Ni7   Ni    Ni4+2 0.488090 0.997570 0.863760 0.209946
Ni8   Ni    Ni4+2 0.511910 0.997570 0.136240 0.209946

loop_
_geom_bond_atom_site_label_1
_geom_bond_atom_site_label_2
_ccdc_geom_bond_type
C53   H18   S    
C83   C87   A    
C21   C26   A    
N31   Ni2   S    
C59   H28   S    
C56   C76   A    
C55   H20   S    
C3    C53   S    
C79   N21   A    
C11   C47   S    
C67   C77   A    
N19   Ni5   S    
C18   H53   S    
C51   C85   S    
N23   Ni2   S    
C4    C70   A    
C63   H32   S    
C2    C57   S    
C47   H7    S    
N23   N25   A    
N1    Ni1   S    
C71   H40   S    
C27   C33   A    
C43   C78   A    
C6    C72   A    
C46   H10   S    
C22   H45   S    
C37   C90   S    
C65   H35   S    
C26   H59   S    
N4    Ni8   S    
N32   Ni3   S    
C12   H12   S    
N9    N36   A    
C2    C68   A    
C10   C15   A    
C65   N8    A    
C83   H52   S    
C23   N23   A    
C20   C25   A    
N17   Ni2   S    
N13   Ni4   S    
N16   Ni2   S    
N7    N16   A    
C82   N25   A    
C44   H5    S    
C52   C84   S    
C49   C87   S    
C62   H31   S    
C74   N17   A    
C6    C15   S    
C77   H47   S    
C68   H37   S    
C40   H22   S    
C29   C78   S    
C28   C35   A    
N20   N34   A    
C51   H16   S    
C23   C86   A    
C38   H3    S    
C10   C46   S    
N8    N17   A    
C38   C91   S    
N11   Ni4   S    
C45   C75   A    
C21   H57   S    
C30   C67   S    
C80   C84   A    
N18   N32   A    
C3    C60   A    
C42   N34   A    
C79   H48   S    
C46   H6    S    
C8    C65   A    
C18   C22   A    
C3    C69   A    
N21   N35   A    
N7    Ni8   S    
N9    Ni3   S    
C73   N16   A    
N15   Ni1   S    
N10   Ni3   S    
C59   N2    A    
C52   C54   D    
N6    N15   A    
N33   Ni3   S    
C66   C89   A    
C25   C29   A    
C40   C45   A    
C48   H8    S    
C90   N28   T    
C28   C45   S    
C62   N5    A    
N6    Ni5   S    
C47   H11   S    
N19   N33   A    
C58   N36   A    
N5    Ni6   S    
C19   H54   S    
C81   N24   A    
C24   C28   A    
C11   C33   A    
C7    C73   A    
C24   H56   S    
C70   N13   A    
N18   Ni6   S    
C9    C31   A    
C75   H44   S    
C69   H38   S    
C57   H21   S    
N3    N11   A    
C82   C86   A    
N26   Ni8   S    
C4    C61   A    
C71   N14   A    
C36   C88   S    
C66   N9    A    
C25   H58   S    
C1    C84   A    
C6    C63   A    
C76   N19   A    
C35   C39   S    
C9    C14   A    
C41   C56   A    
N21   Ni7   S    
C14   C20   A    
C12   N12   A    
C11   C16   A    
C48   H13   S    
N20   Ni8   S    
C43   N35   A    
C34   H34   S    
C74   H43   S    
C75   N18   A    
C8    C74   A    
N35   Ni4   S    
C20   H55   S    
C41   N33   A    
C34   N31   A    
C16   C18   A    
C32   C37   S    
C27   C56   S    
C1    N1    A    
C5    C14   S    
N8    Ni7   S    
N24   Ni6   S    
C12   C85   A    
C1    H1    S    
C81   H50   S    
N36   Ni5   S    
C64   H33   S    
C76   H46   S    
C37   H2    S    
C91   N29   T    
C50   H15   S    
C72   N15   A    
N4    N13   A    
C36   C44   S    
C41   H24   S    
N12   Ni1   S    
C61   N4    A    
C39   C92   S    
C88   N27   T    
C7    C16   S    
C9    C44   S    
C7    C64   A    
N25   Ni7   S    
C83   N26   A    
C4    C54   S    
C2    C59   A    
C50   C57   D    
C5    C62   A    
N2    N10   A    
C36   H60   S    
C69   N11   A    
C82   H51   S    
N5    N14   A    
C13   C48   S    
C44   H9    S    
C42   H25   S    
C13   C35   A    
C49   H14   S    
C68   N10   A    
C8    C17   S    
C38   C47   S    
C22   C27   A    
N14   Ni1   S    
N26   N31   A    
C19   C24   A    
C60   N3    A    
C80   N22   A    
C5    C71   A    
C49   C55   D    
C30   C32   A    
C78   C79   A    
C72   H41   S    
C42   C67   A    
C52   H17   S    
C77   N20   A    
N1    N22   A    
C64   N7    A    
C70   H39   S    
C17   C19   A    
C66   H36   S    
C54   H19   S    
N12   N24   A    
C34   C87   A    
N34   Ni4   S    
C60   H29   S    
C55   C89   S    
C58   C89   A    
C39   H4    S    
N3    Ni7   S    
C50   C86   S    
C43   H26   S    
C23   H23   S    
C13   C17   A    
N2    Ni6   S    
C10   C32   A    
C15   C21   A    
C58   H27   S    
C73   H42   S    
N22   Ni5   S    
C29   C31   A    
C80   H49   S    
C31   C36   S    
C61   H30   S    
C33   C38   S    
C92   N30   T    
C63   N6    A    
C51   C53   D    
C37   C46   S    
C81   C85   A    
C39   C48   S    
C40   N32   A    
C26   C30   A    
