data_mof_unit_39884.cif
_audit_creation_date              2013-03-05T16:30:55-0500
_audit_creation_method            fapswitch 2.2
_symmetry_space_group_name_H-M    P1
_symmetry_Int_Tables_number       1
_space_group_crystal_system       triclinic
_cell_length_a                    12.84164
_cell_length_b                    14.921355
_cell_length_c                    14.116564
_cell_angle_alpha                 89.414162
_cell_angle_beta                  96.863192
_cell_angle_gamma                 90.091725
_cell_volume                      2685.41741191

loop_
_atom_site_label
_atom_site_type_symbol
_atom_site_description
_atom_site_fract_x
_atom_site_fract_y
_atom_site_fract_z
_atom_type_partial_charge
O1    O     O_R   0.500010 0.369070 0.579480 -0.619449
O2    O     O_R   0.499990 0.630930 0.420520 -0.604591
O3    O     O_R   0.500010 0.369060 0.420520 -0.573727
O4    O     O_R   0.499990 0.630940 0.579480 -0.592368
C1    C     C_R   0.500363 0.327636 0.500470 0.929048
C2    C     C_R   0.500052 0.672460 0.499550 0.925121
O5    O     O_R   0.346360 0.499990 0.566340 -0.627115
O6    O     O_R   0.653640 0.500010 0.433660 -0.623794
O7    O     O_R   0.346360 0.499980 0.407390 -0.635841
O8    O     O_R   0.653640 0.500020 0.592610 -0.608586
C3    C     C_R   0.298155 0.500019 0.481554 0.864331
C4    C     C_R   0.701922 0.499785 0.518403 0.946211
Zn1   Zn    Zn3+2 0.500000 0.500010 0.606140 0.972378
Zn2   Zn    Zn3+2 0.500000 0.499990 0.393860 0.977143
C5    C     C_R   0.813795 0.496149 0.529412 -0.138526
C6    C     C_R   0.186342 0.501494 0.470004 -0.144553
C7    C     C_R   0.022518 0.546620 0.379497 0.512128
C8    C     C_R   0.977137 0.447133 0.617951 0.514800
C9    C     C_R   0.132005 0.540016 0.388443 -0.370380
C10   C     C_R   0.867923 0.455948 0.610236 -0.300832
C11   C     C_R   0.135216 0.468531 0.544042 -0.252413
C12   C     C_R   0.864910 0.527504 0.454581 -0.205348
C13   C     C_R   0.028003 0.476860 0.540017 0.005455
C14   C     C_R   0.971757 0.517211 0.457619 0.016245
H1    H     H_    0.820190 0.558875 0.393085 0.224040
H2    H     H_    0.180188 0.437949 0.605867 0.216826
H3    H     H_    0.823340 0.429670 0.664370 0.182188
H4    H     H_    0.176383 0.567563 0.334588 0.171264
C15   C     C_R   0.549235 0.088334 0.565183 -0.161256
C16   C     C_R   0.543259 0.911865 0.440012 -0.169834
H5    H     H_    0.602794 0.047758 0.612867 0.183593
H6    H     H_    0.592799 0.952361 0.399530 0.183579
C17   C     C_R   0.559428 0.180517 0.565338 0.100292
C18   C     C_R   0.553551 0.819686 0.441698 0.104505
C19   C     C_R   0.491401 0.231828 0.500790 -0.204568
C20   C     C_R   0.491027 0.768430 0.497277 -0.209891
C21   C     C_R   0.413108 0.190695 0.436791 0.466573
C22   C     C_R   0.417917 0.809844 0.550085 0.462211
C23   C     C_R   0.406276 0.098040 0.435988 -0.240775
C24   C     C_R   0.411156 0.902488 0.549517 -0.241066
H7    H     H_    0.349970 0.065185 0.384323 0.163564
H8    H     H_    0.359268 0.935492 0.593345 0.164206
C25   C     C_R   0.473556 0.047936 0.500463 0.016582
C26   C     C_R   0.473071 0.952417 0.494161 0.016511
C27   C     C_R   0.417044 0.457030 0.096144 0.394362
C28   C     C_R   0.465921 0.576274 0.890774 0.407097
C29   C     C_R   0.422257 0.456080 0.197392 -0.124514
C30   C     C_R   0.469819 0.575007 0.791400 -0.100737
H9    H     H_    0.364779 0.420074 0.232908 0.160707
H10   H     H_    0.448577 0.634527 0.749327 0.194715
N1    N     N_R   0.500000 0.499980 0.252470 -0.126241
N2    N     N_R   0.500000 0.500020 0.747530 -0.132306
C31   C     C_R   0.576720 0.543678 0.211759 -0.025415
C32   C     C_R   0.528774 0.424960 0.799932 -0.060464
H11   H     H_    0.638311 0.577342 0.256854 0.185308
H12   H     H_    0.552716 0.366068 0.764424 0.193609
C33   C     C_R   0.577724 0.544536 0.112368 0.094203
C34   C     C_R   0.528526 0.423140 0.899569 0.098775
C35   C     C_R   0.497573 0.500542 0.053217 0.024633
C36   C     C_R   0.497216 0.499746 0.946678 0.023793
I1    I     I_    0.704027 0.610353 0.056628 -0.335761
I2    I     I_    0.579903 0.304410 0.974656 -0.285275
O9    O     O_3   0.962609 0.587883 0.301673 -0.648249
C37   C     C_3   0.008079 0.585389 0.215107 0.101513
H13   H     H_    0.943921 0.574862 0.156241 0.190945
H14   H     H_    0.061752 0.527546 0.210517 0.118820
C38   C     C_3   0.060298 0.675581 0.197274 -0.314140
H15   H     H_    0.998515 0.725690 0.173054 0.242523
H16   H     H_    0.104342 0.700715 0.264334 0.219060
C39   C     C_3   0.135783 0.667894 0.122086 -1.001003
H17   H     H_    0.204544 0.626283 0.150019 0.254889
H18   H     H_    0.164227 0.735612 0.104374 0.276890
H19   H     H_    0.095990 0.637213 0.056142 0.268353
O10   O     O_3   0.036777 0.404829 0.695174 -0.661711
C40   C     C_3   0.998235 0.415364 0.784494 0.110901
H20   H     H_    0.051511 0.377086 0.838038 0.174103
H21   H     H_    0.920469 0.383385 0.786350 0.155983
C41   C     C_3   0.000350 0.513540 0.816765 -0.418622
H22   H     H_    0.082799 0.537631 0.825179 0.226389
H23   H     H_    0.954147 0.556699 0.762725 0.234964
C42   C     C_3   0.954669 0.523066 0.911159 -0.920596
H24   H     H_    0.872619 0.497982 0.904179 0.292815
H25   H     H_    0.954266 0.594803 0.931164 0.274982
H26   H     H_    0.002336 0.484969 0.968721 0.245389
I3    I     I_    0.686764 0.235550 0.656686 -0.384201
I4    I     I_    0.673266 0.765084 0.367484 -0.351337
O11   O     O_3   0.350017 0.239564 0.368511 -0.639714
C43   C     C_3   0.263753 0.275950 0.408732 0.090655
H27   H     H_    0.240020 0.338083 0.367889 0.177037
H28   H     H_    0.283098 0.295833 0.484837 0.112135
C44   C     C_3   0.170666 0.211022 0.398523 -0.392581
H29   H     H_    0.154132 0.189829 0.322985 0.240100
H30   H     H_    0.190166 0.150494 0.443608 0.217330
C45   C     C_3   0.072683 0.254664 0.429035 -0.878789
H31   H     H_    0.086733 0.274101 0.505257 0.278668
H32   H     H_    0.006388 0.206420 0.420109 0.272900
H33   H     H_    0.050739 0.315111 0.384480 0.262953
O12   O     O_3   0.360163 0.761140 0.609528 -0.651929
C46   C     C_3   0.268070 0.727214 0.556888 0.087793
H34   H     H_    0.248316 0.663480 0.591925 0.180911
H35   H     H_    0.278040 0.710593 0.481537 0.109840
C47   C     C_3   0.176559 0.792440 0.559694 -0.399122
H36   H     H_    0.170178 0.810880 0.634835 0.239231
H37   H     H_    0.191117 0.854403 0.519020 0.217163
C48   C     C_3   0.073188 0.750945 0.516521 -0.876147
H38   H     H_    0.077119 0.733787 0.440694 0.269657
H39   H     H_    0.008431 0.799591 0.519838 0.275673
H40   H     H_    0.055842 0.689489 0.556884 0.262038
O13   O     O_3   0.341101 0.410229 0.037421 -0.625798
C49   C     C_3   0.239623 0.415965 0.066803 0.043087
H41   H     H_    0.184142 0.433341 0.002794 0.160709
H42   H     H_    0.230672 0.469984 0.119095 0.110736
C50   C     C_3   0.207694 0.324646 0.104716 -0.305407
H43   H     H_    0.200786 0.275631 0.045518 0.237514
H44   H     H_    0.268757 0.299779 0.161191 0.249118
C51   C     C_3   0.103225 0.329853 0.145736 -0.961872
H45   H     H_    0.111270 0.372473 0.210209 0.255737
H46   H     H_    0.079142 0.261630 0.166510 0.277679
H47   H     H_    0.041252 0.357779 0.091913 0.267172
O14   O     O_3   0.441333 0.655122 0.933631 -0.613656
C52   C     C_3   0.332064 0.659312 0.938787 0.070070
H48   H     H_    0.320971 0.699639 0.002534 0.191371
H49   H     H_    0.295814 0.592527 0.950043 0.124141
C53   C     C_3   0.275480 0.705949 0.849755 -0.352334
H50   H     H_    0.322237 0.764518 0.829906 0.268551
H51   H     H_    0.267265 0.658439 0.789215 0.207841
C54   C     C_3   0.166643 0.738417 0.866608 -0.938242
H52   H     H_    0.119180 0.682025 0.889878 0.264503
H53   H     H_    0.125822 0.767272 0.799472 0.269882
H54   H     H_    0.173089 0.790982 0.922167 0.274367

loop_
_geom_bond_atom_site_label_1
_geom_bond_atom_site_label_2
_geom_bond_distance
_ccdc_geom_bond_type
C34   I2    2.120301 S    
C22   C24   1.385114 A    
O11   C43   1.415221 S    
C6    C11   1.384829 A    
C22   O12   1.384519 S    
C42   H24   1.111162 S    
C29   H9    1.080043 S    
O5    C3    1.280096 A    
C48   H39   1.110195 S    
O1    C1    1.281238 A    
C19   C21   1.412809 A    
C30   N2    1.363315 A    
C41   H23   1.109823 S    
C33   C35   1.411107 A    
C34   C36   1.411179 A    
C15   C17   1.381491 A    
C51   H45   1.110222 S    
C47   C48   1.526000 S    
C18   I4    2.128642 S    
C27   C29   1.422749 A    
O4    Zn1   1.985787 S    
C17   I3    2.127083 S    
C49   H41   1.110505 S    
C52   C53   1.535377 S    
C17   C19   1.406151 A    
C5    C12   1.385737 A    
C46   H34   1.110389 S    
C51   H46   1.110167 S    
C12   H1    1.084408 S    
C13   C14   1.422495 A    
C4    C5    1.427486 S    
C39   H17   1.110955 S    
C27   O13   1.393695 S    
C8    C10   1.399973 A    
C50   C51   1.525789 S    
C30   H10   1.080363 S    
C35   C36   1.503583 S    
C8    O10   1.400469 S    
C15   C25   1.392740 A    
C16   C26   1.392361 A    
O2    C2    1.281626 A    
C42   H25   1.110008 S    
C11   H2    1.084299 S    
N2    C32   1.362792 A    
C28   C30   1.409989 A    
C31   H11   1.080766 S    
C5    C10   1.393765 A    
C48   H40   1.110940 S    
C32   H12   1.079206 S    
C7    C14   1.412319 A    
O10   C40   1.418803 S    
C16   C18   1.381668 A    
C38   H15   1.112333 S    
C37   C38   1.534495 S    
C23   H7    1.084074 S    
C44   H29   1.111190 S    
O7    Zn2   2.004801 S    
C31   C33   1.404597 A    
C41   H22   1.110837 S    
C23   C25   1.390687 A    
C45   H33   1.111473 S    
C8    C13   1.412310 A    
N1    C31   1.360752 A    
C37   H14   1.112614 S    
C45   H32   1.110454 S    
C40   H20   1.111053 S    
C54   H53   1.109961 S    
C44   H30   1.111021 S    
Zn1   N2    1.995941 S    
O7    C3    1.278356 A    
C3    C6    1.425787 S    
Zn2   N1    1.995944 S    
C43   C44   1.531769 S    
O5    Zn1   1.985807 S    
O6    C4    1.279914 A    
C39   H19   1.109761 S    
C28   O14   1.382495 S    
C45   H31   1.110973 S    
C47   H37   1.110715 S    
C9    H4    1.080789 S    
C40   H21   1.109110 S    
C49   C50   1.531996 S    
C52   H48   1.110921 S    
O3    Zn2   1.985787 S    
O8    C4    1.279493 A    
C53   C54   1.526015 S    
O4    C2    1.281749 A    
C46   H35   1.116873 S    
C43   H28   1.116442 S    
C11   C13   1.376933 A    
C25   C26   1.428920 S    
C12   C14   1.376411 A    
O1    Zn1   1.993498 S    
C54   H52   1.108141 S    
C42   H26   1.109471 S    
O14   C52   1.415259 S    
C53   H51   1.111153 S    
C50   H43   1.111625 S    
C32   C34   1.406907 A    
C27   C35   1.413410 A    
O6    Zn2   1.985804 S    
C28   C36   1.412622 A    
C21   O11   1.384952 S    
O3    C1    1.280772 A    
O8    Zn1   2.004802 S    
C29   N1    1.361295 A    
C33   I1    2.120939 S    
C10   H3    1.078539 S    
C48   H38   1.110156 S    
C51   H47   1.111012 S    
C38   C39   1.525813 S    
C37   H13   1.110241 S    
C20   C22   1.413354 A    
C54   H54   1.110856 S    
C21   C23   1.385250 A    
O13   C49   1.416976 S    
C7    O9    1.401283 S    
C44   C45   1.526652 S    
C16   H6    1.083982 S    
C41   C42   1.526719 S    
C6    C9    1.392356 A    
C1    C19   1.434035 S    
C24   H8    1.084024 S    
C7    C9    1.400085 A    
C2    C20   1.436596 S    
C18   C20   1.407667 A    
C47   H36   1.111036 S    
O2    Zn2   1.993495 S    
C40   C41   1.537794 S    
C49   H42   1.113809 S    
C52   H49   1.117108 S    
O9    C37   1.416757 S    
C24   C26   1.390166 A    
C46   C47   1.531452 S    
C43   H27   1.110314 S    
C15   H5    1.084011 S    
O12   C46   1.415210 S    
C39   H18   1.110137 S    
C38   H16   1.111452 S    
C53   H50   1.111894 S    
C50   H44   1.110681 S    
