data_mof_unit_12038.cif
_audit_creation_date              2012-12-10T18:01:19-0500
_audit_creation_method            fapswitch 2.2
_symmetry_space_group_name_H-M    P1
_symmetry_Int_Tables_number       1
_space_group_crystal_system       triclinic
_cell_length_a                    18.260328
_cell_length_b                    18.374191
_cell_length_c                    25.94658
_cell_angle_alpha                 90.047758
_cell_angle_beta                  89.650199
_cell_angle_gamma                 90.05365
_cell_volume                      8705.3951614

loop_
_atom_site_label
_atom_site_type_symbol
_atom_type_description
_atom_site_fract_x
_atom_site_fract_y
_atom_site_fract_z
_atom_type_partial_charge
C1    C     C_R   0.860079 0.139925 0.750028 0.806877
C2    C     C_R   0.195753 0.196506 0.249061 -0.278153
C3    C     C_R   0.229600 0.676148 0.255657 -0.154217
C4    C     C_2   0.862452 0.061368 0.555056 0.642038
C5    C     C_2   0.112584 0.918354 0.550229 0.579106
C6    C     C_2   0.089535 0.891828 0.442230 0.530797
C7    C     C_2   0.877697 0.081281 0.447874 0.499892
C8    C     C_2   0.406782 0.394040 0.058017 0.535948
C9    C     C_2   0.624261 0.577924 0.051414 0.509807
C10   C     C_2   0.641331 0.552384 0.945059 0.645507
C11   C     C_2   0.383759 0.422073 0.950215 0.592141
C12   C     C_3   0.019723 0.211683 0.529767 0.188011
C13   C     C_R   0.196082 0.196332 0.751035 -0.227631
C14   C     C_3   0.014161 0.268402 0.572272 -0.808903
C15   C     C_3   0.138159 0.127042 0.588293 0.142282
C16   C     C_3   0.210134 0.103233 0.612269 -0.751910
C17   C     C_3   0.180679 0.108886 0.460300 0.209635
C18   C     C_3   0.233956 0.111921 0.414882 -0.879720
C19   C     C_3   0.054369 0.163041 0.397218 0.064401
C20   C     C_3   0.993621 0.187721 0.361719 -0.815310
C21   C     C_3   0.323493 0.614393 0.038722 0.216358
C22   C     C_3   0.270660 0.621302 0.084239 -0.885632
C23   C     C_3   0.450115 0.664177 0.102515 0.064341
C24   C     C_R   0.803807 0.196077 0.750452 -0.273783
C25   C     C_3   0.511047 0.688693 0.137913 -0.827430
C26   C     C_3   0.489145 0.711020 0.968252 0.182716
C27   C     C_3   0.508413 0.763648 0.925020 -0.754689
C28   C     C_3   0.368574 0.628791 0.909689 0.113431
C29   C     C_3   0.295355 0.605688 0.887018 -0.692171
C30   C     C_3   0.074382 0.706381 0.696775 0.071055
C31   C     C_3   0.013828 0.706493 0.656801 -0.723128
C32   C     C_3   0.903851 0.692163 0.816200 0.190836
C33   C     C_3   0.983854 0.676243 0.827494 -0.811264
C34   C     C_3   0.779000 0.848636 0.135683 0.118659
C35   C     C_R   0.302678 0.695339 0.748809 -0.230175
C36   C     C_3   0.810596 0.865000 0.082576 -0.721094
C37   C     C_3   0.086589 0.687738 0.195872 0.141041
C38   C     C_3   0.005820 0.668128 0.192458 -0.697032
C39   C     C_3   0.718683 0.345392 0.365918 0.107658
C40   C     C_3   0.691563 0.353271 0.421157 -0.694186
C41   C     C_3   0.413367 0.187624 0.303819 0.138846
C42   C     C_3   0.494086 0.167922 0.307109 -0.692528
C43   C     C_3   0.424889 0.204280 0.800467 0.105907
C44   C     C_3   0.484883 0.199346 0.840688 -0.683427
C45   C     C_3   0.596848 0.192184 0.682949 0.201307
C46   C     C_R   0.696086 0.695999 0.749847 -0.266823
C47   C     C_3   0.516968 0.176382 0.671028 -0.839300
C48   C     C_2   0.784964 0.180570 0.346651 0.498304
C49   C     C_2   0.291362 0.100945 0.227758 0.483988
C50   C     C_2   0.255745 0.132978 0.825993 0.460333
C51   C     C_2   0.705965 0.099676 0.764779 0.449116
C52   C     C_2   0.238699 0.631993 0.673524 0.448520
C53   C     C_2   0.793791 0.599749 0.734856 0.450847
C54   C     C_2   0.715993 0.680114 0.153196 0.494021
C55   C     C_2   0.208364 0.600821 0.271790 0.461691
C56   C     C_2   0.802080 0.192923 0.152030 0.529313
C57   C     C_R   0.698682 0.694249 0.250198 -0.276996
C58   C     C_2   0.098272 0.295156 0.259440 0.396129
C59   C     C_2   0.118703 0.274521 0.691000 0.378982
C60   C     C_2   0.902046 0.293336 0.740696 0.479879
C61   C     C_2   0.370954 0.760610 0.819127 0.417834
C62   C     C_2   0.597756 0.792671 0.761158 0.477874
C63   C     C_2   0.699453 0.691114 0.347975 0.519032
C64   C     C_2   0.401742 0.794930 0.239751 0.396821
C65   C     C_3   0.301485 0.924625 0.790842 0.073704
C66   C     C_3   0.341260 0.968617 0.831763 -0.654536
C67   C     C_3   0.697839 0.899103 0.678094 0.193960
C68   C     C_R   0.304195 0.696470 0.250847 -0.278707
C69   C     C_3   0.683975 0.977919 0.663346 -0.781872
C70   C     C_3   0.726592 0.875930 0.349841 0.204111
C71   C     C_3   0.747669 0.924418 0.394840 -0.787746
C72   C     C_3   0.308877 0.904261 0.315172 0.185265
C73   C     C_3   0.335306 0.981492 0.324431 -0.776990
C74   C     C_3   0.775096 0.377852 0.151654 0.204008
C75   C     C_3   0.755013 0.426365 0.106532 -0.784186
C76   C     C_3   0.192488 0.403725 0.183978 0.191884
C77   C     C_3   0.169686 0.481760 0.173654 -0.773976
C78   C     C_3   0.263089 0.349604 0.634812 0.035061
C79   C     C_R   0.780841 0.226745 0.202495 -0.162462
C80   C     C_3   0.221789 0.394352 0.595147 -0.737465
C81   C     C_3   0.801122 0.399581 0.822755 0.192691
C82   C     C_3   0.814572 0.478577 0.837396 -0.774494
C83   C     C_2   0.865842 0.026437 0.943855 0.489695
C84   C     C_2   0.871761 0.047836 0.057163 0.510655
C85   C     C_2   0.634601 0.530135 0.442680 0.486745
C86   C     C_2   0.637868 0.502297 0.556013 0.504625
C87   C     C_2   0.131403 0.954064 0.054823 0.493578
C88   C     C_2   0.134614 0.969345 0.942259 0.370178
C89   C     C_2   0.363474 0.505704 0.557115 0.477234
C90   C     C_R   0.175490 0.270947 0.251097 -0.117694
C91   C     C_2   0.365067 0.476591 0.444026 0.513809
C92   C     C_R   0.187566 0.258512 0.719463 -0.090697
C93   C     C_R   0.140514 0.139407 0.750591 0.918208
C94   C     C_R   0.824540 0.270458 0.750543 -0.149740
C95   C     C_R   0.308264 0.754831 0.783155 -0.150513
C96   C     C_R   0.675226 0.770249 0.750426 -0.132450
C97   C     C_R   0.720056 0.725806 0.297639 -0.157831
C98   C     C_R   0.324521 0.770891 0.248541 -0.119778
C99   C     C_R   0.254846 0.809721 0.782281 0.434694
C100  C     C_R   0.729872 0.823038 0.742803 0.411934
C101  C     C_R   0.767008 0.786322 0.296583 0.413989
C102  C     C_R   0.269950 0.823853 0.254723 0.428231
C103  C     C_R   0.733996 0.287240 0.203728 0.412783
C104  C     C_R   0.139418 0.140408 0.250296 0.790588
C105  C     C_R   0.230154 0.323847 0.244981 0.422614
C106  C     C_R   0.244337 0.309989 0.717239 0.337744
C107  C     C_R   0.769785 0.323069 0.757949 0.419344
C108  C     C_R   0.195576 0.803799 0.748648 -0.235551
C109  C     C_R   0.803740 0.803603 0.749469 -0.287447
C110  C     C_R   0.802860 0.805162 0.250291 -0.300204
C111  C     C_R   0.196031 0.803686 0.250726 -0.296099
C112  C     C_R   0.697258 0.305230 0.249861 -0.301245
C113  C     C_R   0.304002 0.303694 0.249152 -0.288060
C114  C     C_R   0.304030 0.303935 0.750573 -0.242051
C115  C     C_R   0.859467 0.139624 0.250055 0.779922
C116  C     C_R   0.696068 0.303530 0.750673 -0.285002
C117  C     C_R   0.935291 0.016999 0.973155 -0.030462
C118  C     C_R   0.936466 0.021046 0.027293 -0.081592
C119  C     C_R   0.567204 0.510880 0.472580 -0.036128
C120  C     C_R   0.567866 0.505221 0.526728 -0.036360
C121  C     C_R   0.000662 0.000205 0.053486 -0.149539
C122  C     C_R   0.000520 0.999857 0.946454 -0.138916
C123  C     C_R   0.500534 0.500439 0.553469 -0.183167
C124  C     C_R   0.500417 0.500499 0.446479 -0.180086
C125  C     C_R   0.065193 0.979835 0.026712 -0.024620
C126  C     C_R   0.360532 0.640390 0.249727 0.778931
C127  C     C_R   0.065833 0.982371 0.972486 -0.085207
C128  C     C_R   0.433117 0.497954 0.527336 -0.034729
C129  C     C_R   0.433476 0.492181 0.473236 -0.033652
C130  C     C_R   0.139643 0.859842 0.749415 0.914644
C131  C     C_R   0.860012 0.859941 0.749839 0.893728
C132  C     C_R   0.859922 0.860183 0.250333 0.884623
C133  C     C_R   0.139853 0.859893 0.250238 0.927866
C134  C     C_R   0.640188 0.360265 0.249774 0.885566
C135  C     C_R   0.360183 0.359901 0.249720 0.908583
C136  C     C_R   0.359975 0.360125 0.750147 0.942825
C137  C     C_R   0.640538 0.639637 0.249898 0.784813
C138  C     C_R   0.639903 0.359870 0.750208 0.893531
C139  C     C_R   0.000280 0.999981 0.890676 0.742089
C140  C     C_R   0.000040 0.999996 0.109292 0.855028
C141  C     C_R   0.500261 0.500077 0.390686 0.736470
C142  C     C_R   0.500446 0.500041 0.609298 0.749014
C143  C     C_R   0.000251 0.004458 0.608757 0.867023
C144  C     C_R   0.999911 0.001935 0.391186 0.822902
C145  C     C_R   0.500119 0.501787 0.108846 0.823876
C146  C     C_R   0.499863 0.503557 0.891326 0.842224
C147  C     C_3   0.919394 0.011417 0.529819 -0.266301
C148  C     C_R   0.639893 0.639858 0.750015 0.791751
C149  C     C_3   0.036562 0.936565 0.529969 -0.334267
C150  C     C_3   0.028155 0.931951 0.470567 -0.253219
C151  C     C_3   0.920115 0.017293 0.470087 -0.339900
C152  C     C_3   0.469383 0.432162 0.029588 -0.255915
C153  C     C_3   0.580484 0.514011 0.030102 -0.344177
C154  C     C_3   0.581150 0.506432 0.970483 -0.256170
C155  C     C_3   0.460711 0.436857 0.970189 -0.339404
C156  C     C_3   0.045338 0.079372 0.530207 0.738844
C157  C     C_3   0.051459 0.073501 0.467474 0.755200
C158  C     C_3   0.451203 0.574395 0.032459 0.759886
C159  C     C_R   0.359470 0.639479 0.749598 0.919749
C160  C     C_3   0.458463 0.579706 0.969934 0.744419
C161  C     C_3   0.001183 0.009631 0.550805 -0.070217
C162  C     C_3   0.000858 0.007408 0.448709 -0.061693
C163  C     C_3   0.499376 0.506855 0.051395 -0.069531
C164  C     C_3   0.499290 0.508234 0.949320 -0.062103
C165  C     C_R   0.190120 0.745594 0.713761 0.308286
C166  C     C_R   0.823862 0.730245 0.755311 0.410985
C167  C     C_R   0.785478 0.770655 0.203771 0.408989
C168  C     C_R   0.175688 0.729949 0.248892 0.418160
C169  C     C_R   0.713921 0.269875 0.296185 0.409548
C170  C     C_R   0.801575 0.194468 0.249780 -0.275840
C171  C     C_R   0.324267 0.229989 0.250965 0.422083
C172  C     C_R   0.309607 0.245732 0.785303 0.409860
C173  C     C_R   0.676045 0.230151 0.744471 0.411683
C174  C     C_R   0.766431 0.214725 0.296567 -0.118463
C175  C     C_R   0.270286 0.176191 0.244163 -0.162684
C176  C     C_R   0.254633 0.191810 0.786407 -0.164660
C177  C     C_R   0.728977 0.175783 0.751969 -0.149548
C178  C     C_R   0.244437 0.691185 0.712885 -0.099432
C179  C     C_R   0.770889 0.675821 0.747895 -0.152263
C180  C     C_R   0.733579 0.714883 0.203337 -0.121599
H1    H     H_    0.896436 0.956606 0.538918 0.104174
H2    H     H_    0.117547 0.880454 0.582112 0.052176
H3    H     H_    0.746047 0.057315 0.771213 0.098549
H4    H     H_    0.200032 0.636936 0.642143 0.125498
H5    H     H_    0.753656 0.557312 0.728541 0.099203
H6    H     H_    0.660785 0.663827 0.144782 0.052108
H7    H     H_    0.249109 0.558533 0.276187 0.095463
H8    H     H_    0.825753 0.138936 0.150771 0.055637
H9    H     H_    0.052239 0.262048 0.248087 0.084861
H10   H     H_    0.111676 0.326773 0.672362 0.140425
H11   H     H_    0.943428 0.253638 0.730880 0.130722
H12   H     H_    0.421798 0.732407 0.810870 -0.004461
H13   H     H_    0.081625 0.835079 0.431936 0.015611
H14   H     H_    0.556758 0.752837 0.772092 0.048758
H15   H     H_    0.674626 0.637556 0.348943 0.060741
H16   H     H_    0.447745 0.761500 0.250510 0.085501
H17   H     H_    0.264061 0.961572 0.769726 0.135971
H18   H     H_    0.343656 0.903725 0.763185 0.141452
H19   H     H_    0.384365 0.935133 0.850098 0.284249
H20   H     H_    0.367739 0.016776 0.813753 0.185590
H21   H     H_    0.302019 0.986949 0.861922 0.283049
H22   H     H_    0.648683 0.866647 0.667403 0.149046
H23   H     H_    0.745649 0.879331 0.655101 0.118247
H24   H     H_    0.841120 0.071689 0.415908 0.081986
H25   H     H_    0.673679 0.981745 0.621301 0.184176
H26   H     H_    0.732512 0.011732 0.672736 0.258885
H27   H     H_    0.635264 0.998855 0.684400 0.286006
H28   H     H_    0.673636 0.848876 0.359259 0.152537
H29   H     H_    0.718617 0.911323 0.315430 0.122132
H30   H     H_    0.799271 0.953481 0.385492 0.260314
H31   H     H_    0.703886 0.965085 0.402205 0.206143
H32   H     H_    0.755630 0.891143 0.430077 0.258472
H33   H     H_    0.354247 0.866874 0.325939 0.123074
H34   H     H_    0.261190 0.893633 0.341073 0.168780
H35   H     H_    0.413001 0.337235 0.068625 0.019837
H36   H     H_    0.289886 0.020331 0.317767 0.245196
H37   H     H_    0.354234 0.987218 0.364814 0.193837
H38   H     H_    0.381753 0.994238 0.298133 0.289431
H39   H     H_    0.828493 0.351285 0.142916 0.153293
H40   H     H_    0.781820 0.413118 0.186312 0.122058
H41   H     H_    0.702595 0.454360 0.115075 0.258403
H42   H     H_    0.798387 0.467866 0.100225 0.207055
H43   H     H_    0.748923 0.393269 0.070975 0.259250
H44   H     H_    0.145639 0.367941 0.173467 0.126135
H45   H     H_    0.239918 0.390514 0.158430 0.168719
H46   H     H_    0.659929 0.568996 0.083946 0.077404
H47   H     H_    0.122813 0.496722 0.198954 0.284235
H48   H     H_    0.152593 0.487466 0.132869 0.196961
H49   H     H_    0.216388 0.518959 0.180928 0.250323
H50   H     H_    0.254040 0.290946 0.625322 0.112877
H51   H     H_    0.322599 0.361368 0.631117 0.170505
H52   H     H_    0.225198 0.453119 0.604780 0.300694
H53   H     H_    0.245709 0.385115 0.556250 0.245527
H54   H     H_    0.163283 0.378006 0.594502 0.223924
H55   H     H_    0.850283 0.367445 0.833720 0.151029
H56   H     H_    0.753171 0.379686 0.845561 0.117996
H57   H     H_    0.698011 0.538712 0.952891 -0.014436
H58   H     H_    0.765984 0.512058 0.827748 0.260095
H59   H     H_    0.824547 0.482739 0.879470 0.185046
H60   H     H_    0.863326 0.499671 0.816446 0.285811
H61   H     H_    0.866281 0.052106 0.906226 0.045989
H62   H     H_    0.860212 0.026806 0.095422 -0.023557
H63   H     H_    0.641881 0.510966 0.403422 -0.001930
H64   H     H_    0.641096 0.524997 0.594551 0.031759
H65   H     H_    0.165667 0.911902 0.038082 0.085958
H66   H     H_    0.132444 0.945183 0.904150 0.097116
H67   H     H_    0.359565 0.485881 0.596383 0.064940
H68   H     H_    0.376731 0.384178 0.918483 0.057450
H69   H     H_    0.357768 0.498102 0.405462 0.033205
H70   H     H_    0.976478 0.226192 0.501833 0.256200
H71   H     H_    0.073600 0.217118 0.510770 0.099001
H72   H     H_    0.065285 0.269064 0.594647 0.225873
H73   H     H_    0.002426 0.891375 0.545936 0.085052
H74   H     H_    0.007118 0.323315 0.555141 0.219334
H75   H     H_    0.966811 0.256755 0.598070 0.309283
H76   H     H_    0.096379 0.132984 0.619241 0.231276
H77   H     H_    0.149619 0.179897 0.569582 0.104758
H78   H     H_    0.253674 0.100189 0.582303 0.224231
H79   H     H_    0.227336 0.143243 0.641891 0.193220
H80   H     H_    0.204041 0.048750 0.630249 0.295083
H81   H     H_    0.214119 0.090356 0.493227 0.220496
H82   H     H_    0.160310 0.164114 0.468705 0.082702
H83   H     H_    0.208520 0.136306 0.380333 0.235836
H84   H     H_    0.981687 0.893562 0.464255 0.101250
H85   H     H_    0.282257 0.145550 0.425242 0.204715
H86   H     H_    0.252854 0.056118 0.405506 0.290602
H87   H     H_    0.087353 0.122645 0.376207 0.207405
H88   H     H_    0.089367 0.211121 0.405203 0.159022
H89   H     H_    0.956933 0.226673 0.381979 0.271967
H90   H     H_    0.017384 0.214748 0.327503 0.191953
H91   H     H_    0.961977 0.139939 0.348453 0.228433
H92   H     H_    0.288967 0.596163 0.006225 0.221465
H93   H     H_    0.346498 0.668350 0.029054 0.087654
H94   H     H_    0.297144 0.646137 0.118263 0.234479
H95   H     H_    0.887867 0.969564 0.456411 0.126184
H96   H     H_    0.223720 0.656328 0.073315 0.203806
H97   H     H_    0.249461 0.566732 0.094803 0.289998
H98   H     H_    0.416866 0.624095 0.123723 0.206783
H99   H     H_    0.415692 0.712533 0.094391 0.161412
H100  H     H_    0.549410 0.725375 0.117040 0.271978
H101  H     H_    0.487743 0.718330 0.171218 0.197640
H102  H     H_    0.540509 0.640482 0.152633 0.229816
H103  H     H_    0.526958 0.725425 0.999877 0.249454
H104  H     H_    0.432777 0.720421 0.982133 0.099314
H105  H     H_    0.487219 0.743256 0.887952 0.252699
H106  H     H_    0.514623 0.392402 0.035766 0.103064
H107  H     H_    0.485208 0.818281 0.933333 0.238709
H108  H     H_    0.568868 0.768414 0.921176 0.263759
H109  H     H_    0.410813 0.630983 0.878792 0.167004
H110  H     H_    0.359065 0.683487 0.925952 0.161152
H111  H     H_    0.252487 0.605059 0.917529 0.223666
H112  H     H_    0.277971 0.644564 0.856891 0.206102
H113  H     H_    0.299453 0.550226 0.870277 0.291304
H114  H     H_    0.052494 0.732043 0.732427 0.189228
H115  H     H_    0.089401 0.648860 0.705106 0.149421
H116  H     H_    0.033892 0.681507 0.620378 0.247339
H117  H     H_    0.611446 0.465929 0.044475 0.127683
H118  H     H_    0.966227 0.674699 0.671234 0.270708
H119  H     H_    0.995976 0.763207 0.649043 0.224344
H120  H     H_    0.871526 0.642297 0.825117 0.144775
H121  H     H_    0.885502 0.736896 0.842296 0.140982
H122  H     H_    0.017060 0.726416 0.822553 0.260122
H123  H     H_    0.989462 0.657060 0.867847 0.208138
H124  H     H_    0.004642 0.633333 0.801027 0.262257
H125  H     H_    0.782641 0.898870 0.159551 0.098294
H126  H     H_    0.720283 0.833504 0.130924 0.132219
H127  H     H_    0.806628 0.816000 0.057653 0.276570
H128  H     H_    0.601030 0.450256 0.962101 0.100886
H129  H     H_    0.779533 0.910070 0.064477 0.219462
H130  H     H_    0.868990 0.881166 0.085854 0.238289
H131  H     H_    0.119171 0.638665 0.185425 0.136135
H132  H     H_    0.098362 0.731413 0.167225 0.140004
H133  H     H_    0.971621 0.716285 0.201965 0.279218
H134  H     H_    0.992782 0.649779 0.152769 0.200736
H135  H     H_    0.992754 0.623525 0.219888 0.261491
H136  H     H_    0.710128 0.397896 0.345496 0.105101
H137  H     H_    0.778536 0.333435 0.367189 0.125862
H138  H     H_    0.699709 0.301438 0.442342 0.278455
H139  H     H_    0.492557 0.390162 0.954107 0.088350
H140  H     H_    0.722715 0.396973 0.440871 0.229172
H141  H     H_    0.632385 0.367196 0.421600 0.240776
H142  H     H_    0.380676 0.138544 0.314152 0.134498
H143  H     H_    0.401763 0.231216 0.332595 0.144367
H144  H     H_    0.528407 0.216071 0.297697 0.280483
H145  H     H_    0.507142 0.149444 0.346738 0.200868
H146  H     H_    0.506971 0.123384 0.279552 0.260340
H147  H     H_    0.448197 0.231266 0.765794 0.165667
H148  H     H_    0.407574 0.147967 0.790210 0.140635
H149  H     H_    0.463281 0.172966 0.876158 0.268367
H150  H     H_    0.805115 0.052677 0.546061 -0.006627
H151  H     H_    0.531189 0.166488 0.825461 0.262480
H152  H     H_    0.505135 0.254702 0.850363 0.216096
H153  H     H_    0.629158 0.142318 0.674113 0.143689
H154  H     H_    0.615682 0.237005 0.657121 0.141626
H155  H     H_    0.483823 0.226567 0.675877 0.257667
H156  H     H_    0.511899 0.157365 0.630573 0.208665
H157  H     H_    0.495683 0.133373 0.697200 0.256804
H158  H     H_    0.840875 0.166655 0.355126 0.049437
H159  H     H_    0.250570 0.058597 0.223435 0.110630
H160  H     H_    0.221400 0.085183 0.821845 0.010074
O1    O     O_3   0.000000 1.000000 0.749970 -0.497332
O2    O     O_R   0.646190 0.585480 0.219360 -0.663562
O3    O     O_3   0.788075 0.394531 0.769117 -0.547798
O4    O     O_2   0.807932 0.002466 0.960436 -0.541034
O5    O     O_2   0.832488 0.095822 0.040227 -0.496273
O6    O     O_2   0.681085 0.570474 0.460666 -0.506666
O7    O     O_2   0.691665 0.471490 0.538338 -0.544880
O8    O     O_2   0.149345 0.980514 0.096055 -0.568854
O9    O     O_2   0.194214 0.988309 0.958629 -0.536604
O10   O     O_2   0.311093 0.537969 0.539128 -0.534948
O11   O     O_2   0.317618 0.436893 0.461844 -0.561716
O12   O     O_R   0.646190 0.585480 0.780640 -0.639029
O13   O     O_R   0.353810 0.585480 0.780640 -0.651822
O14   O     O_R   0.146170 0.914530 0.719320 -0.657781
O15   O     O_R   0.853830 0.914530 0.719320 -0.640662
O16   O     O_R   0.853830 0.914530 0.280680 -0.633118
O17   O     O_R   0.146170 0.914530 0.280680 -0.623540
O18   O     O_R   0.646170 0.414530 0.219320 -0.630911
O19   O     O_R   0.353830 0.414530 0.219320 -0.623440
O20   O     O_R   0.353830 0.414530 0.780680 -0.608204
O21   O     O_3   0.000000 0.000000 0.250030 -0.499039
O22   O     O_R   0.646170 0.414530 0.780680 -0.638966
O23   O     O_R   0.085450 0.146180 0.780600 -0.603826
O24   O     O_R   0.914550 0.146180 0.780600 -0.648980
O25   O     O_R   0.914550 0.146180 0.219400 -0.660355
O26   O     O_R   0.085450 0.146180 0.219400 -0.637488
O27   O     O_R   0.585450 0.646180 0.280600 -0.654436
O28   O     O_R   0.414550 0.646180 0.280600 -0.648664
O29   O     O_R   0.414550 0.646180 0.719400 -0.629973
O30   O     O_R   0.585450 0.646180 0.719400 -0.658156
O31   O     O_R   0.914560 0.853830 0.780620 -0.625580
O32   O     O_3   0.500000 0.500000 0.249970 -0.495292
O33   O     O_R   0.085440 0.853830 0.780620 -0.658379
O34   O     O_R   0.085440 0.853830 0.219380 -0.626054
O35   O     O_R   0.914560 0.853830 0.219380 -0.610059
O36   O     O_R   0.414560 0.353830 0.280620 -0.632469
O37   O     O_R   0.585440 0.353830 0.280620 -0.605401
O38   O     O_R   0.585440 0.353830 0.719380 -0.625927
O39   O     O_R   0.414560 0.353830 0.719380 -0.687115
O40   O     O_R   1.000000 0.060730 0.866830 -0.636902
O41   O     O_R   0.000000 0.060730 0.133170 -0.622918
O42   O     O_R   0.500000 0.560730 0.366830 -0.634397
O43   O     O_3   0.500000 0.500000 0.750030 -0.499183
O44   O     O_R   0.500000 0.560730 0.633170 -0.621311
O45   O     O_R   0.939250 0.000010 0.633130 -0.636998
O46   O     O_R   0.060750 0.000010 0.633130 -0.647251
O47   O     O_R   0.060750 0.000010 0.366870 -0.592579
O48   O     O_R   0.939250 0.000010 0.366870 -0.694468
O49   O     O_R   0.439250 0.500010 0.133130 -0.591807
O50   O     O_R   0.560750 0.500010 0.133130 -0.692556
O51   O     O_R   0.560750 0.500010 0.866870 -0.636328
O52   O     O_R   0.439250 0.500010 0.866870 -0.660421
O53   O     O_R   0.000000 0.939270 0.866820 -0.650158
O54   O     O_R   0.853810 0.085480 0.719360 -0.635460
O55   O     O_R   0.000000 0.939270 0.133180 -0.642906
O56   O     O_R   0.500000 0.439270 0.366820 -0.638877
O57   O     O_R   0.500000 0.439270 0.633180 -0.647567
O58   O     O_2   0.878275 0.110303 0.584804 -0.506830
O59   O     O_2   0.168159 0.945794 0.532535 -0.476626
O60   O     O_2   0.148041 0.920424 0.431698 -0.471675
O61   O     O_2   0.882473 0.142763 0.465271 -0.535102
O62   O     O_2   0.349123 0.424364 0.068327 -0.469751
O63   O     O_2   0.621513 0.638695 0.032671 -0.527174
O64   O     O_2   0.628747 0.603863 0.916796 -0.505468
O65   O     O_R   0.146190 0.085480 0.719360 -0.677462
O66   O     O_2   0.329710 0.452217 0.967979 -0.475926
O67   O     O_3   0.005049 0.141230 0.549858 -0.614873
O68   O     O_3   0.117309 0.074473 0.551396 -0.643113
O69   O     O_3   0.124909 0.056652 0.450596 -0.561553
O70   O     O_3   0.023223 0.138211 0.444183 -0.679487
O71   O     O_3   0.376956 0.560045 0.048886 -0.562184
O72   O     O_3   0.480890 0.638644 0.055594 -0.679349
O73   O     O_3   0.502801 0.639011 0.951017 -0.617986
O74   O     O_3   0.386479 0.578489 0.948677 -0.651479
O75   O     O_3   0.134945 0.745743 0.677330 -0.637381
O76   O     O_R   0.146190 0.085480 0.280640 -0.667342
O77   O     O_3   0.896421 0.712203 0.763843 -0.581686
O78   O     O_3   0.819540 0.791566 0.158202 -0.545802
O79   O     O_3   0.102239 0.711461 0.246491 -0.556646
O80   O     O_3   0.678668 0.289286 0.341629 -0.546760
O81   O     O_3   0.397700 0.211539 0.253284 -0.555357
O82   O     O_3   0.365959 0.245107 0.820797 -0.580668
O83   O     O_3   0.603603 0.212007 0.735422 -0.583009
O84   O     O_2   0.737680 0.167611 0.378858 -0.538751
O85   O     O_2   0.354517 0.085613 0.216518 -0.497014
O86   O     O_2   0.293427 0.137812 0.864557 -0.498821
O87   O     O_R   0.853810 0.085480 0.280640 -0.663088
O88   O     O_2   0.641590 0.083576 0.770782 -0.525828
O89   O     O_2   0.275645 0.576762 0.675597 -0.580227
O90   O     O_2   0.858116 0.583753 0.728568 -0.520110
O91   O     O_2   0.763492 0.669127 0.120774 -0.533230
O92   O     O_2   0.145116 0.585342 0.282719 -0.498835
O93   O     O_2   0.790920 0.223128 0.110947 -0.501005
O94   O     O_2   0.084948 0.353573 0.279931 -0.507058
O95   O     O_2   0.068219 0.231191 0.688703 -0.635833
O96   O     O_2   0.920516 0.357209 0.741315 -0.510028
O97   O     O_2   0.365984 0.795632 0.858971 -0.556770
O98   O     O_R   0.353810 0.585480 0.219360 -0.663205
O99   O     O_2   0.578882 0.856374 0.760023 -0.524659
O100  O     O_2   0.712520 0.720015 0.389287 -0.510119
O101  O     O_2   0.415097 0.853485 0.219506 -0.506817
O102  O     O_3   0.259937 0.869078 0.815057 -0.574322
O103  O     O_3   0.711414 0.894400 0.731679 -0.547531
O104  O     O_3   0.782597 0.823946 0.341442 -0.551529
O105  O     O_3   0.288796 0.896046 0.262829 -0.551839
O106  O     O_3   0.719152 0.325430 0.159047 -0.551447
O107  O     O_3   0.211480 0.395957 0.236544 -0.557579
O108  O     O_3   0.239059 0.369573 0.684833 -0.596896
Zn1   Zn    Zn3+2 0.086750 0.999990 0.706190 0.965354
Zn2   Zn    Zn3+2 0.000000 0.086770 0.206250 0.977235
Zn3   Zn    Zn3+2 0.500000 0.586770 0.293750 0.945352
Zn4   Zn    Zn3+2 0.500000 0.586770 0.706250 0.993307
Zn5   Zn    Zn3+2 0.000000 0.913230 0.793740 0.964660
Zn6   Zn    Zn3+2 0.000000 0.913230 0.206260 1.013469
Zn7   Zn    Zn3+2 0.500000 0.413230 0.293740 0.993110
Zn8   Zn    Zn3+2 0.500000 0.413230 0.706260 0.969908
Zn9   Zn    Zn3+2 0.913250 0.999990 0.706190 0.989496
Zn10  Zn    Zn3+2 0.913250 0.999990 0.293810 0.933369
Zn11  Zn    Zn3+2 0.086750 0.999990 0.293810 0.998666
Zn12  Zn    Zn3+2 0.586750 0.499990 0.206190 0.937422
Zn13  Zn    Zn3+2 0.413250 0.499990 0.206190 0.985770
Zn14  Zn    Zn3+2 0.413250 0.499990 0.793810 0.997389
Zn15  Zn    Zn3+2 0.586750 0.499990 0.793810 0.969251
Zn16  Zn    Zn3+2 0.000000 0.086770 0.793750 1.004191

loop_
_geom_bond_atom_site_label_1
_geom_bond_atom_site_label_2
_ccdc_geom_bond_type
C19   C20   S    
C10   C154  S    
C21   O71   S    
O55   Zn6   S    
C50   O86   D    
C76   H44   S    
C69   H26   S    
C56   C79   S    
C121  C140  S    
C122  C139  S    
C51   H3    S    
C171  O81   S    
C95   C99   A    
C6    O60   D    
C5    C149  S    
C44   H152  S    
C2    C90   A    
O18   Zn12  S    
C65   O102  S    
C27   H108  S    
C66   H21   S    
O16   Zn10  S    
C46   C148  S    
C169  C174  A    
C87   H65   S    
C9    H46   S    
C60   O96   D    
O47   Zn11  S    
C61   O97   D    
C139  O40   A    
C15   H77   S    
O1    Zn9   S    
C147  H1    S    
C35   C178  A    
C59   O95   D    
C72   H33   S    
C100  C109  A    
C21   C22   S    
C32   O77   S    
C167  O78   S    
C102  C111  A    
C23   H98   S    
C30   H115  S    
C21   H93   S    
C45   C47   S    
C44   H149  S    
C55   O92   D    
C22   H97   S    
C91   O11   D    
C37   H131  S    
C80   H54   S    
O39   Zn8   S    
C142  O44   A    
C157  O69   S    
C160  O73   S    
C18   H86   S    
C19   O70   S    
C157  C162  S    
C101  C110  A    
C98   C102  A    
C103  C112  A    
C7    O61   D    
C43   C44   S    
C37   C38   S    
C16   H78   S    
C112  C169  A    
C2    C104  S    
C57   C97   A    
C139  O53   A    
C92   C106  A    
C71   H31   S    
C144  O48   A    
C62   H14   S    
C25   H101  S    
C5    H2    S    
C49   C175  S    
C31   H116  S    
C26   O73   S    
C170  C174  A    
C153  H117  S    
C145  O50   A    
C38   H134  S    
C46   C179  A    
C52   H4    S    
C90   C105  A    
C112  C134  S    
C72   C73   S    
C57   C180  A    
C91   C129  S    
C77   H49   S    
C83   C117  S    
C23   O72   S    
C42   H144  S    
C136  O20   A    
O21   Zn10  S    
O41   Zn2   S    
C104  O76   A    
C15   O68   S    
C53   O90   D    
C152  H106  S    
C68   C98   A    
C34   H126  S    
C67   H23   S    
C109  C166  A    
C88   H66   S    
C46   C96   A    
C77   H48   S    
C115  O87   A    
C113  C135  S    
C74   H40   S    
C125  C127  A    
C114  C136  S    
O43   Zn4   S    
C20   H89   S    
C9    O63   D    
C42   H145  S    
C66   H20   S    
C21   H92   S    
C54   O91   D    
C44   H151  S    
C136  O39   A    
C122  C127  A    
C133  O34   A    
C128  C129  A    
C158  O72   S    
O28   Zn3   S    
C99   C108  A    
C45   O83   S    
C81   O3    S    
C12   H71   S    
O30   Zn4   S    
C116  C173  A    
C153  C163  S    
C79   C170  A    
C105  C113  A    
C8    C152  S    
O56   Zn7   S    
C87   O8    D    
C134  O18   A    
C16   H80   S    
O54   Zn9   S    
C78   C80   S    
C126  O98   A    
C84   O5    D    
O49   Zn13  S    
C131  O15   A    
C17   H82   S    
C85   C119  S    
O37   Zn7   S    
C63   O100  D    
O32   Zn3   S    
C3    C55   S    
O26   Zn2   S    
C81   H55   S    
C73   H36   S    
O57   Zn8   S    
C173  C177  A    
C108  C130  S    
C143  O45   A    
C11   C155  S    
C49   H159  S    
C140  O55   A    
C9    C153  S    
C146  O51   A    
C76   O107  S    
C172  O82   S    
O40   Zn16  S    
C49   O85   D    
C173  O83   S    
C79   C103  A    
C80   H52   S    
C115  C170  S    
C53   C179  S    
O32   Zn12  S    
C48   H158  S    
C156  O68   S    
C48   C174  S    
C94   C107  A    
C138  O22   A    
C1    O24   A    
C50   H160  S    
C29   H113  S    
C39   C40   S    
C23   H99   S    
C145  C163  S    
C146  C164  S    
C52   O89   D    
C99   O102  S    
C1    O54   A    
C89   H67   S    
O14   Zn1   S    
C147  C151  S    
C117  C122  A    
C132  O35   A    
C121  C125  A    
C2    C175  A    
C110  C167  A    
C14   H74   S    
C47   H155  S    
C17   O69   S    
C82   H59   S    
C17   C18   S    
C26   H103  S    
C57   C137  S    
O25   Zn2   S    
C135  O19   A    
C29   H112  S    
C41   H142  S    
C31   H119  S    
C158  C163  S    
O53   Zn5   S    
C156  C161  S    
C124  C141  S    
O2    Zn12  S    
C40   H138  S    
C19   H87   S    
O21   Zn6   S    
C36   H129  S    
C76   H45   S    
O44   Zn4   S    
C41   O81   S    
C45   H154  S    
C101  O104  S    
C4    H150  S    
C64   O101  D    
C37   O79   S    
O98   Zn13  S    
O45   Zn9   S    
C18   H83   S    
C63   C97   S    
C117  C118  A    
C12   O67   S    
O1    Zn1   S    
C155  H139  S    
C141  O42   A    
C64   H16   S    
C143  C161  S    
C73   H38   S    
C167  C180  A    
C34   C36   S    
C56   O93   D    
C6    H13   S    
C107  C116  A    
C152  C163  S    
C27   H107  S    
C65   H18   S    
C1    C24   S    
C84   C118  S    
C86   C120  S    
O38   Zn8   S    
C51   C177  S    
C151  H95   S    
C172  C176  A    
O1    Zn16  S    
C150  H84   S    
C60   C94   S    
C72   H34   S    
C62   C96   S    
C41   C42   S    
C11   O66   D    
C3    C68   A    
C48   O84   D    
O24   Zn16  S    
O43   Zn8   S    
O76   Zn11  S    
C28   O74   S    
C32   H120  S    
C142  O57   A    
O33   Zn5   S    
C103  O106  S    
C131  O31   A    
C148  O30   A    
C26   C27   S    
C11   H68   S    
C160  C164  S    
C28   C29   S    
C28   H109  S    
C88   C127  S    
C160  O74   S    
C30   C31   S    
C33   H123  S    
C14   H72   S    
C38   H133  S    
C72   O105  S    
C12   H70   S    
C168  O79   S    
C43   O82   S    
O43   Zn15  S    
C88   O9    D    
C43   H147  S    
C134  O37   A    
O42   Zn3   S    
C159  O29   A    
C75   H42   S    
C109  C131  S    
C85   O6    D    
C110  C132  S    
C70   C71   S    
C140  O41   A    
O13   Zn14  S    
C40   H140  S    
C120  C123  A    
C126  O28   A    
O46   Zn1   S    
C64   C98   S    
C158  C160  S    
C25   H100  S    
C22   H96   S    
C145  O49   A    
O21   Zn2   S    
C150  C162  S    
C69   H27   S    
C38   H135  S    
C58   O94   D    
C147  C161  S    
O32   Zn7   S    
C4    C147  S    
C13   C93   S    
C7    H24   S    
C31   H118  S    
C27   H105  S    
C32   H121  S    
C97   C101  A    
C152  C155  S    
C151  C162  S    
C165  O75   S    
O32   Zn13  S    
C41   H143  S    
C58   C90   S    
C7    C151  S    
C77   H47   S    
C13   C92   A    
C4    O58   D    
C155  C164  S    
O29   Zn4   S    
C63   H15   S    
C5    O59   D    
C149  C161  S    
C20   H90   S    
C42   H146  S    
C102  O105  S    
C107  O3    S    
C30   H114  S    
O51   Zn15  S    
C91   H69   S    
C154  C164  S    
C89   O10   D    
C33   H124  S    
C62   O99   D    
C74   O106  S    
C37   H132  S    
C69   H25   S    
C80   H53   S    
O43   Zn14  S    
C157  O70   S    
C18   H85   S    
C20   H91   S    
C119  C120  A    
C61   C95   S    
C35   C95   A    
C78   H50   S    
C83   H61   S    
C70   O104  S    
C32   C33   S    
O87   Zn10  S    
C83   O4    D    
C78   H51   S    
C149  C150  S    
O52   Zn14  S    
C123  C142  S    
C124  C129  A    
C59   C92   S    
C132  O16   A    
C17   H81   S    
C39   H137  S    
C52   C178  S    
C6    C150  S    
C71   H32   S    
C54   H6    S    
C10   O64   D    
C24   C177  A    
C144  O47   A    
C59   H10   S    
C111  C168  A    
C25   H102  S    
C149  H73   S    
C135  O36   A    
C166  O77   S    
C22   H94   S    
C89   C128  S    
C13   C176  A    
C108  C165  A    
C146  O52   A    
O35   Zn6   S    
C8    H35   S    
C81   C82   S    
C113  C171  A    
C119  C124  A    
C114  C172  A    
O31   Zn5   S    
C43   H148  S    
C106  C114  A    
C156  C157  S    
C40   H141  S    
C159  O13   A    
O21   Zn11  S    
C70   H28   S    
C15   C16   S    
C141  O56   A    
C96   C100  A    
C85   H63   S    
O36   Zn7   S    
C130  O14   A    
C50   C176  S    
C115  O25   A    
C53   H5    S    
C34   H125  S    
O65   Zn1   S    
C8    O62   D    
C14   H75   S    
C56   H8    S    
C67   O103  S    
C34   O78   S    
C82   H60   S    
C74   H39   S    
C137  O27   A    
C61   H12   S    
C55   H7    S    
C29   H111  S    
C66   H19   S    
C75   H43   S    
O15   Zn9   S    
C104  O26   A    
C165  C178  A    
C39   H136  S    
C158  O71   S    
C3    C168  A    
C116  C138  S    
C15   H76   S    
C47   H157  S    
C148  O12   A    
C36   H130  S    
C74   C75   S    
C76   C77   S    
O17   Zn11  S    
O22   Zn15  S    
C16   H79   S    
C111  C133  S    
O12   Zn15  S    
C45   H153  S    
C39   O80   S    
C171  C175  A    
C67   C69   S    
C118  C121  A    
C24   C94   A    
C105  O107  S    
C93   O65   A    
C106  O108  S    
C71   H30   S    
C58   H9    S    
C81   H56   S    
C73   H37   S    
O23   Zn16  S    
C143  O46   A    
C36   H127  S    
C10   H57   S    
C65   H17   S    
C51   O88   D    
C130  O33   A    
C12   C14   S    
O20   Zn14  S    
C86   O7    D    
C133  O17   A    
O34   Zn6   S    
C68   C126  S    
C87   C125  S    
C156  O67   S    
C169  O80   S    
O1    Zn5   S    
C144  C162  S    
C26   H104  S    
O19   Zn13  S    
O50   Zn12  S    
C154  H128  S    
C137  O2    A    
O48   Zn10  S    
C28   H110  S    
C67   H22   S    
C33   H122  S    
C123  C128  A    
C47   H156  S    
C60   H11   S    
C82   H58   S    
C54   C180  S    
C23   C25   S    
C30   O75   S    
C35   C159  S    
C100  O103  S    
C78   O108  S    
C75   H41   S    
C86   H64   S    
C65   C66   S    
C70   H29   S    
C84   H62   S    
C166  C179  A    
C153  C154  S    
C93   O23   A    
O27   Zn3   S    
C19   H88   S    
C138  O38   A    
