data_mof_unit_65941.cif
_audit_creation_date              2012-12-11T14:27:25-0500
_audit_creation_method            fapswitch 2.2
_symmetry_space_group_name_H-M    P1
_symmetry_Int_Tables_number       1
_space_group_crystal_system       triclinic
_cell_length_a                    8.186443
_cell_length_b                    14.937055
_cell_length_c                    15.067333
_cell_angle_alpha                 97.17521
_cell_angle_beta                  99.513525
_cell_angle_gamma                 97.554205
_cell_volume                      1780.96834355

loop_
_atom_site_label
_atom_site_type_symbol
_atom_type_description
_atom_site_fract_x
_atom_site_fract_y
_atom_site_fract_z
_atom_type_partial_charge
Ba1   Ba    Ba6+2 0.154720 0.543770 0.458160 1.687629
Ba2   Ba    Ba6+2 0.655440 0.456220 0.541760 1.658294
Br1   Br    Br    0.787080 0.836165 0.801483 -0.486043
Br2   Br    Br    0.007283 0.895588 0.293900 -0.513289
Br3   Br    Br    0.315363 0.125909 0.883581 -0.499802
Br4   Br    Br    0.292505 0.999849 0.556599 -0.545666
Br5   Br    Br    0.880237 0.857375 0.058763 -0.431116
C1    C     C_3   0.313194 0.746459 0.115595 -0.288677
C2    C     C_R   0.886581 0.792699 0.525583 0.064936
C3    C     C_R   0.076895 0.233179 0.526269 -0.352499
C4    C     C_3   0.860022 0.786999 0.227587 0.647733
C5    C     C_R   0.180856 0.171622 0.555599 -0.002538
C6    C     C_R   0.120887 0.077441 0.541689 0.193704
C7    C     C_R   0.947748 0.044542 0.503634 -0.005564
C8    C     C_R   0.849930 0.107904 0.464030 -0.051449
C9    C     C_R   0.870426 0.950668 0.497957 0.070025
C10   C     C_R   0.706458 0.920045 0.445074 -0.005721
C11   C     C_R   0.619570 0.982847 0.403201 -0.050685
C12   C     C_3   0.362503 0.727655 0.212734 0.403143
C13   C     C_R   0.689447 0.074236 0.412379 0.002109
C14   C     C_R   0.946503 0.886420 0.546137 -0.060307
C15   C     C_R   0.731158 0.763409 0.469146 -0.256557
C16   C     C_3   0.749951 0.812154 0.145089 0.145478
C17   C     C_R   0.916477 0.203136 0.475325 0.037453
C18   C     C_R   0.233705 0.460770 0.764340 -0.286330
C19   C     C_R   0.134639 0.428229 0.823666 0.018024
C20   C     C_R   0.199122 0.440020 0.917356 -0.116892
C21   C     C_R   0.363600 0.487771 0.953480 0.004680
C22   C     C_R   0.456131 0.524183 0.891140 -0.115258
C23   C     C_3   0.637865 0.742735 0.713427 0.556072
C24   C     C_R   0.391364 0.511213 0.798297 0.037518
C25   C     C_R   0.600425 0.551498 0.088811 -0.139302
C26   C     C_R   0.666802 0.566652 0.181692 -0.020964
C27   C     C_R   0.412689 0.484536 0.211698 0.056189
C28   C     C_3   0.721997 0.341946 0.262899 0.302996
C29   C     C_R   0.344593 0.469439 0.118452 -0.118836
C30   C     C_R   0.435680 0.503888 0.054481 0.010346
C31   C     C_R   0.570976 0.535839 0.243178 -0.271293
C32   C     C_3   0.677991 0.315885 0.159924 -0.364699
C33   C     C_3   0.084556 0.655592 0.736221 0.312280
C34   C     C_3   0.537088 0.789539 0.644281 -0.282158
C35   C     C_3   0.137639 0.681155 0.839010 -0.327678
C36   C     C_3   0.221031 0.266697 0.336211 0.272547
C37   C     C_3   0.187053 0.163437 0.308745 -0.317498
C38   C     C_3   0.889505 0.206589 0.728193 0.295988
C39   C     C_3   0.850034 0.109905 0.749147 -0.246248
C40   C     C_3   0.431713 0.260940 0.780380 0.366410
C41   C     C_3   0.466492 0.234668 0.875381 0.116796
C42   C     C_R   0.633927 0.826581 0.435235 -0.029248
H1    H     H_    0.282215 0.664223 0.220263 0.087939
H2    H     H_    0.323877 0.283771 0.396482 0.064963
H3    H     H_    0.176980 0.748604 0.099165 0.192821
H4    H     H_    0.081212 0.144244 0.250026 0.161511
H5    H     H_    0.300542 0.138932 0.289433 0.139266
H6    H     H_    0.495273 0.717130 0.223975 -0.144516
H7    H     H_    0.343115 0.691448 0.067038 0.049779
H8    H     H_    0.716830 0.700233 0.678834 -0.019399
H9    H     H_    0.437654 0.820073 0.673756 0.179109
H10   H     H_    0.619367 0.844869 0.623082 0.062623
H11   H     H_    0.480172 0.738487 0.583648 0.090481
H12   H     H_    0.656283 0.376618 0.127182 0.059009
H13   H     H_    0.381893 0.812951 0.106852 0.139947
H14   H     H_    0.676787 0.865301 0.167945 0.050115
H15   H     H_    0.810999 0.210915 0.661835 0.085042
H16   H     H_    0.023757 0.219575 0.722853 -0.024891
H17   H     H_    0.880965 0.060448 0.695411 0.073008
H18   H     H_    0.714796 0.093236 0.751588 0.177882
H19   H     H_    0.299435 0.272218 0.765267 -0.070204
H20   H     H_    0.515270 0.325757 0.780442 0.041765
H21   H     H_    0.448347 0.291354 0.926186 0.009515
H22   H     H_    0.597827 0.221757 0.891868 0.115799
H23   H     H_    0.782746 0.287186 0.134236 0.140228
H24   H     H_    0.680061 0.691521 0.457684 0.066315
H25   H     H_    0.495727 0.962033 0.362225 0.126977
H26   H     H_    0.047597 0.907591 0.603206 0.133603
H27   H     H_    0.126799 0.305213 0.536724 0.081704
H28   H     H_    0.614804 0.117889 0.377237 0.102531
H29   H     H_    0.683928 0.575159 0.045731 0.081319
H30   H     H_    0.116448 0.413925 0.959950 0.079489
H31   H     H_    0.222710 0.428288 0.097928 0.085102
H32   H     H_    0.780089 0.763418 0.275652 -0.165067
H33   H     H_    0.576328 0.566662 0.912171 0.088537
H34   H     H_    0.185760 0.627202 0.707711 -0.004456
H35   H     H_    0.624549 0.545791 0.314976 0.067020
H36   H     H_    0.183160 0.453186 0.692290 0.064728
H37   H     H_    0.613795 0.365759 0.288160 0.002780
H38   H     H_    0.831125 0.397530 0.279807 0.067437
H39   H     H_    0.562642 0.264183 0.140860 0.151120
H40   H     H_    0.154222 0.129370 0.365948 0.085258
H41   H     H_    0.925040 0.103327 0.815813 0.186292
H42   H     H_    0.662009 0.750801 0.108875 -0.003241
H43   H     H_    0.970809 0.603258 0.721584 0.063362
H44   H     H_    0.257152 0.729722 0.855725 0.163444
H45   H     H_    0.155227 0.619591 0.871108 0.037468
H46   H     H_    0.039460 0.713356 0.867890 0.181189
H47   H     H_    0.106277 0.290236 0.353542 0.009375
O1    O     O_2   0.174040 0.723040 0.553850 -0.452387
O2    O     O_2   0.796318 0.437584 0.819727 -0.491205
O3    O     O_3   0.854062 0.268902 0.797758 -0.596108
O4    O     O_3   0.901550 0.609570 0.550800 -0.508784
O5    O     O_3   0.408230 0.452130 0.390190 -0.493995
O6    O     O_2   0.675480 0.547140 0.721810 -0.470581
O7    O     O_3   0.528831 0.694377 0.760197 -0.627923
O8    O     O_2   0.523736 0.177673 0.551086 -0.453836
O9    O     O_3   0.464106 0.191580 0.716540 -0.555275
O10   O     O_3   0.370320 0.665070 0.388210 -0.501835
O11   O     O_2   0.291102 0.823283 0.442307 -0.380862
O12   O     O_3   0.265235 0.306439 0.262539 -0.622699
O13   O     O_3   0.052665 0.734175 0.699192 -0.600792
O14   O     O_3   0.339893 0.801725 0.274325 -0.551629
O15   O     O_2   0.134800 0.452800 0.278160 -0.465961
O16   O     O_3   0.937630 0.618610 0.340820 -0.463661
O17   O     O_2   0.999335 0.552407 0.179986 -0.496203
O18   O     O_3   0.958637 0.722802 0.198160 -0.578286
O19   O     O_2   0.636250 0.276900 0.446120 -0.473422
O20   O     O_3   0.908740 0.390420 0.449120 -0.499986
O21   O     O_3   0.439970 0.334920 0.611710 -0.498879
O22   O     O_3   0.759331 0.264694 0.300795 -0.630918
O23   O     O_3   0.402050 0.547860 0.609740 -0.481621
O24   O     O_3   0.872650 0.381380 0.659100 -0.489945
P1    P     P_3+3 0.004160 0.709210 0.580280 1.015793
P2    P     P_3+3 0.305010 0.425580 0.290930 0.986643
P3    P     P_3+3 0.888181 0.614630 0.223356 0.966789
P4    P     P_3+3 0.806120 0.290780 0.419650 0.976372
P5    P     P_3+3 0.914628 0.379919 0.776467 0.951802
P6    P     P_3+3 0.410447 0.781628 0.385364 1.024536
P7    P     P_3+3 0.498943 0.575982 0.723932 0.954735
P8    P     P_3+3 0.401458 0.217760 0.607178 1.022012

loop_
_geom_bond_atom_site_label_1
_geom_bond_atom_site_label_2
_ccdc_geom_bond_type
C18   C24   A    
C9    C14   A    
C16   H42   S    
C35   H44   S    
C24   P7    S    
C36   H2    S    
C1    H7    S    
O3    P5    S    
C38   C39   S    
C4    H32   S    
C42   P6    S    
C19   C20   A    
C13   H28   S    
C41   H21   S    
C29   C30   A    
C34   H9    S    
O4    P1    S    
C20   H30   S    
Ba1   O16   S    
C28   H37   S    
C2    C15   A    
Ba2   O6    S    
C28   H38   S    
C23   H8    S    
C17   P4    S    
Ba1   Ba2   S    
Ba1   O23   S    
C4    C16   S    
C4    O18   S    
Ba1   P2    S    
C40   H20   S    
O1    P1    D    
Ba2   O20   S    
C37   H4    S    
O2    P5    D    
C9    C10   A    
C40   O9    S    
O17   P3    D    
C23   O7    S    
C2    P1    S    
C32   H23   S    
C23   C34   S    
Ba1   O20   S    
O7    P7    S    
C1    H3    S    
C11   C13   A    
Ba1   O10   S    
C33   C35   S    
Ba2   O4    S    
C11   H25   S    
C35   H45   S    
C6    C7    A    
O15   P2    D    
C33   H34   S    
C3    H27   S    
C32   H39   S    
Ba1   O4    S    
Ba2   O21   S    
C36   H47   S    
C8    C13   A    
C32   H12   S    
Br3   C41   S    
C1    C12   S    
C35   H46   S    
C34   H10   S    
O16   P3    S    
O6    P7    D    
C29   H31   S    
Ba1   O1    S    
Ba2   O24   S    
O24   P5    S    
Ba2   O5    S    
C3    C17   A    
C18   C19   A    
C19   P5    S    
Br1   C23   S    
C28   C32   S    
C36   C37   S    
Ba2   O19   S    
C40   C41   S    
O8    P8    D    
C18   H36   S    
C10   C11   A    
O22   P4    S    
C25   C30   A    
C33   H43   S    
Br2   C4    S    
C3    C5    A    
O14   P6    S    
C15   C42   A    
C39   H41   S    
O18   P3    S    
C8    C17   A    
C38   O3    S    
C7    C9    A    
C41   H22   S    
C10   C42   A    
C2    C14   A    
Ba1   O5    S    
C40   H19   S    
C12   O14   S    
C12   H6    S    
O10   P6    S    
C21   C22   A    
O19   P4    D    
O20   P4    S    
O9    P8    S    
C31   H35   S    
C27   C31   A    
C26   C31   A    
C34   H11   S    
O12   P2    S    
Ba2   O23   S    
C39   H17   S    
C33   O13   S    
C5    P8    S    
Ba2   P4    S    
O11   P6    D    
C14   H26   S    
C38   H15   S    
O5    P2    S    
C25   C26   A    
C39   H18   S    
C22   C24   A    
Ba1   O15   S    
Br4   C6    S    
C38   H16   S    
C12   H1    S    
O13   P1    S    
C21   C30   S    
Br5   C16   S    
C16   H14   S    
C27   C29   A    
C36   O12   S    
O21   P8    S    
Ba1   P1    S    
C25   H29   S    
C37   H5    S    
C22   H33   S    
C5    C6    A    
C27   P2    S    
C20   C21   A    
C26   P3    S    
C7    C8    A    
C28   O22   S    
C15   H24   S    
C37   H40   S    
C1    H13   S    
O23   P7    S    
