data_mof_unit_12675.cif
_audit_creation_date              2013-03-05T16:48:40-0500
_audit_creation_method            fapswitch 2.2
_symmetry_space_group_name_H-M    P1
_symmetry_Int_Tables_number       1
_space_group_crystal_system       triclinic
_cell_length_a                    27.597154
_cell_length_b                    8.92303
_cell_length_c                    8.108938
_cell_angle_alpha                 90.000267
_cell_angle_beta                  89.99687
_cell_angle_gamma                 90.534574
_cell_volume                      1996.74095772

loop_
_atom_site_label
_atom_site_type_symbol
_atom_site_description
_atom_site_fract_x
_atom_site_fract_y
_atom_site_fract_z
_atom_type_partial_charge
O1    O     O_R   0.500000 0.285350 0.636850 -0.615844
O2    O     O_R   0.500000 0.714650 0.363150 -0.617691
O3    O     O_R   0.500000 0.714650 0.636850 -0.615840
O4    O     O_R   0.500000 0.285350 0.363150 -0.617699
C1    C     C_R   0.499960 0.218022 0.499998 0.937069
C2    C     C_R   0.500040 0.781978 0.499998 0.937082
O5    O     O_R   0.428760 0.500000 0.636860 -0.622724
O6    O     O_R   0.571240 0.500000 0.363140 -0.620878
O7    O     O_R   0.571240 0.500000 0.636860 -0.622734
O8    O     O_R   0.428760 0.500000 0.363140 -0.620878
C3    C     C_R   0.405738 0.496522 0.499623 0.923140
C4    C     C_R   0.594261 0.503463 0.499616 0.923167
Zn1   Zn    Zn3+2 0.500000 0.500000 0.682780 0.986376
Zn2   Zn    Zn3+2 0.500000 0.500000 0.317220 0.984210
C5    C     C_R   0.174875 0.342221 0.446630 0.501739
C6    C     C_R   0.825142 0.657398 0.446828 0.501790
C7    C     C_R   0.180423 0.607173 0.408250 0.566073
C8    C     C_R   0.819587 0.392446 0.408460 0.565899
O9    O     O_2   0.196957 0.210709 0.476998 -0.575969
O10   O     O_2   0.803064 0.788914 0.477232 -0.575955
O11   O     O_2   0.208122 0.731981 0.393953 -0.546549
O12   O     O_2   0.791886 0.267643 0.394178 -0.546507
N1    N     N_R   0.201506 0.472071 0.439297 -0.320221
N2    N     N_R   0.798506 0.527559 0.439476 -0.320199
C9    C     C_R   0.273716 0.534446 0.604258 0.468353
C10   C     C_R   0.726261 0.465249 0.604310 0.468336
C11   C     C_R   0.281667 0.396778 0.344754 0.468947
C12   C     C_R   0.718368 0.602927 0.344798 0.468971
C13   C     C_R   0.324111 0.540016 0.619307 -0.319715
C14   C     C_R   0.675865 0.459784 0.619318 -0.319692
C15   C     C_R   0.332005 0.407369 0.359408 -0.355871
C16   C     C_R   0.668026 0.592433 0.359405 -0.355918
C17   C     C_R   0.252722 0.466507 0.463990 0.147709
C18   C     C_R   0.747286 0.533157 0.464077 0.147748
C19   C     C_R   0.101835 0.484622 0.402423 -0.051833
C20   C     C_R   0.898176 0.514981 0.402584 -0.051749
C21   C     C_R   0.124586 0.345863 0.426673 -0.036016
C22   C     C_R   0.875429 0.653745 0.426851 -0.036057
C23   C     C_R   0.130117 0.616393 0.391868 -0.064567
C24   C     C_R   0.869892 0.383214 0.392072 -0.064559
C25   C     C_R   0.096675 0.214759 0.435070 -0.151216
C26   C     C_R   0.903342 0.784844 0.435222 -0.151283
C27   C     C_R   0.107730 0.753722 0.363686 -0.145119
C28   C     C_R   0.892276 0.245879 0.363883 -0.145195
C29   C     C_R   0.353197 0.479741 0.495110 -0.144689
C30   C     C_R   0.646805 0.520126 0.495104 -0.144699
H1    H     H_    0.354702 0.362391 0.262790 0.172057
H2    H     H_    0.645347 0.637454 0.262765 0.172040
H3    H     H_    0.340355 0.598525 0.722844 0.182596
H4    H     H_    0.659599 0.401316 0.722849 0.182618
H5    H     H_    0.113304 0.107160 0.456820 0.183084
H6    H     H_    0.886717 0.892447 0.456993 0.183070
H7    H     H_    0.128898 0.855512 0.347903 0.187465
H8    H     H_    0.871106 0.144090 0.348133 0.187463
C31   C     C_R   0.971813 0.366081 0.380036 0.045393
C32   C     C_R   0.028195 0.633516 0.379977 0.045395
C33   C     C_R   0.977209 0.641709 0.394140 0.043369
C34   C     C_R   0.022801 0.357888 0.394104 0.043372
C35   C     C_R   0.949214 0.507692 0.391027 0.077102
C36   C     C_R   0.050796 0.491907 0.390938 0.077145
C37   C     C_R   0.942426 0.237210 0.357988 -0.216352
C38   C     C_R   0.057579 0.762385 0.357862 -0.216373
C39   C     C_R   0.953336 0.779210 0.418650 -0.216528
C40   C     C_R   0.046678 0.220389 0.418567 -0.216557
H9    H     H_    0.957331 0.128506 0.332591 0.133664
H10   H     H_    0.042671 0.871087 0.332474 0.133669
H11   H     H_    0.972692 0.883600 0.433777 0.129816
H12   H     H_    0.027327 0.115996 0.433718 0.129814
C41   C     C_1   0.499985 0.065215 0.499993 -0.193400
C42   C     C_1   0.500015 0.934785 0.499993 -0.193404
N3    N     N_1   0.500000 0.500000 0.073640 -0.037241
N4    N     N_1   0.500000 0.500000 0.926360 -0.036301
O13   O     O_3   0.259694 0.335796 0.205790 -0.662196
C43   C     C_3   0.276574 0.189347 0.174258 0.092197
H13   H     H_    0.282513 0.124935 0.290490 0.181621
H14   H     H_    0.310964 0.195526 0.103022 0.131370
C44   C     C_3   0.238756 0.105327 0.070922 -0.320779
H15   H     H_    0.203982 0.099342 0.139956 0.250757
H16   H     H_    0.232444 0.167035 0.953966 0.223900
C45   C     C_3   0.255046 0.946625 0.030113 -0.871690
H17   H     H_    0.289201 0.949826 0.957664 0.260590
H18   H     H_    0.226645 0.889293 0.955655 0.283362
H19   H     H_    0.260887 0.881493 0.144999 0.288770
O14   O     O_3   0.740372 0.663870 0.205863 -0.662220
C46   C     C_3   0.723514 0.810332 0.174268 0.092148
H20   H     H_    0.717515 0.874732 0.290474 0.181539
H21   H     H_    0.689160 0.804167 0.102840 0.131417
C47   C     C_3   0.761391 0.894359 0.071173 -0.320819
H22   H     H_    0.796121 0.900362 0.140441 0.250783
H23   H     H_    0.767778 0.832643 0.954269 0.223934
C48   C     C_3   0.745118 0.053054 0.030238 -0.871474
H24   H     H_    0.711038 0.049823 0.957401 0.260688
H25   H     H_    0.773585 0.110458 0.956129 0.283272
H26   H     H_    0.739152 0.118143 0.145077 0.288678
O15   O     O_3   0.245556 0.615779 0.712610 -0.621467
C49   C     C_3   0.233033 0.528179 0.852002 0.098268
H27   H     H_    0.236328 0.602199 0.961686 0.200916
H28   H     H_    0.257864 0.432321 0.875108 0.136011
C50   C     C_3   0.180497 0.471285 0.836267 -0.368827
H29   H     H_    0.159202 0.549409 0.758622 0.246713
H30   H     H_    0.180360 0.359484 0.776604 0.219218
C51   C     C_3   0.155171 0.457607 0.002488 -0.893373
H31   H     H_    0.174827 0.379333 0.083942 0.292522
H32   H     H_    0.117729 0.413958 0.984535 0.261881
H33   H     H_    0.153115 0.569485 0.061504 0.269315
O16   O     O_3   0.754389 0.383872 0.712703 -0.621436
C52   C     C_3   0.766944 0.471501 0.852036 0.098426
H34   H     H_    0.763529 0.397628 0.961800 0.200926
H35   H     H_    0.742209 0.567642 0.874918 0.135866
C53   C     C_3   0.819544 0.527862 0.836439 -0.368782
H36   H     H_    0.840783 0.449484 0.758917 0.246762
H37   H     H_    0.819818 0.639631 0.776708 0.219115
C54   C     C_3   0.844827 0.541383 0.002738 -0.893337
H38   H     H_    0.825233 0.619933 0.084054 0.292503
H39   H     H_    0.882324 0.584608 0.984886 0.261868
H40   H     H_    0.846734 0.429517 0.061847 0.269342

loop_
_geom_bond_atom_site_label_1
_geom_bond_atom_site_label_2
_geom_bond_distance
_ccdc_geom_bond_type
C31   C35   1.417145 A    
C12   O14   1.388348 S    
C52   H35   1.116797 S    
O13   C43   1.414699 S    
O15   C49   1.415258 S    
C20   C35   1.413701 A    
C10   O16   1.383111 S    
C13   H3    1.083559 S    
C44   H15   1.111818 S    
C11   C17   1.403297 A    
C5    O9    1.349981 S    
C7    N1    1.366855 A    
C43   H14   1.111934 S    
C21   C25   1.396296 A    
O1    C1    1.261902 A    
C40   H12   1.076439 S    
C19   C21   1.407273 A    
C22   C26   1.396286 A    
C7    C23   1.397829 A    
C33   C35   1.417865 A    
O16   C52   1.415254 S    
C34   C36   1.417872 A    
C49   C50   1.537007 S    
C32   C33   1.414296 A    
C51   H33   1.109001 S    
Zn2   N3    1.975175 S    
O7    Zn1   2.000951 S    
C53   H36   1.111505 S    
C5    C21   1.397925 A    
C1    C41   1.363505 S    
C27   H7    1.082902 S    
N1    C17   1.428861 S    
C43   C44   1.529369 S    
C49   H28   1.116798 S    
C52   H34   1.111060 S    
C24   C28   1.396300 A    
O3    Zn1   1.951205 S    
O6    C4    1.276331 A    
C54   H40   1.108995 S    
O3    C2    1.261904 A    
C44   H16   1.111203 S    
C14   H4    1.083555 S    
C12   C18   1.403337 A    
C6    N2    1.367578 A    
C15   H1    1.082544 S    
C34   C40   1.412078 A    
C16   H2    1.082558 S    
O2    C2    1.261877 A    
C45   H19   1.110582 S    
C10   C18   1.410777 A    
C33   C39   1.412070 A    
C46   H21   1.111936 S    
C9    C13   1.396537 A    
C39   H11   1.076444 S    
C43   H13   1.116839 S    
C38   H10   1.076984 S    
C11   C15   1.396585 A    
C51   H31   1.106999 S    
C20   C24   1.407780 A    
O14   C46   1.414706 S    
C45   H18   1.110464 S    
O8    Zn2   2.000953 S    
C48   H24   1.110769 S    
O4    C1    1.261878 A    
C23   C27   1.396301 A    
C46   H20   1.116841 S    
N2    C18   1.428841 S    
C32   C36   1.417146 A    
C13   C29   1.398498 A    
C19   C36   1.413723 A    
C19   C23   1.407791 A    
C37   H9    1.076981 S    
C48   H25   1.110444 S    
O5    C3    1.281701 A    
C50   H29   1.111491 S    
C47   C48   1.526084 S    
C12   C16   1.396618 A    
C6    O10   1.349994 S    
C49   H27   1.111059 S    
C51   H32   1.110450 S    
C53   C54   1.522638 S    
C4    C30   1.456734 S    
C50   H30   1.108701 S    
C47   H23   1.111201 S    
C9    O15   1.383135 S    
C52   C53   1.537022 S    
C8    N2    1.366865 A    
C3    C29   1.456767 S    
O1    Zn1   1.951202 S    
C54   H38   1.107015 S    
C46   C47   1.529371 S    
C2    C42   1.363505 S    
O6    Zn2   2.000991 S    
C8    O12   1.349851 S    
C16   C30   1.401058 A    
C14   C30   1.398500 A    
C45   H17   1.110772 S    
C10   C14   1.396485 A    
Zn1   N4    1.975175 S    
C28   C37   1.387712 A    
C20   C22   1.407270 A    
N3    N4    1.194284 T    
C48   H26   1.110574 S    
C44   C45   1.526060 S    
C31   C37   1.412304 A    
C5    N1    1.367574 A    
C32   C38   1.412308 A    
O4    Zn2   1.951206 S    
C41   C42   1.163841 T    
O2    Zn2   1.951202 S    
O7    C4    1.281676 A    
C53   H37   1.108685 S    
C9    C17   1.410817 A    
O8    C3    1.276333 A    
C28   H8    1.082894 S    
O5    Zn1   2.000993 S    
C50   C51   1.522648 S    
C8    C24   1.397802 A    
C47   H22   1.111804 S    
C15   C29   1.401062 A    
C31   C34   1.414309 A    
C6    C22   1.397890 A    
C25   C40   1.387624 A    
C11   O13   1.388346 S    
C26   C39   1.387606 A    
C25   H5    1.082479 S    
C27   C38   1.387727 A    
C26   H6    1.082475 S    
C54   H39   1.110430 S    
C7    O11   1.349850 S    
