data_mof_unit_57342.cif
_audit_creation_date              2012-12-10T16:32:39-0500
_audit_creation_method            fapswitch 2.2
_symmetry_space_group_name_H-M    P1
_symmetry_Int_Tables_number       1
_space_group_crystal_system       triclinic
_cell_length_a                    16.946314
_cell_length_b                    16.935038
_cell_length_c                    16.95691
_cell_angle_alpha                 65.564772
_cell_angle_beta                  65.541442
_cell_angle_gamma                 65.582146
_cell_volume                      3856.97522642

loop_
_atom_site_label
_atom_site_type_symbol
_atom_type_description
_atom_site_fract_x
_atom_site_fract_y
_atom_site_fract_z
_atom_type_partial_charge
C1    C     C_R   0.590078 0.034226 0.590844 0.245356
C2    C     C_R   0.821745 0.564436 0.032716 0.916419
C3    C     C_R   0.435522 0.967352 0.178224 0.916234
C4    C     C_R   0.564478 0.032648 0.821776 0.916233
C5    C     C_R   0.564553 0.821728 0.032395 0.913435
C6    C     C_R   0.435447 0.178273 0.967605 0.913437
C7    C     C_R   0.032640 0.564480 0.821761 0.915810
C8    C     C_R   0.967360 0.435520 0.178239 0.915811
C9    C     C_R   0.821758 0.032323 0.564599 0.913079
C10   C     C_R   0.178242 0.967677 0.435401 0.913079
C11   C     C_R   0.543386 0.017105 0.544505 -0.386701
C12   C     C_R   0.409922 0.965774 0.409156 0.245356
C13   C     C_R   0.456614 0.982895 0.455494 -0.386700
C14   C     C_R   0.017194 0.543280 0.544530 -0.406510
C15   C     C_R   0.982805 0.456720 0.455470 -0.406511
C16   C     C_R   0.544465 0.543322 0.017218 -0.400794
C17   C     C_R   0.455537 0.456681 0.982773 -0.400797
C18   C     C_R   0.539364 0.071133 0.456320 0.512034
C19   C     C_R   0.460636 0.928867 0.543680 0.512032
C20   C     C_R   0.945317 0.504166 0.587462 0.515917
C21   C     C_R   0.054683 0.495834 0.412538 0.515918
C22   C     C_R   0.456351 0.538931 0.071365 0.528792
C23   C     C_R   0.034351 0.589952 0.590843 0.244521
C24   C     C_R   0.543652 0.461070 0.928628 0.528814
C25   C     C_R   0.496283 0.054411 0.412373 0.504154
C26   C     C_R   0.503718 0.945589 0.587627 0.504151
C27   C     C_R   0.412431 0.495896 0.054522 0.528902
C28   C     C_R   0.587572 0.504106 0.945470 0.528932
C29   C     C_R   0.928499 0.461180 0.543480 0.519682
C30   C     C_R   0.071500 0.538820 0.456519 0.519681
C31   C     C_R   0.548913 0.038669 0.680007 -0.106096
C32   C     C_R   0.451087 0.961331 0.319993 -0.106095
C33   C     C_R   0.038264 0.679414 0.549419 -0.096134
C34   C     C_R   0.965649 0.410048 0.409157 0.244520
C35   C     C_R   0.961736 0.320586 0.450581 -0.096134
C36   C     C_R   0.679911 0.548794 0.038869 -0.090057
C37   C     C_R   0.320089 0.451207 0.961128 -0.090067
C38   C     C_R   0.320450 0.961961 0.450528 -0.100978
C39   C     C_R   0.679550 0.038039 0.549471 -0.100978
C40   C     C_R   0.450650 0.320562 0.961735 -0.082011
C41   C     C_R   0.549351 0.679439 0.038261 -0.082021
C42   C     C_R   0.961356 0.451160 0.319971 -0.097304
C43   C     C_R   0.038644 0.548840 0.680029 -0.097304
C44   C     C_R   0.597221 0.046874 0.725710 -0.098236
C45   C     C_R   0.590743 0.589964 0.034447 0.242128
C46   C     C_R   0.402779 0.953126 0.274290 -0.098236
C47   C     C_R   0.046704 0.725500 0.597309 -0.093908
C48   C     C_R   0.953296 0.274500 0.402691 -0.093908
C49   C     C_R   0.725645 0.597138 0.047033 -0.096998
C50   C     C_R   0.274355 0.402862 0.952966 -0.096993
C51   C     C_R   0.274439 0.953437 0.402633 -0.095566
C52   C     C_R   0.725561 0.046563 0.597366 -0.095566
C53   C     C_R   0.402722 0.274506 0.953267 -0.095581
C54   C     C_R   0.597278 0.725495 0.046731 -0.095575
C55   C     C_R   0.953129 0.402806 0.274296 -0.098342
C56   C     C_R   0.409259 0.410037 0.965547 0.242128
C57   C     C_R   0.046871 0.597194 0.725704 -0.098342
C58   C     C_R   0.682226 0.056983 0.682230 -0.238243
C59   C     C_R   0.317774 0.943017 0.317770 -0.238243
C60   C     C_R   0.057043 0.682210 0.682192 -0.244719
C61   C     C_R   0.942957 0.317790 0.317807 -0.244718
C62   C     C_R   0.682171 0.682173 0.057137 -0.252151
C63   C     C_R   0.317829 0.317827 0.942862 -0.252151
C64   C     C_R   0.967611 0.178260 0.435445 0.913469
C65   C     C_R   0.032389 0.821740 0.564555 0.913468
C66   C     C_R   0.178255 0.435564 0.967284 0.916420
F1    F     F_    0.509005 0.889983 0.671461 -0.595717
F2    F     F_    0.413543 0.574436 0.142148 -0.569132
F3    F     F_    0.110514 0.490094 0.328879 -0.560655
F4    F     F_    0.889486 0.509906 0.671121 -0.560656
F5    F     F_    0.490995 0.110016 0.328539 -0.595715
F6    F     F_    0.142411 0.574216 0.413870 -0.570941
F7    F     F_    0.857589 0.425783 0.586130 -0.570942
F8    F     F_    0.671349 0.509775 0.889805 -0.558143
F9    F     F_    0.328654 0.490217 0.110199 -0.558122
F10   F     F_    0.424733 0.858279 0.586548 -0.593409
F11   F     F_    0.575267 0.141721 0.413452 -0.593408
F12   F     F_    0.586462 0.425554 0.857856 -0.569149
H1    H     H_    0.480973 0.032171 0.714600 0.187557
H2    H     H_    0.482415 0.714431 0.029243 0.187828
H3    H     H_    0.967989 0.519079 0.285352 0.188801
H4    H     H_    0.032011 0.480921 0.714648 0.188802
H5    H     H_    0.718215 0.063805 0.718058 0.193552
H6    H     H_    0.281785 0.936195 0.281942 0.193551
H7    H     H_    0.063835 0.718251 0.718016 0.191348
H8    H     H_    0.936165 0.281749 0.281984 0.191348
H9    H     H_    0.718040 0.718208 0.063908 0.188847
H10   H     H_    0.281960 0.281792 0.936093 0.188847
H11   H     H_    0.519027 0.967829 0.285399 0.187557
H12   H     H_    0.029341 0.714377 0.482473 0.183079
H13   H     H_    0.970659 0.285623 0.517527 0.183079
H14   H     H_    0.714496 0.480852 0.032325 0.191525
H15   H     H_    0.285504 0.519149 0.967673 0.191519
H16   H     H_    0.285433 0.970982 0.517451 0.182229
H17   H     H_    0.714566 0.029018 0.482549 0.182229
H18   H     H_    0.517586 0.285570 0.970753 0.187835
O1    O     O_R   0.982940 0.138950 0.510160 -0.630319
O2    O     O_R   0.982940 0.510160 0.138950 -0.619783
O3    O     O_R   0.861050 0.017060 0.489840 -0.632102
O4    O     O_R   0.138950 0.982940 0.510160 -0.632102
O5    O     O_R   0.867700 0.025880 0.612340 -0.625234
O6    O     O_R   0.132300 0.974120 0.387660 -0.625235
O7    O     O_R   0.025880 0.612340 0.867700 -0.632091
O8    O     O_R   0.974120 0.387660 0.132300 -0.632091
O9    O     O_R   0.612340 0.867700 0.025880 -0.632881
O10   O     O_R   0.387660 0.132300 0.974120 -0.632881
O11   O     O_R   0.387660 0.974120 0.132300 -0.627155
O12   O     O_R   0.017060 0.861050 0.489840 -0.630319
O13   O     O_R   0.612340 0.025880 0.867700 -0.627154
O14   O     O_R   0.132300 0.387660 0.974120 -0.634487
O15   O     O_R   0.867700 0.612340 0.025880 -0.634486
O16   O     O_R   0.974120 0.132300 0.387660 -0.627132
O17   O     O_R   0.025880 0.867700 0.612340 -0.627132
O18   O     O_R   0.138950 0.510160 0.982940 -0.617334
O19   O     O_R   0.861050 0.489840 0.017060 -0.617333
O20   O     O_R   0.510160 0.982940 0.138950 -0.626049
O21   O     O_R   0.489840 0.017060 0.861050 -0.626049
O22   O     O_R   0.489840 0.861050 0.017060 -0.622501
O23   O     O_R   0.510160 0.138950 0.982940 -0.622499
O24   O     O_R   0.017060 0.489840 0.861050 -0.619783
Zn1   Zn    Zn3+2 0.004880 0.004880 0.583590 1.003411
Zn2   Zn    Zn3+2 0.995120 0.995120 0.416410 1.003411
Zn3   Zn    Zn3+2 0.004880 0.583590 0.004880 1.016327
Zn4   Zn    Zn3+2 0.995120 0.416410 0.995120 1.016330
Zn5   Zn    Zn3+2 0.583590 0.004880 0.004880 1.010934
Zn6   Zn    Zn3+2 0.416410 0.995120 0.995120 1.010932

loop_
_geom_bond_atom_site_label_1
_geom_bond_atom_site_label_2
_ccdc_geom_bond_type
C16   C28   A    
C4    O13   A    
C11   C18   A    
C46   C59   A    
C40   C56   A    
C34   C42   A    
C28   F8    S    
C41   H2    S    
C5    O9    A    
C18   C25   A    
C26   F1    S    
C49   C62   A    
C19   F10   S    
C40   H18   S    
C34   C35   A    
C3    O20   A    
C63   H10   S    
C48   C64   S    
C29   F7    S    
C10   C51   S    
C1    C31   A    
C23   C43   A    
O4    Zn1   S    
C19   C26   A    
C8    O2    A    
O1    Zn1   S    
O14   Zn4   S    
C47   C60   A    
C37   C56   A    
C44   C58   A    
C23   C33   A    
C1    C11   S    
C25   F5    S    
C33   H12   S    
O21   Zn6   S    
C15   C34   S    
C36   H14   S    
C39   C52   A    
O7    Zn3   S    
C9    O3    A    
C7    O7    A    
C12   C32   A    
C50   C63   A    
C13   C25   A    
C9    C52   S    
C32   C46   A    
C14   C30   A    
C27   F9    S    
C35   C48   A    
C8    C55   S    
C15   C29   A    
C20   C29   A    
O2    Zn3   S    
C2    O15   A    
C17   C24   A    
C31   C44   A    
C13   C19   A    
C42   H3    S    
O15   Zn3   S    
C17   C27   A    
C14   C20   A    
C5    C54   S    
C10   O6    A    
C59   H6    S    
C1    C39   A    
C57   C60   A    
C38   C51   A    
C4    C44   S    
C11   C26   A    
C3    O11   A    
O5    Zn1   S    
C21   F3    S    
C14   C23   S    
O16   Zn2   S    
C2    C49   S    
C42   C55   A    
C8    O8    A    
C2    O19   A    
C32   H11   S    
C39   H17   S    
C38   H16   S    
C6    O10   A    
C37   H15   S    
C36   C45   A    
C65   O12   A    
C66   O14   A    
C10   O4    A    
C50   C66   S    
C17   C56   S    
C22   F2    S    
C52   C58   A    
O3    Zn2   S    
O18   Zn3   S    
O23   Zn5   S    
O13   Zn5   S    
C64   O1    A    
O20   Zn5   S    
C33   C47   A    
C4    O21   A    
C51   C59   A    
C6    C53   S    
C6    O23   A    
C20   F4    S    
C62   H9    S    
C24   F12   S    
C16   C22   A    
O19   Zn4   S    
C66   O18   A    
C65   O17   A    
C7    O24   A    
C24   C28   A    
O11   Zn6   S    
O12   Zn2   S    
C16   C45   S    
C30   F6    S    
C60   H7    S    
C31   H1    S    
O8    Zn4   S    
C54   C62   A    
C21   C30   A    
O10   Zn6   S    
C3    C46   S    
O9    Zn5   S    
C5    O22   A    
C22   C27   A    
C58   H5    S    
C37   C50   A    
C53   C63   A    
C48   C61   A    
C18   F11   S    
C55   C61   A    
C7    C57   S    
C12   C38   A    
C41   C54   A    
C64   O16   A    
C61   H8    S    
C43   C57   A    
C15   C21   A    
O17   Zn1   S    
C12   C13   S    
C9    O5    A    
C40   C53   A    
C43   H4    S    
C41   C45   A    
O22   Zn6   S    
O6    Zn2   S    
C47   C65   S    
C36   C49   A    
O24   Zn4   S    
C35   H13   S    
