data_mof_unit_62457.cif
_audit_creation_date              2012-12-10T19:31:25-0500
_audit_creation_method            fapswitch 2.2
_symmetry_space_group_name_H-M    P1
_symmetry_Int_Tables_number       1
_space_group_crystal_system       triclinic
_cell_length_a                    19.230423
_cell_length_b                    15.743012
_cell_length_c                    14.951061
_cell_angle_alpha                 90.01171
_cell_angle_beta                  89.963737
_cell_angle_gamma                 90.055231
_cell_volume                      4526.35257048

loop_
_atom_site_label
_atom_site_type_symbol
_atom_type_description
_atom_site_fract_x
_atom_site_fract_y
_atom_site_fract_z
_atom_type_partial_charge
Br1   Br    Br    0.301125 0.655541 0.607076 -0.391986
Br2   Br    Br    0.509952 0.070676 0.705518 -0.286365
Br3   Br    Br    0.505250 0.304132 0.927266 -0.298128
Br4   Br    Br    0.494749 0.695869 0.072734 -0.298143
Br5   Br    Br    0.699099 0.344546 0.393094 -0.391965
Br6   Br    Br    0.636709 0.602490 0.926900 -0.314555
Br7   Br    Br    0.363290 0.397512 0.073101 -0.314551
Br8   Br    Br    0.300715 0.345055 0.392386 -0.401875
Br9   Br    Br    0.699039 0.655245 0.607429 -0.402060
Br10  Br    Br    0.633595 0.071316 0.386827 -0.295737
Br11  Br    Br    0.366414 0.928684 0.613174 -0.295767
Br12  Br    Br    0.490058 0.929323 0.294484 -0.286425
C1    C     C_R   0.499922 0.337566 0.499972 0.922558
C2    C     C_3   0.496053 0.972030 0.415798 0.272089
C3    C     C_3   0.499682 0.082965 0.499928 -0.084736
C4    C     C_3   0.500327 0.917034 0.500073 -0.084747
C5    C     C_1   0.499554 0.173674 0.499880 0.127753
C6    C     C_1   0.500453 0.826326 0.500121 0.127791
C7    C     C_3   0.501956 0.420219 0.970027 0.278144
C8    C     C_3   0.498042 0.579781 0.029973 0.278143
C9    C     C_3   0.558290 0.461734 0.030159 -0.289201
C10   C     C_3   0.441709 0.538267 0.969841 -0.289172
C11   C     C_3   0.444404 0.458055 0.030073 0.279526
C12   C     C_R   0.500078 0.662434 0.500027 0.922591
C13   C     C_3   0.555595 0.541945 0.969927 0.279531
C14   C     C_3   0.500161 0.499946 0.089680 -0.156449
C15   C     C_3   0.499837 0.500055 0.910320 -0.156459
C16   C     C_R   0.365618 0.500015 0.500031 0.945308
C17   C     C_R   0.634381 0.500004 0.499967 0.945370
C18   C     C_1   0.500108 0.499965 0.189844 0.273429
C19   C     C_1   0.499892 0.500035 0.810156 0.273489
C20   C     C_R   0.254530 0.564185 0.546173 0.230032
C21   C     C_R   0.745553 0.436196 0.453680 0.230012
C22   C     C_R   0.182420 0.564001 0.545735 -0.146195
C23   C     C_3   0.559520 0.972031 0.538123 -0.295343
C24   C     C_R   0.817657 0.436774 0.453746 -0.146184
C25   C     C_R   0.145946 0.500594 0.499558 -0.037414
C26   C     C_R   0.854053 0.500437 0.499642 -0.037397
C27   C     C_R   0.182282 0.437012 0.453547 -0.144442
C28   C     C_R   0.817632 0.563860 0.545782 -0.144456
C29   C     C_R   0.254380 0.436411 0.453502 0.234230
C30   C     C_R   0.745528 0.564063 0.546199 0.234139
C31   C     C_R   0.290635 0.500153 0.499993 -0.178817
C32   C     C_R   0.709360 0.500084 0.499948 -0.178712
C33   C     C_R   0.929866 0.500613 0.499481 0.343472
C34   C     C_3   0.440489 0.027969 0.461878 -0.295396
C35   C     C_R   0.070128 0.500708 0.499427 0.343487
C36   C     C_3   0.554665 0.028194 0.453483 0.275577
C37   C     C_3   0.445345 0.971806 0.546518 0.275583
C38   C     C_1   0.499683 0.248829 0.499917 -0.064647
C39   C     C_1   0.500321 0.751170 0.500083 -0.064532
C40   C     C_3   0.503957 0.027969 0.584203 0.272110
H1    H     H_    0.155146 0.613955 0.581054 0.200546
H2    H     H_    0.844999 0.386914 0.418362 0.200546
H3    H     H_    0.154901 0.387243 0.418019 0.200277
H4    H     H_    0.844946 0.613806 0.581121 0.200247
H5    H     H_    0.607993 0.947665 0.569139 0.226306
H6    H     H_    0.392016 0.052334 0.430862 0.226285
H7    H     H_    0.606354 0.430189 0.054252 0.221036
H8    H     H_    0.393645 0.569812 0.945747 0.221051
N1    N     N_R   0.034463 0.442313 0.451152 -0.145299
N2    N     N_R   0.965530 0.559049 0.547715 -0.145217
N3    N     N_R   0.965516 0.442266 0.451179 -0.145477
N4    N     N_R   0.034484 0.559096 0.547688 -0.145402
N5    N     N_1   0.500020 0.500000 0.268010 -0.069649
N6    N     N_1   0.499980 0.500000 0.731990 -0.069618
O1    O     O_R   0.500000 0.376780 0.574460 -0.609456
O2    O     O_R   0.500000 0.623220 0.425540 -0.609499
O3    O     O_R   0.500010 0.376780 0.425520 -0.580612
O4    O     O_R   0.499990 0.623220 0.574480 -0.580525
O5    O     O_R   0.398130 0.499990 0.574490 -0.594168
O6    O     O_R   0.601870 0.500010 0.425510 -0.594263
O7    O     O_R   0.398140 0.499990 0.425550 -0.586140
O8    O     O_R   0.601860 0.500010 0.574450 -0.586079
Zn1   Zn    Zn3+2 0.499990 0.500000 0.599450 1.086350
Zn2   Zn    Zn3+2 0.500010 0.500000 0.400550 1.086253

loop_
_geom_bond_atom_site_label_1
_geom_bond_atom_site_label_2
_ccdc_geom_bond_type
C19   N6    T    
O5    Zn1   S    
C9    C14   S    
C22   C25   A    
O6    Zn2   S    
C12   O4    A    
C2    C34   S    
C34   C37   S    
Br9   C30   S    
N5    Zn2   S    
C1    O3    A    
C7    C9    S    
C9    H7    S    
C4    C23   S    
C10   H8    S    
Br6   C13   S    
C8    C13   S    
C16   O7    A    
C33   N2    A    
C21   C24   A    
O3    Zn2   S    
C11   C14   S    
N1    N3    A    
C26   C33   S    
N2    N4    A    
C27   H3    S    
C28   H4    S    
Br5   C21   S    
Br3   C7    S    
C25   C35   S    
C7    C15   S    
C17   O6    A    
C12   C39   S    
C28   C30   A    
C34   H6    S    
C29   C31   A    
C30   C32   A    
C3    C36   S    
C23   C36   S    
C6    C39   T    
O8    Zn1   S    
C15   C19   S    
Br8   C29   S    
C27   C29   A    
C35   N4    A    
C2    C36   S    
C17   O8    A    
C33   N3    A    
Br1   C20   S    
C20   C22   A    
C7    C11   S    
Br11  C37   S    
C37   C40   S    
C3    C40   S    
C4    C37   S    
Br2   C40   S    
Br12  C2    S    
C14   C18   S    
C10   C15   S    
C17   C32   S    
Br10  C36   S    
O7    Zn2   S    
C2    C4    S    
C16   O5    A    
C13   C15   S    
O4    Zn1   S    
C1    O1    A    
C3    C5    S    
C9    C13   S    
C21   C32   A    
C8    C10   S    
C5    C38   T    
C35   N1    A    
O2    Zn2   S    
C16   C31   S    
C23   H5    S    
C24   C26   A    
C25   C27   A    
C26   C28   A    
C8    C14   S    
Br7   C11   S    
N6    Zn1   S    
C20   C31   A    
C18   N5    T    
C24   H2    S    
C12   O2    A    
C1    C38   S    
Br4   C8    S    
O1    Zn1   S    
C22   H1    S    
C4    C6    S    
C23   C40   S    
C10   C11   S    
C3    C34   S    
