data_mof_unit_24648.cif
_audit_creation_date              2012-12-11T15:44:45-0500
_audit_creation_method            fapswitch 2.2
_symmetry_space_group_name_H-M    P1
_symmetry_Int_Tables_number       1
_space_group_crystal_system       triclinic
_cell_length_a                    19.277754
_cell_length_b                    10.930744
_cell_length_c                    18.732565
_cell_angle_alpha                 90.239492
_cell_angle_beta                  90.479099
_cell_angle_gamma                 89.753849
_cell_volume                      3947.12140838

loop_
_atom_site_label
_atom_site_type_symbol
_atom_type_description
_atom_site_fract_x
_atom_site_fract_y
_atom_site_fract_z
_atom_type_partial_charge
C1    C     C_R   0.759375 0.537704 0.647634 0.527877
C2    C     C_R   0.241251 0.537177 0.352634 0.534185
C3    C     C_R   0.260394 0.034530 0.646476 0.536247
C4    C     C_R   0.738721 0.031760 0.353739 0.530426
C5    C     C_R   0.744574 0.021490 0.550668 -0.118202
C6    C     C_R   0.163329 0.124973 0.481311 -0.166598
C7    C     C_R   0.333601 0.582000 0.526451 -0.139417
C8    C     C_R   0.660922 0.623756 0.482067 -0.169024
C9    C     C_R   0.730257 0.990936 0.480208 -0.121509
C10   C     C_R   0.175093 0.098316 0.553427 -0.155159
C11   C     C_R   0.320966 0.550940 0.455792 -0.143995
C12   C     C_R   0.672024 0.600850 0.555339 -0.160607
C13   C     C_3   0.747086 0.299803 0.416001 -0.222641
C14   C     C_3   0.367691 0.123069 0.530626 -0.201039
C15   C     C_3   0.159041 0.723846 0.450577 -0.228914
C16   C     C_3   0.860908 0.665205 0.537557 -0.217769
C17   C     C_3   0.743535 0.332641 0.494047 -0.038031
C18   C     C_3   0.354990 0.145238 0.451562 -0.037497
C19   C     C_3   0.169195 0.719070 0.530252 -0.013460
C20   C     C_3   0.848572 0.677661 0.457189 -0.011905
C21   C     C_R   0.772285 0.136436 0.566288 0.057630
C22   C     C_R   0.218867 0.158600 0.437688 0.010378
C23   C     C_R   0.293064 0.669631 0.560961 0.005359
C24   C     C_R   0.715229 0.663884 0.439117 -0.005025
C25   C     C_R   0.996227 0.351222 0.423621 -0.026790
C26   C     C_R   0.999915 0.339688 0.573770 -0.037786
C27   C     C_R   0.506361 0.844887 0.430164 -0.012053
C28   C     C_R   0.511442 0.828945 0.580621 -0.038200
C29   C     C_R   0.958445 0.138284 0.417907 -0.090065
C30   C     C_R   0.986281 0.113268 0.562925 -0.088893
C31   C     C_R   0.479952 0.623306 0.424467 -0.084687
C32   C     C_R   0.503051 0.604541 0.570842 -0.100203
C33   C     C_R   0.947688 0.026557 0.450966 -0.122430
C34   C     C_R   0.963265 0.013343 0.523016 -0.131081
C35   C     C_R   0.483238 0.508581 0.456492 -0.150701
C36   C     C_R   0.496404 0.499115 0.529337 -0.172087
C37   C     C_R   0.990130 0.231269 0.532277 -0.001432
C38   C     C_R   0.981890 0.240398 0.457550 -0.012208
C39   C     C_R   0.502266 0.721627 0.539169 0.015163
C40   C     C_R   0.495514 0.730577 0.463932 -0.000704
C41   C     C_R   0.009690 0.454237 0.538883 0.012177
C42   C     C_R   0.001646 0.461857 0.464631 0.032846
C43   C     C_R   0.532231 0.936364 0.547176 -0.004953
C44   C     C_R   0.518734 0.951163 0.473844 0.031485
C45   C     C_R   0.789972 0.168726 0.638607 0.554569
C46   C     C_R   0.208763 0.171936 0.360845 0.566132
C47   C     C_R   0.294020 0.676266 0.639898 0.570372
C48   C     C_R   0.707893 0.673279 0.360902 0.552423
C49   C     C_R   0.022460 0.564731 0.577420 -0.035053
C50   C     C_R   0.998596 0.581535 0.433742 -0.043987
C51   C     C_R   0.559220 0.034343 0.587870 -0.077671
C52   C     C_R   0.517966 0.073140 0.447784 -0.053778
C53   C     C_R   0.017305 0.678893 0.546334 -0.108691
C54   C     C_R   0.005728 0.687343 0.474115 -0.141029
C55   C     C_R   0.560513 0.151268 0.560138 -0.090076
C56   C     C_R   0.539182 0.170884 0.490239 -0.125687
C57   C     C_R   0.744851 0.058440 0.071419 0.021427
C58   C     C_R   0.258044 0.050605 0.930755 0.018760
C59   C     C_R   0.244847 0.558429 0.071416 0.021462
C60   C     C_R   0.758040 0.550616 0.930753 0.018641
C61   C     C_R   0.784264 0.978446 0.029607 0.047170
C62   C     C_R   0.205972 0.991203 0.968116 0.036053
C63   C     C_R   0.284267 0.478444 0.029606 0.046852
C64   C     C_R   0.705971 0.491210 0.968114 0.036314
C65   C     C_R   0.786606 0.988359 0.956600 0.018173
C66   C     C_R   0.201251 0.000479 0.040881 0.021345
C67   C     C_R   0.286612 0.488363 0.956600 0.018640
C68   C     C_R   0.701252 0.500477 0.040881 0.020880
C69   C     C_R   0.702625 0.152203 0.962289 -0.163999
C70   C     C_R   0.308829 0.111160 0.044980 -0.153115
C71   C     C_R   0.202618 0.652187 0.962286 -0.164203
C72   C     C_R   0.808828 0.611160 0.044980 -0.153148
C73   C     C_R   0.700186 0.140871 0.036725 -0.172767
C74   C     C_R   0.313170 0.102038 0.970293 -0.152156
C75   C     C_R   0.200176 0.640850 0.036721 -0.172596
C76   C     C_R   0.813165 0.602049 0.970292 -0.152239
C77   C     C_3   0.859296 0.945878 0.035634 -0.265708
C78   C     C_3   0.129451 0.996000 0.956642 -0.277628
C79   C     C_3   0.359301 0.445890 0.035637 -0.265919
C80   C     C_3   0.629449 0.496008 0.956641 -0.277600
C81   C     C_3   0.861617 0.952394 0.955116 -0.271228
C82   C     C_3   0.123684 0.006779 0.036741 -0.269986
C83   C     C_3   0.361626 0.452414 0.955120 -0.271051
C84   C     C_3   0.623684 0.506778 0.036741 -0.269957
C85   C     C_R   0.750390 0.082210 0.922162 0.013685
C86   C     C_R   0.248730 0.071305 0.079789 0.016181
C87   C     C_R   0.250392 0.582208 0.922162 0.013947
C88   C     C_R   0.748730 0.571300 0.079791 0.015531
C89   C     C_R   0.971890 0.345535 0.647059 0.524018
C90   C     C_R   0.027367 0.348292 0.352053 0.530549
C91   C     C_R   0.473696 0.843850 0.648733 0.524111
C92   C     C_R   0.529926 0.847457 0.354586 0.530560
C93   C     C_R   0.992265 0.341317 0.079526 0.018252
C94   C     C_R   0.983651 0.341726 0.930574 0.020838
C95   C     C_R   0.492281 0.841317 0.079516 0.018184
C96   C     C_R   0.483676 0.841723 0.930563 0.021112
C97   C     C_R   0.978691 0.450092 0.042436 0.027697
C98   C     C_R   0.974894 0.449329 0.969526 0.043054
C99   C     C_R   0.478715 0.950092 0.042424 0.027504
C100  C     C_R   0.474922 0.949327 0.969515 0.043320
C101  C     C_R   0.985190 0.230215 0.967604 -0.166966
C102  C     C_R   0.987335 0.229945 0.042286 -0.172292
C103  C     C_R   0.485212 0.730213 0.967594 -0.166953
C104  C     C_R   0.487352 0.729944 0.042275 -0.172236
C105  C     C_3   0.014999 0.571643 0.042388 -0.268304
C106  C     C_3   0.011039 0.568727 0.961887 -0.279103
C107  C     C_3   0.515026 0.071639 0.042376 -0.268621
C108  C     C_3   0.511068 0.068722 0.961875 -0.279017
C109  C     C_R   0.762581 0.525987 0.854617 0.546823
C110  C     C_R   0.238516 0.529372 0.146639 0.546149
C111  C     C_R   0.262584 0.025978 0.854619 0.547506
C112  C     C_R   0.738518 0.029380 0.146642 0.544150
C113  C     C_R   0.772570 0.126090 0.852854 0.557573
C114  C     C_R   0.227663 0.123806 0.147868 0.552771
C115  C     C_R   0.272572 0.626094 0.852856 0.559393
C116  C     C_R   0.727665 0.623800 0.147871 0.552322
C117  C     C_R   0.967899 0.346954 0.855173 0.546907
C118  C     C_R   0.028451 0.347042 0.147412 0.548156
C119  C     C_R   0.467910 0.846952 0.855167 0.544728
C120  C     C_R   0.528456 0.847042 0.147409 0.550964
C121  C     C_R   0.748272 0.070997 0.425338 0.049557
C122  C     C_R   0.242720 0.104873 0.582633 0.015133
C123  C     C_R   0.266987 0.606529 0.415815 0.009739
C124  C     C_R   0.738396 0.615009 0.586214 0.000599
C125  C     C_R   0.778270 0.183054 0.440108 -0.010897
C126  C     C_R   0.294112 0.160457 0.542130 -0.018048
C127  C     C_R   0.234875 0.709583 0.445728 -0.017352
C128  C     C_R   0.785640 0.682495 0.547043 -0.025112
C129  C     C_R   0.784868 0.219398 0.511261 0.017767
C130  C     C_R   0.282669 0.184395 0.470469 0.024007
C131  C     C_R   0.244450 0.732680 0.519621 0.016511
C132  C     C_R   0.775166 0.700556 0.474398 0.020747
Cr1   Cr    Cr6+3 0.885860 0.491680 0.749630 0.998325
Cr2   Cr    Cr6+3 0.114140 0.491680 0.250370 0.995234
Cr3   Cr    Cr6+3 0.385860 0.991680 0.749630 1.002918
Cr4   Cr    Cr6+3 0.614140 0.991680 0.250370 0.998775
Cr5   Cr    Cr6+3 0.730490 0.332970 0.748720 0.991494
Cr6   Cr    Cr6+3 0.269510 0.332970 0.251280 0.996118
Cr7   Cr    Cr6+3 0.230490 0.832970 0.748720 0.993062
Cr8   Cr    Cr6+3 0.769510 0.832970 0.251280 0.998601
Cr9   Cr    Cr6+3 0.887570 0.179310 0.750150 0.997624
Cr10  Cr    Cr6+3 0.112430 0.179310 0.249850 0.997850
Cr11  Cr    Cr6+3 0.387570 0.679310 0.750150 0.993147
Cr12  Cr    Cr6+3 0.612430 0.679310 0.249850 0.992813
H1    H     H_    0.732533 0.957534 0.592783 0.128396
H2    H     H_    0.112244 0.110323 0.458600 0.151047
H3    H     H_    0.368291 0.523998 0.556447 0.162920
H4    H     H_    0.612905 0.597356 0.457427 0.162364
H5    H     H_    0.025584 0.760236 0.578248 0.090150
H6    H     H_    0.002529 0.775944 0.448905 0.092581
H7    H     H_    0.574912 0.226950 0.594305 0.119349
H8    H     H_    0.538078 0.262106 0.468708 0.105078
H9    H     H_    0.671695 0.222965 0.937276 0.138011
H10   H     H_    0.349577 0.156461 0.074655 0.118450
H11   H     H_    0.171684 0.722944 0.937273 0.137918
H12   H     H_    0.849576 0.656457 0.074655 0.118683
H13   H     H_    0.868273 0.852881 0.056651 0.136711
H14   H     H_    0.108141 0.908975 0.935159 0.133493
H15   H     H_    0.368282 0.352891 0.056652 0.136590
H16   H     H_    0.608140 0.408985 0.935155 0.133524
H17   H     H_    0.889978 0.018551 0.062683 0.135895
H18   H     H_    0.112543 0.079776 0.927753 0.138269
H19   H     H_    0.389977 0.518566 0.062690 0.136182
H20   H     H_    0.612543 0.579786 0.927755 0.137815
H21   H     H_    0.895985 0.025582 0.936095 0.162340
H22   H     H_    0.104113 0.097467 0.053705 0.169216
H23   H     H_    0.395989 0.525613 0.936104 0.162321
H24   H     H_    0.604116 0.597464 0.053709 0.169290
H25   H     H_    0.869733 0.861931 0.929198 0.126620
H26   H     H_    0.098541 0.926548 0.061848 0.128762
H27   H     H_    0.369751 0.361954 0.929200 0.127004
H28   H     H_    0.598542 0.426544 0.061846 0.128480
H29   H     H_    0.987683 0.144475 0.938930 0.117576
H30   H     H_    0.992378 0.143856 0.070096 0.115949
H31   H     H_    0.487701 0.644472 0.938919 0.117643
H32   H     H_    0.492387 0.643855 0.070087 0.116035
H33   H     H_    0.069160 0.566648 0.062232 0.173412
H34   H     H_    0.977322 0.641584 0.939196 0.131007
H35   H     H_    0.569186 0.066636 0.062224 0.173253
H36   H     H_    0.477350 0.141578 0.939184 0.131197
H37   H     H_    0.982977 0.645660 0.066426 0.121817
H38   H     H_    0.062487 0.558922 0.936051 0.141054
H39   H     H_    0.483006 0.145659 0.066412 0.121661
H40   H     H_    0.562516 0.058915 0.936039 0.140787
H41   H     H_    0.704166 0.906141 0.468224 0.112454
H42   H     H_    0.132858 0.060822 0.583989 0.130657
H43   H     H_    0.347876 0.470611 0.436414 0.144256
H44   H     H_    0.632328 0.554533 0.584755 0.139006
H45   H     H_    0.130383 0.645042 0.428227 0.192048
H46   H     H_    0.879227 0.573886 0.555377 0.173539
H47   H     H_    0.695770 0.288850 0.389021 0.167455
H48   H     H_    0.377993 0.025750 0.544487 0.178181
H49   H     H_    0.784689 0.353712 0.384933 0.108370
H50   H     H_    0.404265 0.189620 0.555195 0.121561
H51   H     H_    0.141364 0.814758 0.430884 0.118811
H52   H     H_    0.888476 0.744108 0.561796 0.117933
H53   H     H_    0.769049 0.418422 0.510039 0.136096
H54   H     H_    0.386843 0.220126 0.428998 0.131510
H55   H     H_    0.144895 0.794646 0.561131 0.155757
H56   H     H_    0.873484 0.757596 0.431929 0.153947
H57   H     H_    0.928418 0.949939 0.420165 0.108353
H58   H     H_    0.956852 0.925893 0.548423 0.099650
H59   H     H_    0.473824 0.427336 0.424778 0.094803
H60   H     H_    0.498420 0.410395 0.554545 0.103572
H61   H     H_    0.946076 0.145570 0.361594 0.127463
H62   H     H_    0.001999 0.095757 0.617391 0.132525
H63   H     H_    0.465431 0.626567 0.368656 0.137932
H64   H     H_    0.514013 0.592562 0.627083 0.131715
H65   H     H_    0.982902 0.598484 0.379228 0.172448
H66   H     H_    0.042238 0.565033 0.631644 0.148215
H67   H     H_    0.496290 0.097648 0.396544 0.158612
H68   H     H_    0.575345 0.021587 0.642914 0.127764
O1    O     O_R   0.957020 0.451640 0.669920 -0.538561
O2    O     O_R   0.042980 0.451640 0.330080 -0.538574
O3    O     O_R   0.457020 0.951640 0.669920 -0.522916
O4    O     O_R   0.542980 0.951640 0.330080 -0.527420
O5    O     O_R   0.736470 0.210100 0.823360 -0.505135
O6    O     O_R   0.263530 0.210100 0.176640 -0.502216
O7    O     O_R   0.236470 0.710100 0.823360 -0.505130
O8    O     O_R   0.763530 0.710100 0.176640 -0.500204
O9    O     O_R   0.831960 0.093290 0.830130 -0.520811
O10   O     O_R   0.168040 0.093290 0.169870 -0.519898
O11   O     O_R   0.331960 0.593290 0.830130 -0.519650
O12   O     O_R   0.668040 0.593290 0.169870 -0.520682
O13   O     O_R   0.945600 0.250580 0.824860 -0.509433
O14   O     O_R   0.054400 0.250580 0.175140 -0.510697
O15   O     O_R   0.445600 0.750580 0.824860 -0.510689
O16   O     O_R   0.554400 0.750580 0.175140 -0.508915
O17   O     O_3   0.834640 0.334650 0.749500 -0.260840
O18   O     O_3   0.165360 0.334650 0.250500 -0.261083
O19   O     O_3   0.334640 0.834650 0.749500 -0.267993
O20   O     O_3   0.665360 0.834650 0.250500 -0.264889
O21   O     O_R   0.821450 0.543440 0.674610 -0.502105
O22   O     O_R   0.178550 0.543440 0.325390 -0.506900
O23   O     O_R   0.321450 0.043440 0.674610 -0.501654
O24   O     O_R   0.678550 0.043440 0.325390 -0.504112
O25   O     O_R   0.715320 0.458650 0.668100 -0.549422
O26   O     O_R   0.284680 0.458650 0.331900 -0.536864
O27   O     O_R   0.215320 0.958650 0.668100 -0.538784
O28   O     O_R   0.784680 0.958650 0.331900 -0.534142
O29   O     O_R   0.737170 0.209590 0.674530 -0.506718
O30   O     O_R   0.262830 0.209590 0.325470 -0.509752
O31   O     O_R   0.237170 0.709590 0.674530 -0.512469
O32   O     O_R   0.762830 0.709590 0.325470 -0.507360
O33   O     O_R   0.832710 0.092740 0.669580 -0.520085
O34   O     O_R   0.167290 0.092740 0.330420 -0.520218
O35   O     O_R   0.332710 0.592740 0.669580 -0.527041
O36   O     O_R   0.667290 0.592740 0.330420 -0.524072
O37   O     O_R   0.946290 0.250060 0.676040 -0.517943
O38   O     O_R   0.053710 0.250060 0.323960 -0.517557
O39   O     O_R   0.446290 0.750060 0.676040 -0.524480
O40   O     O_R   0.553710 0.750060 0.323960 -0.524407
O41   O     O_R   0.956270 0.452200 0.830470 -0.519136
O42   O     O_R   0.043730 0.452200 0.169530 -0.525170
O43   O     O_R   0.456270 0.952200 0.830470 -0.519721
O44   O     O_R   0.543730 0.952200 0.169530 -0.524279
O45   O     O_R   0.820760 0.543950 0.823440 -0.505327
O46   O     O_R   0.179240 0.543950 0.176560 -0.508143
O47   O     O_R   0.320760 0.043950 0.823440 -0.504854
O48   O     O_R   0.679240 0.043950 0.176560 -0.509786
O49   O     O_R   0.714570 0.459210 0.828640 -0.518980
O50   O     O_R   0.285430 0.459210 0.171360 -0.517865
O51   O     O_R   0.214570 0.959210 0.828640 -0.519080
O52   O     O_R   0.785430 0.959210 0.171360 -0.517988
H69   H     H_    0.665695 0.199332 0.067041 0.120831
H70   H     H_    0.357953 0.138280 0.943583 0.125636
H71   H     H_    0.165680 0.699303 0.067036 0.121258
H72   H     H_    0.857946 0.638297 0.943581 0.125575
N1    N     N_3   0.672440 0.321680 0.518858 -0.633011
H73   H     H_    0.641135 0.384665 0.491925 0.232627
H74   H     H_    0.671108 0.342323 0.572933 0.266286
N2    N     N_3   0.358412 0.030774 0.410403 -0.644537
H75   H     H_    0.351647 0.050579 0.356328 0.260391
H76   H     H_    0.318866 0.971112 0.425513 0.249494
N3    N     N_3   0.154772 0.594811 0.556342 -0.642843
H77   H     H_    0.162089 0.587281 0.611198 0.258098
H78   H     H_    0.183287 0.526179 0.530522 0.248730
N4    N     N_3   0.859689 0.562161 0.418239 -0.660501
H79   H     H_    0.827962 0.552009 0.373601 0.266906
H80   H     H_    0.854826 0.485658 0.450605 0.223970

loop_
_geom_bond_atom_site_label_1
_geom_bond_atom_site_label_2
_ccdc_geom_bond_type
C58   C62   A    
C71   C75   A    
C55   C56   A    
C82   H26   S    
C67   C83   S    
C101  C102  A    
Cr10  O38   S    
C59   C75   A    
Cr9   O37   S    
C41   C42   A    
C14   C18   S    
C96   C119  S    
C101  H29   S    
C35   C36   A    
Cr10  O10   S    
C48   O32   A    
C43   C51   A    
C47   O35   A    
C97   C98   A    
C75   H71   S    
C119  O15   A    
C54   H6    S    
C91   O39   A    
C53   C54   A    
C118  O14   A    
C26   C89   S    
C7    C11   A    
C90   O38   A    
C117  O13   A    
C25   C90   S    
C50   C54   A    
Cr11  O39   S    
C72   H12   S    
C64   C68   A    
C115  O11   A    
N3    H78   S    
C20   N4    S    
C20   H56   S    
C110  O46   A    
C9    H41   S    
C65   C81   S    
C79   H15   S    
C6    H2    S    
C94   C117  S    
C95   C99   A    
C80   H16   S    
C57   C112  S    
C94   C98   A    
Cr9   O17   S    
C12   H44   S    
C29   C33   A    
Cr8   O28   S    
C59   C110  S    
C29   H61   S    
C31   C40   A    
C108  H36   S    
C3    O27   A    
C51   C55   A    
C32   C39   A    
C57   C73   A    
C24   C132  A    
C80   H20   S    
C91   O3    A    
C60   C109  S    
C118  O42   A    
C3    O23   A    
C117  O41   A    
C51   H68   S    
C78   H14   S    
Cr3   O3    S    
N3    H77   S    
C50   H65   S    
C1    O21   A    
N2    H75   S    
Cr10  O34   S    
C83   H27   S    
C49   H66   S    
C70   C74   A    
C52   H67   S    
C9    C121  A    
C107  C108  S    
C14   C126  S    
C105  H33   S    
C17   H53   S    
C98   C106  S    
C81   H25   S    
C116  O12   A    
C32   H64   S    
Cr7   O31   S    
C120  O16   A    
C87   C115  S    
C47   O31   A    
Cr6   O30   S    
C3    C122  S    
C8    C12   A    
C124  C128  A    
C97   C105  S    
C44   C52   A    
Cr1   O45   S    
C15   H45   S    
Cr2   O46   S    
Cr3   O19   S    
N1    H73   S    
C22   C130  A    
C53   H5    S    
C64   C80   S    
C5    C9    A    
C115  O7    A    
C8    H4    S    
Cr8   O8    S    
C20   C132  S    
C27   C92   S    
C27   C44   A    
C18   N2    S    
C72   C88   A    
C2    O22   A    
Cr10  O14   S    
C46   O34   A    
C21   C45   S    
C92   O40   A    
C77   H13   S    
C19   C131  S    
C62   C78   S    
C63   C67   A    
C100  C108  S    
C5    H1    S    
C30   C34   A    
Cr7   O27   S    
C80   C84   S    
C68   C84   S    
Cr6   O50   S    
Cr6   O18   S    
C29   C38   A    
C23   C47   S    
C88   C116  S    
C94   C101  A    
Cr10  O18   S    
Cr5   O17   S    
C31   H63   S    
C89   O37   A    
Cr6   O26   S    
C45   O33   A    
C39   C40   A    
C62   C66   A    
C2    O26   A    
C63   C79   S    
C36   H60   S    
C28   C39   A    
C1    O25   A    
C113  O5    A    
C2    C123  S    
C45   O29   A    
C83   H23   S    
C30   H62   S    
C60   C76   A    
C7    H3    S    
Cr4   O44   S    
C58   C111  S    
C30   C37   A    
C107  H39   S    
C67   C87   A    
Cr8   O32   S    
C24   C48   S    
C122  C126  A    
C15   C19   S    
C43   C44   A    
C120  O44   A    
Cr2   O22   S    
C121  C125  A    
C37   C38   A    
C84   H24   S    
Cr11  O11   S    
C125  C129  A    
C25   C38   A    
C66   C82   S    
Cr9   O13   S    
Cr4   O20   S    
C78   C82   S    
Cr9   O33   S    
C99   C100  A    
C12   C124  A    
C77   C81   S    
C27   C40   A    
C16   C20   S    
C71   H11   S    
C103  H31   S    
C33   C34   A    
C4    O28   A    
Cr2   O42   S    
C23   C131  A    
C72   C76   A    
Cr1   O21   S    
Cr4   O48   S    
C114  O10   A    
C69   C73   A    
C104  H32   S    
C33   H57   S    
C21   C129  A    
C19   N3    S    
C73   H69   S    
C112  O52   A    
C71   C87   A    
C17   N1    S    
C22   C46   S    
C42   C50   A    
Cr8   O20   S    
C61   C77   S    
N1    H74   S    
C68   C88   A    
Cr12  O12   S    
N4    H80   S    
C59   C63   A    
C79   H19   S    
C116  O8    A    
C93   C118  S    
C46   O30   A    
C14   H50   S    
Cr1   O41   S    
C70   C86   A    
Cr12  O36   S    
C93   C97   A    
C123  C127  A    
C90   O2    A    
C69   C85   A    
C95   C104  A    
C58   C74   A    
C78   H18   S    
C69   H9    S    
Cr7   O51   S    
C4    O24   A    
C55   H7    S    
C76   H72   S    
C105  H37   S    
C128  C132  A    
C81   H21   S    
C107  H35   S    
C86   C114  S    
C70   H10   S    
C93   C102  A    
C19   H55   S    
Cr12  O20   S    
C11   C123  A    
Cr2   O18   S    
Cr11  O15   S    
C84   H28   S    
C13   H47   S    
C25   C42   A    
C66   C86   A    
Cr7   O19   S    
C32   C36   A    
C26   C37   A    
C57   C61   A    
C108  H40   S    
C95   C120  S    
C102  H30   S    
C41   C49   A    
C99   C107  S    
C105  C106  S    
C96   C100  A    
C28   C43   A    
Cr3   O47   S    
Cr2   O2    S    
C109  O45   A    
C13   C17   S    
C60   C64   A    
C82   H22   S    
Cr1   O1    S    
C127  C131  A    
C13   H49   S    
C1    C124  S    
C15   H51   S    
C48   O36   A    
C65   C85   A    
C112  O48   A    
C79   C83   S    
C74   H70   S    
C11   H43   S    
C35   H59   S    
C52   C56   A    
Cr5   O29   S    
C34   H58   S    
C7    C23   A    
Cr4   O24   S    
C31   C35   A    
C85   C113  S    
C16   H52   S    
C10   H42   S    
C77   H17   S    
Cr11  O35   S    
C4    C121  S    
C92   O4    A    
C28   C91   S    
Cr3   O23   S    
C14   H48   S    
C16   C128  S    
C61   C65   A    
Cr5   O25   S    
Cr11  O19   S    
Cr1   O17   S    
C110  O50   A    
C49   C53   A    
C18   C130  S    
C6    C10   A    
C113  O9    A    
C16   H46   S    
Cr7   O7    S    
C10   C122  A    
C111  O47   A    
C114  O6    A    
C5    C21   A    
C8    C24   A    
Cr6   O6    S    
N2    H76   S    
Cr8   O52   S    
C96   C103  A    
Cr5   O5    S    
C103  C104  A    
Cr5   O49   S    
C126  C130  A    
N4    H79   S    
Cr12  O16   S    
C15   C127  S    
C89   O1    A    
Cr12  O40   S    
Cr3   O43   S    
C56   H8    S    
C111  O51   A    
C109  O49   A    
C13   C125  S    
C106  H34   S    
C17   C129  S    
C18   H54   S    
C106  H38   S    
C26   C41   A    
Cr9   O9    S    
Cr4   O4    S    
C119  O43   A    
C6    C22   A    
