data_mof_unit_37164.cif
_audit_creation_date              2013-03-05T15:49:44-0500
_audit_creation_method            fapswitch 2.2
_symmetry_space_group_name_H-M    P1
_symmetry_Int_Tables_number       1
_space_group_crystal_system       triclinic
_cell_length_a                    11.9586
_cell_length_b                    13.0203
_cell_length_c                    13.345649
_cell_angle_alpha                 88.458875
_cell_angle_beta                  111.798381
_cell_angle_gamma                 91.464448
_cell_volume                      1928.42601595

loop_
_atom_site_label
_atom_site_type_symbol
_atom_site_description
_atom_site_fract_x
_atom_site_fract_y
_atom_site_fract_z
_atom_type_partial_charge
O1    O     O_R   0.579910 0.341070 0.505280 -0.615276
O2    O     O_R   0.388440 0.353740 0.492580 -0.622974
C1    C     C_R   0.479279 0.299241 0.497679 0.885614
O3    O     O_R   0.643280 0.490550 0.663120 -0.629919
O4    O     O_R   0.451810 0.503220 0.650420 -0.624203
C2    C     C_R   0.564265 0.490880 0.707096 0.863268
Zn1   Zn    Zn3+2 0.627850 0.491540 0.508480 0.979483
Zn2   Zn    Zn3+2 0.372150 0.508460 0.491520 0.985468
O5    O     O_R   0.611560 0.646260 0.507420 -0.639170
O6    O     O_R   0.420090 0.658930 0.494720 -0.635072
O7    O     O_R   0.548190 0.496780 0.349580 -0.575908
O8    O     O_R   0.356720 0.509450 0.336880 -0.573527
C3    C     C_R   0.520269 0.699819 0.499789 0.888814
C4    C     C_R   0.434587 0.496183 0.292863 0.921659
C5    C     C_R   0.244327 0.455773 0.997256 -0.259398
H1    H     H_    0.223913 0.388334 0.803571 0.130435
H2    H     H_    0.151161 0.442820 0.944975 0.172703
C6    C     C_R   0.396141 0.479011 0.176834 -0.332400
C7    C     C_R   0.717698 0.524141 0.886637 -0.181882
C8    C     C_R   0.745140 0.547572 0.994063 -0.111157
C9    C     C_R   0.658218 0.533293 0.039313 -0.132712
C10   C     C_R   0.545638 0.486681 0.980231 0.126009
C11   C     C_R   0.518608 0.460339 0.872434 0.093348
C12   C     C_R   0.456005 0.471580 0.024079 -0.014390
C13   C     C_R   0.335917 0.451004 0.956435 0.078354
C14   C     C_R   0.312427 0.416749 0.852749 -0.189415
C15   C     C_R   0.406044 0.412622 0.815105 -0.182203
C16   C     C_R   0.486204 0.462755 0.134673 0.210038
C17   C     C_R   0.273006 0.475724 0.106538 0.306796
C18   C     C_R   0.602663 0.485913 0.824076 -0.132402
H3    H     H_    0.783298 0.543242 0.850529 0.171144
H4    H     H_    0.677802 0.563391 0.118722 0.168012
H5    H     H_    0.831399 0.582532 0.040509 0.188781
H6    H     H_    0.388805 0.374135 0.740117 0.148899
C19   C     C_R   0.528070 0.809089 0.491384 -0.039635
C20   C     C_R   0.468581 0.187876 0.493280 -0.115251
C21   C     C_R   0.347116 0.035609 0.492973 -0.006502
C22   C     C_R   0.362447 0.141639 0.495561 -0.253437
C23   C     C_R   0.561688 0.127186 0.485575 -0.090421
C24   C     C_R   0.545617 0.020682 0.479573 0.130853
C25   C     C_R   0.440905 0.974610 0.488531 0.110389
C26   C     C_R   0.435045 0.868283 0.496824 -0.271711
C27   C     C_R   0.625771 0.853867 0.473465 -0.213388
C28   C     C_R   0.634323 0.958592 0.466834 -0.206313
H7    H     H_    0.359783 0.831024 0.510338 0.174431
H8    H     H_    0.696234 0.808144 0.465174 0.152072
H9    H     H_    0.712365 0.989393 0.453139 0.158641
H10   H     H_    0.290335 0.188296 0.499401 0.174197
N1    N     N_R   0.798200 0.480260 0.519790 -0.098836
N2    N     N_R   0.201820 0.519740 0.480210 -0.099405
C29   C     C_R   0.007539 0.598846 0.400082 -0.297442
C30   C     C_R   0.128184 0.589385 0.409731 0.093569
C31   C     C_R   0.158678 0.457997 0.542899 -0.031592
C32   C     C_R   0.038877 0.466436 0.537795 0.078594
C33   C     C_R   0.961889 0.536954 0.464480 0.078581
C34   C     C_R   0.841047 0.543054 0.457498 0.046815
C35   C     C_R   0.873765 0.415242 0.594443 0.053240
C36   C     C_R   0.994303 0.406549 0.604199 -0.326881
H11   H     H_    0.780817 0.597375 0.401750 0.127447
H12   H     H_    0.840127 0.369087 0.646086 0.135909
H13   H     H_    0.950579 0.653999 0.342795 0.136234
H14   H     H_    0.051110 0.351741 0.661689 0.131445
H15   H     H_    0.162877 0.637646 0.360265 0.138395
H16   H     H_    0.217102 0.401712 0.596384 0.107973
N3    N     N_R   0.176586 0.481003 0.145389 0.220496
O9    O     O_R   0.161786 0.407511 0.207595 -0.371652
O10   O     O_R   0.088712 0.543841 0.098651 -0.434573
C37   C     C_R   0.230868 0.991667 0.491885 0.112622
C38   C     C_R   0.193821 0.007865 0.578461 -0.173905
C39   C     C_R   0.084176 0.966391 0.577042 -0.125702
C40   C     C_R   0.010046 0.909926 0.488707 -0.095495
C41   C     C_R   0.045631 0.894518 0.401721 -0.141642
C42   C     C_R   0.155513 0.935249 0.403078 -0.151175
H17   H     H_    0.250281 0.051714 0.647280 0.130895
H18   H     H_    0.056572 0.978076 0.644418 0.130677
H19   H     H_    0.925049 0.878212 0.487614 0.116407
H20   H     H_    0.988043 0.851071 0.333172 0.126805
H21   H     H_    0.181982 0.922933 0.335075 0.139937
C43   C     C_R   0.678325 0.170250 0.486089 0.124665
C44   C     C_R   0.688508 0.199734 0.388097 -0.074876
C45   C     C_R   0.802053 0.215626 0.382203 -0.055458
C46   C     C_R   0.905989 0.199860 0.473746 -0.117670
C47   C     C_R   0.896497 0.171342 0.572071 -0.184664
C48   C     C_R   0.783139 0.157830 0.578760 -0.173416
H22   H     H_    0.608335 0.204387 0.315818 0.179664
H23   H     H_    0.809662 0.236968 0.306053 0.195429
H24   H     H_    0.993890 0.210229 0.468743 0.148014
H25   H     H_    0.977018 0.159450 0.643050 0.133343
H26   H     H_    0.776851 0.131836 0.654290 0.140421
N4    N     N_R   0.588893 0.400408 0.193020 0.213815
O11   O     O_R   0.687939 0.441599 0.259345 -0.424695
O12   O     O_R   0.594521 0.310235 0.155559 -0.433058

loop_
_geom_bond_atom_site_label_1
_geom_bond_atom_site_label_2
_geom_bond_distance
_ccdc_geom_bond_type
C36   H14   1.080571 S    
C33   C34   1.417315 A    
C25   C26   1.387914 A    
C4    C6    1.464168 S    
C7    C8    1.387496 A    
C29   H13   1.082993 S    
C7    H3    1.083428 S    
C45   C46   1.396916 A    
N4    O11   1.299414 A    
C31   C32   1.415756 A    
Zn1   O7    1.975953 S    
C14   C15   1.389551 A    
C41   H20   1.082225 S    
C21   C22   1.387675 A    
C3    C19   1.427526 S    
O4    C2    1.286654 A    
O7    C4    1.286338 A    
C5    C13   1.395982 A    
C46   H24   1.082601 S    
C21   C37   1.484891 S    
N1    C35   1.360493 A    
Zn1   O5    2.028014 S    
C19   C26   1.394146 A    
O5    C3    1.281024 A    
C37   C38   1.404925 A    
N3    O10   1.300944 A    
N2    C30   1.364626 A    
C42   H21   1.083192 S    
C39   C40   1.397602 A    
C11   C15   1.414674 A    
C19   C27   1.388301 A    
C22   H10   1.084706 S    
C45   H23   1.081892 S    
C28   H9    1.081132 S    
C47   H25   1.082023 S    
C9    C10   1.413563 A    
C43   C48   1.405387 A    
O3    Zn1   2.002309 S    
C5    C17   1.398752 A    
C15   H6    1.078708 S    
H1    C14   1.079425 S    
C9    H4    1.079270 S    
N2    C31   1.369517 A    
C29   C30   1.408373 A    
C11   C18   1.410986 A    
C6    C16   1.410495 A    
C12   C13   1.406975 A    
Zn1   N1    1.995008 S    
O3    C2    1.284335 A    
C23   C24   1.395442 A    
C44   C45   1.398863 A    
C35   H12   1.081310 S    
C13   C14   1.389500 A    
C30   H15   1.081931 S    
O1    C1    1.278238 A    
C26   H7    1.082335 S    
C23   C43   1.487644 S    
C27   C28   1.367727 A    
C44   H22   1.079962 S    
N4    O12   1.301355 A    
C47   C48   1.397650 A    
Zn2   O8    2.002309 S    
C38   H17   1.083191 S    
C6    C17   1.422405 A    
C17   N3    1.432849 S    
C8    H5    1.082492 S    
C24   C25   1.418123 A    
C2    C18   1.454643 S    
O8    C4    1.289166 A    
N3    O9    1.301498 A    
C10   C12   1.406734 A    
C48   H26   1.083005 S    
Zn2   N2    1.994771 S    
C32   C36   1.403538 A    
C5    H2    1.084409 S    
C32   C33   1.404946 A    
O1    Zn1   2.024285 S    
C20   C23   1.417415 A    
O2    Zn2   2.028014 S    
C12   C16   1.385351 A    
C41   C42   1.398387 A    
O6    C3    1.277648 A    
O4    Zn2   1.975953 S    
N1    C34   1.371309 A    
C34   H11   1.082728 S    
C20   C22   1.401043 A    
O2    C1    1.292335 A    
C37   C42   1.405745 A    
C40   C41   1.397410 A    
C35   C36   1.405614 A    
C40   H19   1.082463 S    
C1    C20   1.453221 S    
C31   H16   1.078125 S    
C29   C33   1.405256 A    
C21   C25   1.410567 A    
C38   C39   1.398978 A    
C27   H8    1.084032 S    
C43   C44   1.400482 A    
C24   C28   1.411707 A    
C8    C9    1.389261 A    
Zn2   O6    2.024282 S    
C46   C47   1.398187 A    
C39   H18   1.082129 S    
C10   C11   1.402594 A    
C16   N4    1.442260 S    
C7    C18   1.404145 A    
