data_mof_unit_20519.cif
_audit_creation_date              2012-12-11T14:17:31-0500
_audit_creation_method            fapswitch 2.2
_symmetry_space_group_name_H-M    P1
_symmetry_Int_Tables_number       1
_space_group_crystal_system       triclinic
_cell_length_a                    6.944998
_cell_length_b                    13.623019
_cell_length_c                    20.413427
_cell_angle_alpha                 102.165772
_cell_angle_beta                  89.775196
_cell_angle_gamma                 90.817213
_cell_volume                      1887.78464285

loop_
_atom_site_label
_atom_site_type_symbol
_atom_type_description
_atom_site_fract_x
_atom_site_fract_y
_atom_site_fract_z
_atom_type_partial_charge
O1    O     O_R   0.506860 0.599390 0.449240 -0.539138
O2    O     O_R   0.180220 0.594600 0.586780 -0.543102
O3    O     O_R   0.004500 0.400610 0.550760 -0.538872
C1    C     C_R   0.349014 0.616281 0.613390 0.741703
O4    O     O_R   0.177490 0.611290 0.451970 -0.541412
O5    O     O_R   0.001750 0.417420 0.414990 -0.539388
C2    C     C_R   0.347341 0.637871 0.435172 0.696009
O6    O     O_R   0.509610 0.582580 0.585010 -0.542293
O7    O     O_3   0.337420 0.436370 0.488020 -0.372367
V1    V     V_3+5 0.064680 0.511800 0.502220 1.419302
O8    O     O_R   0.671710 0.405400 0.413220 -0.546803
C3    C     C_R   0.839848 0.384080 0.386529 0.741331
O9    O     O_R   0.674440 0.388710 0.548030 -0.541439
C4    C     C_R   0.842094 0.362039 0.564843 0.695227
V2    V     V_3+5 0.564010 0.488200 0.497780 1.415894
O10   O     O_3   0.841140 0.563630 0.511980 -0.371932
C5    C     C_R   0.814922 0.110393 0.611522 -0.155593
H1    H     H_    0.807039 0.162056 0.519389 0.104468
H2    H     H_    0.796590 0.033331 0.584950 0.127899
C6    C     C_R   0.846103 0.284283 0.604450 -0.031104
C7    C     C_R   0.889050 0.315013 0.927834 -0.164417
C8    C     C_R   0.896701 0.391372 0.891899 0.218003
C9    C     C_R   0.883574 0.367352 0.821942 -0.158107
C10   C     C_R   0.862835 0.266412 0.786218 0.034333
C11   C     C_R   0.853195 0.189570 0.823757 0.019059
C12   C     C_R   0.852033 0.239492 0.714660 0.047175
C13   C     C_R   0.829173 0.136325 0.682123 0.122596
C14   C     C_R   0.820046 0.061270 0.720533 0.143969
C15   C     C_R   0.832651 0.088721 0.790224 -0.181222
C16   C     C_R   0.862258 0.311991 0.674072 -0.199830
C17   C     C_R   0.821608 0.183753 0.573362 -0.181221
C18   C     C_R   0.866755 0.214918 0.894619 -0.104763
H3    H     H_    0.879473 0.391110 0.694639 0.092547
H4    H     H_    0.901488 0.333306 0.981999 0.101478
H5    H     H_    0.890595 0.429812 0.797325 0.114473
H6    H     H_    0.825771 0.029769 0.818433 0.119587
C19   C     C_2   0.005488 0.288990 0.284882 -0.134111
C20   C     C_2   0.842302 0.315699 0.319751 -0.311262
H7    H     H_    0.142701 0.317749 0.306740 0.133861
H8    H     H_    0.703604 0.287444 0.299552 0.126326
C21   C     C_2   0.013712 0.220906 0.217249 -0.132551
C22   C     C_2   0.858472 0.183308 0.180368 -0.308248
H9    H     H_    0.156572 0.201893 0.197107 0.132511
H10   H     H_    0.714300 0.201523 0.198897 0.126020
C23   C     C_2   0.204948 0.792063 0.781992 -0.128918
C24   C     C_2   0.363811 0.816196 0.819732 -0.305070
H11   H     H_    0.067527 0.822750 0.801308 0.131777
H12   H     H_    0.502126 0.786009 0.801698 0.126911
C25   C     C_2   0.203033 0.723648 0.714447 -0.131394
C26   C     C_2   0.361015 0.684926 0.680008 -0.312008
H13   H     H_    0.061824 0.705190 0.692203 0.136361
H14   H     H_    0.504115 0.703202 0.700146 0.127665
C27   C     C_R   0.424640 0.885986 0.386423 -0.158017
H15   H     H_    0.421992 0.835772 0.479213 0.103971
H16   H     H_    0.460317 0.009735 0.302792 0.122167
H17   H     H_    0.457728 0.962909 0.410992 0.112229
C28   C     C_R   0.360631 0.714606 0.394984 -0.031281
C29   C     C_R   0.310680 0.686167 0.071751 -0.164872
C30   C     C_R   0.288485 0.610898 0.107760 -0.117922
C31   C     C_R   0.305578 0.632930 0.177340 -0.158020
C32   C     C_R   0.346084 0.732082 0.213017 0.077128
C33   C     C_R   0.370596 0.808791 0.175593 0.067473
C34   C     C_R   0.362595 0.757740 0.284424 0.071916
C35   C     C_R   0.404952 0.858938 0.316470 0.142089
C36   C     C_R   0.428309 0.932488 0.278635 -0.203106
C37   C     C_R   0.411116 0.908070 0.209400 -0.195360
C38   C     C_R   0.339444 0.686563 0.325404 -0.214369
C39   C     C_R   0.403835 0.814040 0.425381 -0.174650
C40   C     C_R   0.352166 0.784730 0.104879 -0.075183
H18   H     H_    0.307509 0.608490 0.305061 0.093920
H19   H     H_    0.294663 0.667593 0.017735 0.105264
H20   H     H_    0.285854 0.570488 0.201496 0.107336
H21   H     H_    0.256597 0.534722 0.081545 0.120015
H22   H     H_    0.430333 0.968087 0.182543 0.119424
O11   O     O_R   0.203230 0.917310 0.915020 -0.538593
O12   O     O_R   0.535500 0.888690 0.048040 -0.540861
O13   O     O_R   0.711080 0.082610 0.085000 -0.545047
C41   C     C_R   0.365652 0.862083 0.064835 0.688256
O14   O     O_R   0.532630 0.905370 0.913230 -0.548630
O15   O     O_R   0.708190 0.099410 0.949230 -0.538844
C42   C     C_R   0.364480 0.884399 0.886450 0.744691
O16   O     O_R   0.206120 0.900510 0.050790 -0.537732
O17   O     O_3   0.375360 0.063570 0.011990 -0.372709
V3    V     V_3+5 0.648170 0.988200 0.997780 1.414440
O18   O     O_R   0.038240 0.111390 0.951940 -0.540685
C43   C     C_R   0.870617 0.137743 0.934976 0.696102
O19   O     O_R   0.041120 0.094710 0.086750 -0.542237
C44   C     C_R   0.872439 0.115731 0.113525 0.743424
V4    V     V_3+5 0.148810 0.011930 0.002180 1.422910
O20   O     O_3   0.871750 0.936430 0.988010 -0.371970
C45   C     C_3   0.796889 0.951059 0.688560 -0.804831
H23   H     H_    0.792782 0.903042 0.726322 0.200661
H24   H     H_    0.659918 0.938151 0.659963 0.209776
H25   H     H_    0.919925 0.926408 0.654441 0.209595
C46   C     C_3   0.920757 0.499151 0.927654 -0.802623
H26   H     H_    0.929932 0.506686 0.982822 0.208476
H27   H     H_    0.054869 0.531133 0.910330 0.206879
H28   H     H_    0.796067 0.543091 0.916558 0.209482

loop_
_geom_bond_atom_site_label_1
_geom_bond_atom_site_label_2
_ccdc_geom_bond_type
O19   C44   A    
C21   C22   D    
C46   H26   S    
O15   V3    S    
O12   V3    S    
C46   H28   S    
C6    C16   A    
O18   C43   A    
C15   H6    S    
C12   C13   A    
O16   V4    S    
C22   H10   S    
C14   C15   A    
O12   C41   A    
O5    C3    A    
O14   V3    S    
C27   C35   A    
C29   H19   S    
H15   C39   S    
C31   H20   S    
V2    O10   S    
C37   H22   S    
C8    C46   S    
C32   C34   A    
C27   C39   A    
O15   C43   A    
O8    V2    S    
O13   C44   A    
C25   H13   S    
C26   H14   S    
C9    C10   A    
O1    V2    S    
O7    V1    S    
C30   H21   S    
C1    O6    A    
C11   C18   A    
C30   C31   A    
O9    C4    A    
C3    C20   S    
C21   H9    S    
C40   C41   S    
V3    O20   S    
C28   C38   A    
H16   C36   S    
C24   H12   S    
C23   H11   S    
C11   C15   A    
O17   V4    S    
C7    C18   A    
C34   C38   A    
C33   C37   A    
C5    C13   A    
C4    C6    S    
C10   C11   A    
C45   H23   S    
O4    C2    A    
O18   V4    S    
O11   C42   A    
C7    H4    S    
O13   V3    S    
C29   C30   A    
C23   C24   D    
C33   C40   A    
C1    C26   S    
C31   C32   A    
O2    C1    A    
C19   C20   D    
C45   H24   S    
C24   C42   S    
C41   O16   A    
O17   V3    S    
C23   C25   S    
C18   C43   S    
O3    C4    A    
C12   C16   A    
O6    V2    S    
C9    H5    S    
O9    V2    S    
C5    C17   A    
C22   C44   S    
C28   C39   A    
O2    V1    S    
O14   C42   A    
C27   H17   S    
C16   H3    S    
O1    C2    A    
C10   C12   A    
O5    V1    S    
O8    C3    A    
C46   H27   S    
C29   C40   A    
C38   H18   S    
C35   C36   A    
O19   V4    S    
O7    V2    S    
O4    V1    S    
C19   H7    S    
O3    V1    S    
V1    O10   S    
C45   H25   S    
C20   H8    S    
C5    H2    S    
C14   C45   S    
C36   C37   A    
C19   C21   S    
C32   C33   A    
O11   V4    S    
C34   C35   A    
C25   C26   D    
C13   C14   A    
C8    C9    A    
H1    C17   S    
V4    O20   S    
C7    C8    A    
C2    C28   S    
C6    C17   A    
