data_mof_unit_36795.cif
_audit_creation_date              2012-12-10T17:24:48-0500
_audit_creation_method            fapswitch 2.2
_symmetry_space_group_name_H-M    P1
_symmetry_Int_Tables_number       1
_space_group_crystal_system       triclinic
_cell_length_a                    10.165283
_cell_length_b                    10.893942
_cell_length_c                    19.290382
_cell_angle_alpha                 90.415552
_cell_angle_beta                  79.674297
_cell_angle_gamma                 95.553256
_cell_volume                      2091.64565795

loop_
_atom_site_label
_atom_site_type_symbol
_atom_type_description
_atom_site_fract_x
_atom_site_fract_y
_atom_site_fract_z
_atom_type_partial_charge
C1    C     C_R   0.556838 0.731955 0.493701 0.947877
C2    C     C_R   0.502549 0.502789 0.365132 0.905667
C3    C     C_R   0.372311 0.495929 0.761104 -0.076637
C4    C     C_R   0.627829 0.504444 0.238923 -0.076537
C5    C     C_R   0.378126 0.501907 0.833333 0.141958
C6    C     C_R   0.622120 0.498582 0.166686 0.141903
C7    C     C_R   0.502999 0.502183 0.855250 -0.033592
C8    C     C_R   0.497279 0.498236 0.144726 -0.033600
C9    C     C_R   0.622568 0.495041 0.806255 -0.050244
C10   C     C_R   0.377638 0.505191 0.193694 -0.050252
C11   C     C_R   0.615998 0.491014 0.734927 -0.230666
C12   C     C_R   0.443163 0.268044 0.506317 0.948028
C13   C     C_R   0.384103 0.509075 0.265037 -0.230668
C14   C     C_R   0.493482 0.493702 0.711427 -0.144912
C15   C     C_R   0.506591 0.506448 0.288572 -0.144928
C16   C     C_R   0.495680 0.497741 0.069858 0.382297
C17   C     C_R   0.504687 0.502733 0.930110 0.382337
C18   C     C_2   0.238889 0.484410 0.739585 0.974944
C19   C     C_2   0.761203 0.516097 0.260494 0.974892
C20   C     C_3   0.197139 0.381557 0.909812 -0.682197
C21   C     C_3   0.803031 0.619168 0.090285 -0.682109
C22   C     C_2   0.756253 0.494830 0.827529 0.927773
C23   C     C_2   0.590508 0.862889 0.496361 -0.341718
C24   C     C_2   0.243992 0.505353 0.172374 0.927955
C25   C     C_2   0.589301 0.100500 0.567986 0.967213
C26   C     C_2   0.410907 0.899600 0.431985 0.967079
C27   C     C_2   0.127105 0.663432 0.563737 1.039113
C28   C     C_2   0.872902 0.336591 0.436239 1.039008
C29   C     C_2   0.409498 0.137098 0.503722 -0.341942
C30   C     C_2   0.502459 0.939359 0.482540 -0.064422
C31   C     C_2   0.497624 0.060671 0.517503 -0.064541
C32   C     C_2   0.926192 0.507714 0.506028 -0.089584
C33   C     C_2   0.073805 0.492264 0.493982 -0.089620
C34   C     C_R   0.497461 0.497239 0.634869 0.905696
H1    H     H_    0.708752 0.488858 0.697293 0.196277
H2    H     H_    0.159440 0.329471 0.866460 0.255157
H3    H     H_    0.111301 0.391653 0.953338 0.245337
H4    H     H_    0.270618 0.328887 0.930229 0.258782
H5    H     H_    0.810167 0.440534 0.125779 0.267302
H6    H     H_    0.840567 0.671278 0.133674 0.255179
H7    H     H_    0.729513 0.671746 0.069840 0.258711
H8    H     H_    0.888960 0.609198 0.046791 0.245377
H9    H     H_    0.879752 0.554865 0.894377 0.350924
H10   H     H_    0.120645 0.445348 0.105444 0.350899
H11   H     H_    0.606389 0.173755 0.662720 0.355365
H12   H     H_    0.291303 0.511075 0.302653 0.196232
H13   H     H_    0.394050 0.826578 0.337168 0.355350
H14   H     H_    0.041746 0.823589 0.565261 0.365585
H15   H     H_    0.958250 0.176424 0.434686 0.365618
H16   H     H_    0.327524 0.108946 0.476546 0.188096
H17   H     H_    0.672390 0.890974 0.523616 0.187992
H18   H     H_    0.114265 0.425127 0.456517 0.182608
H19   H     H_    0.885730 0.574836 0.543504 0.182586
H20   H     H_    0.069149 0.562722 0.734530 0.377172
H21   H     H_    0.930990 0.437940 0.265644 0.377198
H22   H     H_    0.190216 0.560209 0.874278 0.267309
N1    N     N_R   0.550868 0.407753 0.960340 -0.150577
N2    N     N_R   0.449505 0.592724 0.039629 -0.150621
N3    N     N_R   0.547046 0.405625 0.029388 -0.117812
N4    N     N_R   0.453331 0.594854 0.970581 -0.117822
N5    N     N_2   0.842710 0.448880 0.471430 -0.174279
N6    N     N_2   0.157290 0.551120 0.528570 -0.174238
N7    N     N_2   0.258463 0.502368 0.885074 -0.311482
N8    N     N_2   0.741848 0.498288 0.114972 -0.311506
O1    O     O_R   0.431050 0.692470 0.505750 -0.601232
O2    O     O_R   0.157379 0.581299 0.751745 -0.768825
O3    O     O_2   0.799623 0.610693 0.288486 -0.571538
O4    O     O_R   0.842846 0.419304 0.248351 -0.768688
O5    O     O_2   0.841931 0.436268 0.793346 -0.617729
O6    O     O_R   0.785499 0.562805 0.885611 -0.791226
O7    O     O_2   0.158225 0.563816 0.206560 -0.617844
O8    O     O_R   0.214887 0.437451 0.114239 -0.791242
O9    O     O_2   0.711024 0.100886 0.550410 -0.593019
O10   O     O_R   0.534998 0.145458 0.633959 -0.780856
O11   O     O_2   0.289164 0.899094 0.449519 -0.593031
O12   O     O_R   0.568950 0.307530 0.494250 -0.601236
O13   O     O_R   0.465360 0.854846 0.365985 -0.780770
O14   O     O_2   0.178465 0.692947 0.614710 -0.580008
O15   O     O_R   0.051589 0.745861 0.536330 -0.790463
O16   O     O_2   0.821562 0.307119 0.385253 -0.579932
O17   O     O_R   0.948401 0.254132 0.463635 -0.790438
O18   O     O_R   0.651120 0.659650 0.487410 -0.595951
O19   O     O_R   0.348880 0.340350 0.512590 -0.596003
O20   O     O_R   0.389930 0.516430 0.611030 -0.577872
O21   O     O_R   0.610070 0.483570 0.388970 -0.577901
O22   O     O_R   0.610000 0.483610 0.592700 -0.639548
O23   O     O_R   0.390000 0.516390 0.407300 -0.639517
O24   O     O_2   0.200296 0.389827 0.711639 -0.571451
Zn1   Zn    Zn3+2 0.353060 0.521920 0.512240 1.047030
Zn2   Zn    Zn3+2 0.646940 0.478080 0.487760 1.046997

loop_
_geom_bond_atom_site_label_1
_geom_bond_atom_site_label_2
_ccdc_geom_bond_type
C25   C31   S    
C12   C29   S    
C27   O14   D    
H21   O4    S    
C33   H18   S    
O1    Zn1   S    
H5    N8    S    
C2    O21   A    
H14   O15   S    
C32   N5    D    
C27   O15   S    
C30   C31   S    
C11   C14   A    
C9    C22   S    
N1    N3    A    
N2    N4    A    
N6    Zn1   S    
C5    N7    S    
C3    C18   S    
C25   O10   S    
C34   O22   A    
H15   O17   S    
C21   N8    S    
C4    C19   S    
C6    N8    S    
C33   N6    D    
C7    C17   S    
C1    O1    A    
C19   O3    D    
C22   O5    D    
C28   N5    S    
C8    C16   S    
C34   O20   A    
C29   H16   S    
O19   Zn1   S    
C26   O13   S    
C23   C30   D    
C2    O23   A    
C4    C6    A    
O22   Zn2   S    
C5    C7    A    
C6    C8    A    
C10   C24   S    
C1    O18   A    
C18   O24   D    
C12   O19   A    
H11   O10   S    
C16   N3    A    
C27   N6    S    
C20   H4    S    
C23   H17   S    
C13   C15   A    
C26   O11   D    
H22   N7    S    
C19   O4    S    
C16   N2    A    
C2    C15   S    
C9    C11   A    
C3    C14   A    
C21   H7    S    
C1    C23   S    
H9    O6    S    
C12   O12   A    
O20   Zn1   S    
H13   O13   S    
C32   H19   S    
N5    Zn2   S    
C24   O8    S    
C7    C9    A    
C28   O17   S    
C3    C5    A    
C10   C13   A    
C14   C34   S    
O21   Zn2   S    
C26   C30   S    
H20   O2    S    
C18   O2    S    
O18   Zn2   S    
C32   C33   S    
C20   N7    S    
C11   H1    S    
C29   C31   D    
C20   H3    S    
C13   H12   S    
C21   H6    S    
C4    C15   A    
H10   O8    S    
C25   O9    D    
C28   O16   D    
C17   N4    A    
C21   H8    S    
C20   H2    S    
C8    C10   A    
C17   N1    A    
O23   Zn1   S    
C22   O6    S    
C24   O7    D    
O12   Zn2   S    
