data_mof_unit_22768.cif
_audit_creation_date              2012-12-11T16:31:26-0500
_audit_creation_method            fapswitch 2.2
_symmetry_space_group_name_H-M    P1
_symmetry_Int_Tables_number       1
_space_group_crystal_system       triclinic
_cell_length_a                    6.940396
_cell_length_b                    18.318015
_cell_length_c                    20.132469
_cell_angle_alpha                 68.302832
_cell_angle_beta                  90.383446
_cell_angle_gamma                 90.743744
_cell_volume                      2377.98129663

loop_
_atom_site_label
_atom_site_type_symbol
_atom_type_description
_atom_site_fract_x
_atom_site_fract_y
_atom_site_fract_z
_atom_type_partial_charge
O1    O     O_R   0.488990 0.443920 0.942160 -0.539840
O2    O     O_R   0.823840 0.406530 0.087600 -0.536891
O3    O     O_R   0.999650 0.556080 0.057840 -0.539050
C1    C     C_R   0.654645 0.383704 0.115188 0.693864
O4    O     O_R   0.818390 0.434590 0.944530 -0.536566
O5    O     O_R   0.994160 0.584350 0.913750 -0.535505
C2    C     C_R   0.648945 0.420341 0.924198 0.722704
O6    O     O_R   0.494480 0.415650 0.086250 -0.537258
O7    O     O_3   0.662600 0.549100 0.990070 -0.367124
V1    V     V_3+5 0.935320 0.490890 0.001840 1.423856
O8    O     O_R   0.324240 0.593470 0.912400 -0.538596
C3    C     C_R   0.155519 0.616623 0.885022 0.694526
O9    O     O_R   0.329690 0.565410 0.055470 -0.537221
C4    C     C_R   0.161781 0.579579 0.075871 0.725301
V2    V     V_3+5 0.435990 0.509110 0.998160 1.419832
O10   O     O_3   0.158840 0.450900 0.009930 -0.367055
C5    C     C_3   0.965901 0.683930 0.258228 -0.313416
C6    C     C_3   0.322748 0.696914 0.253076 -0.395225
C7    C     C_3   0.317233 0.746725 0.301242 -0.342345
H1    H     H_    0.960767 0.692432 0.364019 0.140860
H2    H     H_    0.982575 0.620801 0.292537 0.129939
H3    H     H_    0.454236 0.712605 0.219156 0.138724
H4    H     H_    0.334311 0.633551 0.287347 0.154998
H5    H     H_    0.333726 0.707322 0.358223 0.147364
H6    H     H_    0.441476 0.788512 0.287810 0.141096
C8    C     C_1   0.111710 0.875309 0.377891 -0.184104
C9    C     C_3   0.138971 0.710864 0.205497 0.284127
C10   C     C_3   0.956079 0.732719 0.306958 -0.334147
C11   C     C_3   0.125431 0.792682 0.290960 0.263070
C12   C     C_3   0.108681 0.848343 0.211441 -0.338650
C13   C     C_3   0.132558 0.801697 0.160881 0.045758
C14   C     C_1   0.118068 0.838033 0.338983 -0.090616
C15   C     C_1   0.147781 0.663928 0.158876 -0.091780
C16   C     C_1   0.154594 0.625646 0.120896 -0.197941
H7    H     H_    0.278477 0.818127 0.136618 0.089191
H8    H     H_    0.967943 0.878659 0.202554 0.151841
H9    H     H_    0.827123 0.687098 0.230165 0.145196
H10   H     H_    0.221495 0.895203 0.198787 0.110432
H11   H     H_    0.403543 0.543980 0.690600 0.105511
C17   C     C_R   0.008233 0.766942 0.877439 -0.128794
C18   C     C_R   0.934894 0.838189 0.875468 -0.131174
C19   C     C_R   0.921526 0.901527 0.810889 -0.126504
C20   C     C_R   0.981450 0.894115 0.747777 -0.136130
C21   C     C_R   0.055358 0.822340 0.747935 0.067131
C22   C     C_R   0.068981 0.757386 0.814156 0.070857
C23   C     C_R   0.118890 0.815121 0.683807 -0.186464
C24   C     C_R   0.196529 0.742991 0.685989 0.070041
C25   C     C_R   0.210231 0.678055 0.752198 0.067686
C26   C     C_R   0.146006 0.685159 0.816281 -0.185650
C27   C     C_R   0.258214 0.733567 0.622762 -0.130254
C28   C     C_R   0.332876 0.662521 0.624794 -0.123631
C29   C     C_R   0.346415 0.599201 0.689365 -0.125624
C30   C     C_R   0.285266 0.606432 0.752402 -0.141142
H12   H     H_    0.018231 0.719864 0.929186 0.100025
H13   H     H_    0.889116 0.844399 0.924397 0.113148
H14   H     H_    0.970246 0.945467 0.699124 0.107926
H15   H     H_    0.248131 0.780607 0.571001 0.101650
H16   H     H_    0.379412 0.656448 0.575892 0.107807
H17   H     H_    0.296590 0.555060 0.801024 0.109015
H18   H     H_    0.817420 0.463185 0.315499 0.105825
C31   C     C_R   0.527803 0.232987 0.118049 -0.135040
C32   C     C_R   0.475240 0.161214 0.115219 -0.181649
C33   C     C_R   0.492613 0.093389 0.175194 -0.090997
C34   C     C_R   0.560381 0.095460 0.240716 0.112800
C35   C     C_R   0.589911 0.170973 0.247149 0.006193
C36   C     C_R   0.585993 0.239769 0.182877 0.059558
C37   C     C_R   0.625197 0.181141 0.313758 -0.178630
C38   C     C_R   0.674286 0.256729 0.313987 0.078130
C39   C     C_R   0.687353 0.322685 0.248717 0.063954
C40   C     C_R   0.642583 0.314278 0.183351 -0.172217
C41   C     C_R   0.711560 0.268175 0.378882 -0.128347
C42   C     C_R   0.762632 0.341901 0.379093 -0.129186
C43   C     C_R   0.777687 0.405980 0.315123 -0.122550
C44   C     C_R   0.740209 0.396871 0.250566 -0.141929
H19   H     H_    0.426966 0.157772 0.065177 0.117370
H20   H     H_    0.701868 0.220512 0.430305 0.098105
H21   H     H_    0.790648 0.349287 0.429228 0.110982
H22   H     H_    0.751642 0.448797 0.202297 0.102364
O11   O     O_R   0.770890 0.084490 0.414040 -0.540369
O12   O     O_R   0.445980 0.065450 0.555510 -0.537121
O13   O     O_R   0.270670 0.915620 0.586180 -0.534808
C45   C     C_R   0.615133 0.079522 0.576126 0.733024
O14   O     O_R   0.441480 0.093500 0.412450 -0.537986
O15   O     O_R   0.266140 0.943870 0.442100 -0.543126
C46   C     C_R   0.610625 0.114654 0.383763 0.677400
O16   O     O_R   0.775410 0.056240 0.558120 -0.537429
O17   O     O_3   0.602660 0.950990 0.510100 -0.367662
V3    V     V_3+5 0.329740 0.009100 0.498130 1.413794
O18   O     O_R   0.936120 0.934420 0.444240 -0.540307
C47   C     C_R   0.104208 0.920532 0.423723 0.719256
O19   O     O_R   0.940610 0.906370 0.587310 -0.537388
C48   C     C_R   0.109246 0.883546 0.614987 0.697830
V4    V     V_3+5 0.829110 0.990690 0.501470 1.409782
O20   O     O_3   0.106080 0.049010 0.489880 -0.365190
C49   C     C_3   0.826816 0.243765 0.709999 -0.356892
C50   C     C_3   0.473019 0.278209 0.681473 0.046441
C51   C     C_3   0.475369 0.324302 0.733398 -0.319892
H23   H     H_    0.880005 0.278682 0.655515 0.156638
H24   H     H_    0.503233 0.387979 0.705391 0.156631
H25   H     H_    0.330365 0.319629 0.758095 0.109503
C52   C     C_1   0.638886 0.374358 0.879115 -0.194916
C53   C     C_3   0.622653 0.209213 0.707280 0.211431
C54   C     C_3   0.827947 0.293955 0.757651 -0.340418
C55   C     C_3   0.628511 0.290583 0.793178 0.228581
C56   C     C_3   0.576561 0.203243 0.836077 -0.345056
C57   C     C_3   0.572307 0.154373 0.786462 -0.015663
C58   C     C_1   0.633411 0.336394 0.840805 -0.082709
C59   C     C_1   0.625571 0.162939 0.659870 -0.117195
C60   C     C_1   0.623851 0.125101 0.621481 -0.201345
H26   H     H_    0.688328 0.109721 0.804895 0.137245
H27   H     H_    0.684509 0.177621 0.879368 0.132862
H28   H     H_    0.931080 0.195022 0.732343 0.125750
H29   H     H_    0.435297 0.200261 0.862862 0.148810
H30   H     H_    0.816316 0.764036 0.298310 0.137527
H31   H     H_    0.865403 0.956888 0.809700 0.107494
H32   H     H_    0.519640 0.283332 0.068507 0.108780
H33   H     H_    0.456613 0.038916 0.168638 0.121956
C61   C     C_3   0.615995 0.017994 0.299786 -0.331289
C62   C     C_3   0.631353 0.946065 0.278685 -0.818556
H34   H     H_    0.486810 0.927854 0.266323 0.221242
H35   H     H_    0.728839 0.958701 0.232175 0.226488
H36   H     H_    0.691087 0.896118 0.324188 0.229213
H37   H     H_    0.761174 0.025882 0.319645 0.190073
H38   H     H_    0.509588 0.002873 0.343494 0.198963
H39   H     H_    0.866936 0.355878 0.724870 0.146614
H40   H     H_    0.328757 0.249384 0.687463 0.078182
C63   C     C_3   0.479923 0.331420 0.600149 -0.324810
C64   C     C_3   0.609422 0.405085 0.577678 -0.766697
H41   H     H_    0.536771 0.453469 0.588014 0.210659
H42   H     H_    0.750316 0.394328 0.605039 0.226226
H43   H     H_    0.635896 0.425849 0.519218 0.207821
H44   H     H_    0.520853 0.296234 0.568012 0.180810
H45   H     H_    0.331154 0.351842 0.582611 0.163733
C65   C     C_3   0.378744 0.108226 0.794003 -0.361613
C66   C     C_3   0.365727 0.038221 0.865010 -0.783932
H46   H     H_    0.483375 0.996211 0.869101 0.225833
H47   H     H_    0.375631 0.057993 0.910824 0.223636
H48   H     H_    0.225539 0.007207 0.868061 0.222304
H49   H     H_    0.254592 0.147218 0.790252 0.175242
H50   H     H_    0.362544 0.084911 0.750607 0.192830
H51   H     H_    0.941050 0.271770 0.799566 0.138765
C67   C     C_3   0.996083 0.830268 0.094916 -0.348122
C68   C     C_3   0.782266 0.809763 0.109413 -0.764291
H52   H     H_    0.754503 0.747855 0.115466 0.221644
H53   H     H_    0.731550 0.820185 0.157246 0.221881
H54   H     H_    0.696519 0.847185 0.062758 0.207533
H55   H     H_    0.010498 0.895285 0.069503 0.171780
H56   H     H_    0.045718 0.806622 0.054513 0.173062

loop_
_geom_bond_atom_site_label_1
_geom_bond_atom_site_label_2
_ccdc_geom_bond_type
C52   C58   T    
C68   H54   S    
O17   V3    S    
C8    C14   T    
V4    O20   S    
C50   C53   S    
C66   H48   S    
C43   C44   A    
O11   C46   A    
C1    O6    A    
C64   H41   S    
C1    C40   S    
C3    C26   S    
C30   H17   S    
C49   H23   S    
C66   H46   S    
C36   C40   A    
C9    C15   S    
C42   H21   S    
C56   H29   S    
C10   C11   S    
O11   V4    S    
C11   C14   S    
C49   H28   S    
C38   C41   A    
C65   H50   S    
C12   C13   S    
C33   H33   S    
C23   C48   S    
V2    O10   S    
H18   C43   S    
C34   C61   S    
C59   C60   T    
C12   H10   S    
C66   H47   S    
C6    C7    S    
C18   C19   A    
C63   H44   S    
C18   H13   S    
C63   H45   S    
C61   C62   S    
O13   C48   A    
O8    V2    S    
C31   C36   A    
C49   C54   S    
C38   C39   A    
C35   C37   A    
C53   C59   S    
O1    V2    S    
O7    V1    S    
C31   C32   A    
C49   C53   S    
H11   C29   S    
C56   H27   S    
C6    H3    S    
O9    C4    A    
C5    C10   S    
C25   C30   A    
O15   C47   A    
C31   H32   S    
C7    H6    S    
C54   H51   S    
C55   C56   S    
C51   H24   S    
C21   C23   A    
C15   C16   T    
C24   C27   A    
C62   H35   S    
C17   C22   A    
V3    O20   S    
C37   C46   S    
C6    C9    S    
C9    C13   S    
C37   C38   A    
C5    C9    S    
C45   C60   S    
C67   H56   S    
O12   C45   A    
O19   C48   A    
O4    C2    A    
C5    H9    S    
H1    C10   S    
C45   O16   A    
C5    H2    S    
C28   C29   A    
C50   C63   S    
O2    C1    A    
C20   C21   A    
O5    V1    S    
C11   C12   S    
O16   V4    S    
O19   V4    S    
C19   H31   S    
C24   C25   A    
C22   C26   A    
C62   H34   S    
C50   C51   S    
C32   C33   A    
C27   C28   A    
C50   H40   S    
C39   C44   A    
C28   H16   S    
C61   H38   S    
O3    C4    A    
C10   H30   S    
C17   C18   A    
O14   C46   A    
O6    V2    S    
C17   H12   S    
O9    V2    S    
C2    C52   S    
C13   H7    S    
C32   H19   S    
C19   C20   A    
C63   C64   S    
O2    V1    S    
C64   H43   S    
C65   H49   S    
C51   H25   S    
C29   C30   A    
C57   H26   S    
C62   H36   S    
C68   H53   S    
C23   C24   A    
C25   C26   A    
O1    C2    A    
C27   H15   S    
C67   H55   S    
C21   C22   A    
O15   V3    S    
C42   C43   A    
C64   H42   S    
C4    C16   S    
O8    C3    A    
C65   C66   S    
C8    C47   S    
C56   C57   S    
C12   H8    S    
C51   C55   S    
C34   C35   A    
C13   C67   S    
C7    H5    S    
O7    V2    S    
O4    V1    S    
O12   V3    S    
O3    V1    S    
V1    O10   S    
O5    C3    A    
C41   H20   S    
C6    H4    S    
O17   V4    S    
O14   V3    S    
C61   H37   S    
O18   V4    S    
C39   C40   A    
C54   H39   S    
O13   V3    S    
C33   C34   A    
C20   H14   S    
C57   C65   S    
C41   C42   A    
C35   C36   A    
C44   H22   S    
C53   C57   S    
C54   C55   S    
C67   C68   S    
O18   C47   A    
C55   C58   S    
C68   H52   S    
C7    C11   S    
