data_mof_unit_65218.cif
_audit_creation_date              2012-12-10T21:38:03-0500
_audit_creation_method            fapswitch 2.2
_symmetry_space_group_name_H-M    P1
_symmetry_Int_Tables_number       1
_space_group_crystal_system       triclinic
_cell_length_a                    16.134838
_cell_length_b                    16.77536
_cell_length_c                    16.789386
_cell_angle_alpha                 90.098537
_cell_angle_beta                  93.267984
_cell_angle_gamma                 87.166269
_cell_volume                      4531.40435651

loop_
_atom_site_label
_atom_site_type_symbol
_atom_type_description
_atom_site_fract_x
_atom_site_fract_y
_atom_site_fract_z
_atom_type_partial_charge
C1    C     C_R   0.511201 0.347012 0.497336 1.005094
C2    C     C_R   0.488684 0.652882 0.502172 1.016937
C3    C     C_R   0.518036 0.260951 0.487293 -0.466459
C4    C     C_R   0.481171 0.738784 0.511206 -0.451898
C5    C     C_R   0.451681 0.221433 0.448880 0.329281
C6    C     C_R   0.543140 0.778193 0.556213 0.326010
C7    C     C_R   0.454100 0.137932 0.447936 0.328834
C8    C     C_R   0.540185 0.861778 0.557770 0.334367
C9    C     C_R   0.526366 0.095318 0.478735 -0.049025
C10   C     C_R   0.470929 0.904075 0.520714 -0.048235
C11   C     C_R   0.595112 0.135236 0.508926 0.499462
C12   C     C_R   0.405934 0.864100 0.482927 0.511410
C13   C     C_R   0.590717 0.217733 0.514653 0.463738
C14   C     C_R   0.411450 0.781700 0.476871 0.474843
C15   C     C_R   0.233609 0.538358 0.460297 0.560691
C16   C     C_R   0.766401 0.461693 0.539754 0.564100
C17   C     C_R   0.146499 0.534681 0.459025 0.222552
C18   C     C_R   0.853508 0.465489 0.541165 0.227964
C19   C     C_R   0.110875 0.482481 0.512780 -0.087504
C20   C     C_R   0.889148 0.517770 0.487506 -0.090900
C21   C     C_R   0.164850 0.433958 0.562620 0.419206
C22   C     C_R   0.835183 0.566203 0.437569 0.426157
C23   C     C_R   0.511996 0.502459 0.652517 0.942590
C24   C     C_R   0.488090 0.496645 0.347567 0.939631
C25   C     C_R   0.251117 0.438448 0.560052 0.504708
C26   C     C_R   0.748904 0.561516 0.439920 0.549552
C27   C     C_R   0.520600 0.511456 0.738450 -0.345572
C28   C     C_R   0.480241 0.482137 0.262350 -0.343757
C29   C     C_R   0.461386 0.559615 0.777541 0.308745
C30   C     C_R   0.412901 0.517983 0.216048 0.305890
C31   C     C_R   0.471262 0.569574 0.859875 0.600201
C32   C     C_R   0.406942 0.504575 0.134162 0.585689
C33   C     C_R   0.536254 0.528079 0.902875 -0.210599
C34   C     C_R   0.469180 0.458531 0.098825 -0.212974
C35   C     C_R   0.595799 0.481776 0.864295 -0.367853
C36   C     C_R   0.533613 0.419858 0.144823 -0.352074
C37   C     C_R   0.588318 0.472830 0.781919 0.471793
C38   C     C_R   0.538743 0.429361 0.227654 0.513767
C39   C     C_2   0.531124 0.518611 0.988973 0.506247
C40   C     C_2   0.477583 0.465317 0.012897 0.529458
H1    H     H_    0.645380 0.449188 0.898538 0.192645
H2    H     H_    0.582141 0.386417 0.115339 0.177387
N1    N     N_2   0.529452 0.011815 0.483962 -0.047216
N2    N     N_2   0.468034 0.987468 0.516368 -0.042631
N3    N     N_R   0.283770 0.490310 0.509640 -0.254373
N4    N     N_R   0.716230 0.509690 0.490360 -0.256149
N5    N     N_2   0.023187 0.474186 0.517957 0.004662
N6    N     N_2   0.976838 0.526106 0.482387 0.003684
O1    O     O_R   0.577220 0.387330 0.496550 -0.535421
O2    O     O_R   0.422780 0.612670 0.503450 -0.540478
O3    O     O_R   0.438350 0.381110 0.502740 -0.548283
O4    O     O_R   0.561650 0.618890 0.497260 -0.557504
O5    O     O_R   0.577640 0.503470 0.612340 -0.560974
O6    O     O_R   0.422360 0.496530 0.387660 -0.567165
O7    O     O_R   0.438770 0.497250 0.618530 -0.576453
O8    O     O_R   0.561230 0.502750 0.381470 -0.540261
Zn1   Zn    Zn3+2 0.592720 0.504150 0.495870 1.118785
Zn2   Zn    Zn3+2 0.407280 0.495850 0.504130 1.096735
O9    O     O_3   0.397551 0.601103 0.734286 -0.601152
C41   C     C_3   0.322247 0.564041 0.744862 -0.079884
H3    H     H_    0.299308 0.577146 0.804846 0.212122
H4    H     H_    0.328047 0.498295 0.735320 0.180791
H5    H     H_    0.274649 0.588640 0.700014 0.158937
O10   O     O_3   0.352637 0.565945 0.250507 -0.551390
C42   C     C_3   0.377207 0.645459 0.250059 -0.005453
H6    H     H_    0.384171 0.667036 0.188243 0.158453
H7    H     H_    0.435833 0.652245 0.287157 0.119507
H8    H     H_    0.328118 0.684106 0.276321 0.243397
F1    F     F_    0.731845 0.410183 0.588721 -0.545386
F2    F     F_    0.268188 0.589710 0.411157 -0.544760
O11   O     O_3   0.902300 0.416094 0.592498 -0.501690
C43   C     C_3   0.908896 0.453298 0.667830 -0.088361
H9    H     H_    0.936812 0.512498 0.664127 0.127826
H10   H     H_    0.847498 0.459702 0.694807 0.175394
H11   H     H_    0.950654 0.415190 0.708272 0.205175
O12   O     O_3   0.097694 0.584063 0.407692 -0.506041
C44   C     C_3   0.091011 0.546804 0.332390 -0.063891
H12   H     H_    0.152377 0.540354 0.305356 0.180710
H13   H     H_    0.063080 0.487617 0.336165 0.126836
H14   H     H_    0.049230 0.584896 0.291954 0.207778
F3    F     F_    0.133604 0.382191 0.613816 -0.574704
F4    F     F_    0.866449 0.617989 0.386403 -0.568249
F5    F     F_    0.302356 0.390612 0.608018 -0.596817
F6    F     F_    0.697680 0.609031 0.391615 -0.575886
O13   O     O_3   0.603630 0.393899 0.275529 -0.567025
C45   C     C_3   0.618749 0.312793 0.255787 -0.287386
H15   H     H_    0.560581 0.281674 0.240260 0.124621
H16   H     H_    0.649862 0.281852 0.308538 0.209342
H17   H     H_    0.661661 0.307245 0.206451 0.184275
O14   O     O_3   0.647385 0.426249 0.744294 -0.563836
C46   C     C_3   0.622721 0.346756 0.742725 -0.089729
H18   H     H_    0.670409 0.309204 0.713140 0.252287
H19   H     H_    0.562647 0.341366 0.707557 0.135168
H20   H     H_    0.618433 0.322844 0.804093 0.120936
O15   O     O_3   0.427727 0.425738 0.956103 -0.620785
C47   C     C_3   0.392564 0.358350 0.988147 -0.240309
H21   H     H_    0.344267 0.376514 0.030138 0.196686
H22   H     H_    0.441093 0.317140 0.017607 0.140171
H23   H     H_    0.361656 0.325126 0.938587 0.204168
O16   O     O_3   0.580258 0.558924 0.045875 -0.627426
C48   C     C_3   0.621943 0.621729 0.012604 -0.216752
H24   H     H_    0.577411 0.665317 0.981012 0.185717
H25   H     H_    0.669736 0.598295 0.972294 0.162155
H26   H     H_    0.654609 0.654119 0.061719 0.207885
F7    F     F_    0.344569 0.541828 0.088367 -0.607111
F8    F     F_    0.415621 0.616499 0.898714 -0.624698
O17   O     O_3   0.607424 0.735179 0.597101 -0.573800
C49   C     C_3   0.583591 0.720752 0.675062 -0.216534
H27   H     H_    0.633216 0.682882 0.706787 0.178031
H28   H     H_    0.525348 0.687854 0.674519 0.161877
H29   H     H_    0.576223 0.777427 0.709035 0.192339
O18   O     O_3   0.382982 0.263928 0.414829 -0.557653
C50   C     C_3   0.398612 0.282029 0.335319 -0.233639
H30   H     H_    0.452112 0.320961 0.332722 0.132567
H31   H     H_    0.343279 0.315399 0.307657 0.187449
H32   H     H_    0.409421 0.226858 0.299663 0.173186
O19   O     O_3   0.600406 0.902923 0.600540 -0.569969
C51   C     C_3   0.675689 0.896340 0.561455 -0.046081
H33   H     H_    0.717310 0.941911 0.586506 0.217780
H34   H     H_    0.666452 0.907722 0.496104 0.152421
H35   H     H_    0.708198 0.837231 0.572498 0.183068
O20   O     O_3   0.389645 0.097128 0.411368 -0.560478
C52   C     C_3   0.319115 0.104617 0.457541 -0.031438
H36   H     H_    0.334982 0.095969 0.522535 0.138861
H37   H     H_    0.276083 0.057756 0.438566 0.218547
H38   H     H_    0.284871 0.162942 0.446929 0.186396
F9    F     F_    0.664603 0.093489 0.537619 -0.599989
F10   F     F_    0.339581 0.905708 0.447546 -0.591003
F11   F     F_    0.656208 0.254909 0.549647 -0.559218
F12   F     F_    0.350211 0.744192 0.435147 -0.563393

loop_
_geom_bond_atom_site_label_1
_geom_bond_atom_site_label_2
_ccdc_geom_bond_type
C48   H24   S    
C30   O10   S    
C27   C29   A    
C36   H2    S    
O15   C47   S    
C39   O16   S    
O1    Zn1   S    
C52   H36   S    
C44   H12   S    
O8    Zn1   S    
C33   C39   S    
C37   O14   S    
C41   H5    S    
C34   C40   S    
C22   F4    S    
C35   C37   A    
O6    Zn2   S    
C19   N5    S    
C52   H37   S    
C24   O6    A    
C47   H23   S    
C45   H16   S    
C49   H27   S    
C41   H4    S    
C51   H33   S    
C2    O2    A    
C17   C19   A    
C29   O9    S    
C42   H7    S    
C47   H22   S    
C17   O12   S    
C6    O17   S    
C31   C33   A    
C23   C27   S    
C18   C20   A    
C3    C13   A    
C50   H32   S    
O9    C41   S    
C48   H25   S    
C43   H11   S    
O18   C50   S    
C8    O19   S    
C23   O5    A    
C44   H13   S    
N3    Zn2   S    
C9    N1    S    
C38   O13   S    
C10   N2    S    
O2    Zn2   S    
O12   C44   S    
C43   H10   S    
C16   N4    A    
C39   C40   D    
C5    C7    A    
O5    Zn1   S    
C45   H15   S    
C52   H38   S    
C6    C8    A    
O13   C45   S    
C41   H3    S    
C1    C3    S    
C51   H35   S    
C32   C34   A    
C11   F9    S    
N1    N2    D    
C2    O4    A    
C46   H19   S    
C1    O3    A    
N5    N6    D    
C28   C38   A    
O17   C49   S    
C42   H8    S    
C47   H21   S    
C21   F3    S    
O3    Zn2   S    
C23   O7    A    
C9    C11   A    
C20   N6    S    
C10   C12   A    
C4    C6    A    
C12   C14   A    
C48   H26   S    
C32   F7    S    
N4    Zn1   S    
C31   F8    S    
C15   N3    A    
C7    O20   S    
C25   N3    A    
C46   H18   S    
C50   H30   S    
C14   F12   S    
C44   H14   S    
C18   O11   S    
C7    C9    A    
C15   F2    S    
C21   C25   A    
C26   F6    S    
C19   C21   A    
C16   C18   A    
C16   F1    S    
C24   C28   S    
C20   C22   A    
C43   H9    S    
C3    C5    A    
C45   H17   S    
C15   C17   A    
C12   F10   S    
C5    O18   S    
C24   O8    A    
C49   H29   S    
O10   C42   S    
C28   C30   A    
O11   C43   S    
C29   C31   A    
O19   C51   S    
C46   H20   S    
C30   C32   A    
C11   C13   A    
O14   C46   S    
C27   C37   A    
C2    C4    S    
C36   C38   A    
O16   C48   S    
C33   C35   A    
C49   H28   S    
C34   C36   A    
C4    C14   A    
C35   H1    S    
C51   H34   S    
O4    Zn1   S    
C26   N4    A    
C8    C10   A    
C42   H6    S    
C22   C26   A    
O7    Zn2   S    
C25   F5    S    
C13   F11   S    
C40   O15   S    
O20   C52   S    
C1    O1    A    
C50   H31   S    
