data_mof_unit_17942.cif
_audit_creation_date              2012-12-10T18:57:09-0500
_audit_creation_method            fapswitch 2.2
_symmetry_space_group_name_H-M    P1
_symmetry_Int_Tables_number       1
_space_group_crystal_system       triclinic
_cell_length_a                    8.726159
_cell_length_b                    10.828305
_cell_length_c                    9.577243
_cell_angle_alpha                 90.695323
_cell_angle_beta                  97.612339
_cell_angle_gamma                 90.647973
_cell_volume                      896.831505053

loop_
_atom_site_label
_atom_site_type_symbol
_atom_type_description
_atom_site_fract_x
_atom_site_fract_y
_atom_site_fract_z
_atom_type_partial_charge
C1    C     C_R   0.492712 0.262816 0.498313 0.786563
C2    C     C_R   0.380900 0.931223 0.389538 -0.065674
C3    C     C_R   0.477188 0.870836 0.499312 -0.191284
C4    C     C_R   0.549098 0.940715 0.613239 0.077942
C5    C     C_3   0.710633 0.942146 0.690723 -0.239352
C6    C     C_3   0.705334 0.082224 0.687858 -0.459309
C7    C     C_R   0.615921 0.557751 0.088431 0.188979
C8    C     C_R   0.395979 0.431179 0.061773 -0.051937
C9    C     C_R   0.396382 0.429872 0.913275 0.039209
C10   C     C_R   0.617369 0.555863 0.941497 0.192356
C11   C     C_3   0.668807 0.686931 0.940189 -0.328344
C12   C     C_R   0.204051 0.498692 0.464039 0.861088
C13   C     C_3   0.659183 0.691667 0.098973 -0.310467
C14   C     C_R   0.496034 0.737568 0.500128 0.786427
C15   C     C_R   0.795950 0.500071 0.535977 0.887972
C16   C     C_2   0.038312 0.495350 0.444376 -0.338934
C17   C     C_2   0.961724 0.501040 0.555806 -0.315464
C18   C     C_R   0.545566 0.066976 0.612116 0.126683
C19   C     C_R   0.475086 0.129641 0.496412 -0.181526
C20   C     C_R   0.383719 0.063077 0.386346 -0.044015
Cu1   Cu    Cu3+1 0.499990 0.499980 0.640670 0.971346
Cu2   Cu    Cu3+1 0.500010 0.500020 0.359330 0.960848
H1    H     H_    0.979008 0.488210 0.337326 0.178214
H2    H     H_    0.582839 0.746226 0.878101 0.182573
H3    H     H_    0.563881 0.750522 0.126959 0.191290
H4    H     H_    0.021013 0.507410 0.662893 0.190100
H5    H     H_    0.718012 0.907603 0.799394 0.162316
H6    H     H_    0.705401 0.125044 0.793969 0.209187
H7    H     H_    0.785543 0.127093 0.621991 0.193937
H8    H     H_    0.310512 0.377454 0.107701 0.156667
N1    N     N_R   0.500980 0.500930 0.148050 -0.201021
N2    N     N_R   0.500990 0.500890 0.852140 -0.217004
O1    O     O_R   0.500000 0.319640 0.618810 -0.573164
O2    O     O_R   0.500020 0.319680 0.381230 -0.581796
O3    O     O_R   0.274830 0.499980 0.591380 -0.573832
O4    O     O_R   0.274850 0.500020 0.353800 -0.601843
O5    O     O_R   0.499980 0.680320 0.618770 -0.577979
O6    O     O_R   0.500000 0.680360 0.381190 -0.596691
O7    O     O_R   0.725150 0.499980 0.646200 -0.583990
O8    O     O_R   0.725170 0.500020 0.408620 -0.575104
C21   C     C_1   0.286144 0.350576 0.829311 0.336107
N3    N     N_1   0.197418 0.285966 0.762874 -0.290548
C22   C     C_1   0.825856 0.694403 0.899009 0.299063
N4    N     N_1   0.949185 0.700006 0.867306 -0.258302
C23   C     C_1   0.805779 0.714524 0.191014 0.348414
N5    N     N_1   0.921223 0.733132 0.262710 -0.274025
C24   C     C_2   0.289906 0.132818 0.274110 0.490126
H9    H     H_    0.209605 0.201723 0.302381 0.018849
O9    O     O_2   0.310013 0.120517 0.151017 -0.500860
C25   C     C_2   0.272103 0.855386 0.288407 0.433123
H10   H     H_    0.234777 0.765066 0.319202 0.092444
O10   O     O_2   0.223692 0.890510 0.170490 -0.484866
C26   C     C_1   0.827140 0.890561 0.609272 0.322426
N6    N     N_1   0.919543 0.850118 0.546177 -0.266917

loop_
_geom_bond_atom_site_label_1
_geom_bond_atom_site_label_2
_ccdc_geom_bond_type
C8    C9    A    
C7    C10   A    
C25   O10   D    
C22   N4    T    
C11   C22   S    
Cu1   O3    S    
Cu1   O1    S    
C12   O4    A    
Cu2   O4    S    
C21   N3    T    
C9    C21   S    
C19   C20   A    
Cu1   O7    S    
C4    C18   A    
Cu1   Cu2   S    
C2    C3    A    
C8    H8    S    
C24   O9    D    
C23   N5    T    
C12   O3    A    
C13   C23   S    
C11   C13   S    
C15   O7    A    
C3    C14   S    
C6    C18   S    
C17   H4    S    
C5    C26   S    
C1    O2    A    
C25   H10   S    
C16   H1    S    
C5    C6    S    
Cu2   O2    S    
Cu1   N2    S    
C15   O8    A    
C1    C19   S    
C20   C24   S    
C14   O6    A    
C10   C11   S    
C1    O1    A    
C3    C4    A    
Cu2   O6    S    
C24   H9    S    
C10   N2    A    
C11   H2    S    
C7    C13   S    
C6    H7    S    
C7    N1    A    
Cu1   O5    S    
C18   C19   A    
Cu2   N1    S    
C15   C17   S    
Cu2   O8    S    
C16   C17   D    
C2    C25   S    
C9    N2    A    
C13   H3    S    
C5    H5    S    
C8    N1    A    
C2    C20   A    
C6    H6    S    
C12   C16   S    
C26   N6    T    
C4    C5    S    
C14   O5    A    
