data_mof_unit_10449.cif
_audit_creation_date              2012-12-10T17:41:59-0500
_audit_creation_method            fapswitch 2.2
_symmetry_space_group_name_H-M    P1
_symmetry_Int_Tables_number       1
_space_group_crystal_system       triclinic
_cell_length_a                    24.426982
_cell_length_b                    24.436428
_cell_length_c                    42.862564
_cell_angle_alpha                 90.032062
_cell_angle_beta                  89.975855
_cell_angle_gamma                 90.149895
_cell_volume                      25584.9215456

loop_
_atom_site_label
_atom_site_type_symbol
_atom_type_description
_atom_site_fract_x
_atom_site_fract_y
_atom_site_fract_z
_atom_type_partial_charge
C1    C     C_R   0.500066 0.996763 0.933972 0.005526
C2    C     C_R   0.823627 0.256579 0.259249 -0.132569
C3    C     C_R   0.457200 0.023920 0.581908 -0.096310
C4    C     C_R   0.049450 0.510321 0.417779 -0.094936
C5    C     C_R   0.952535 0.481944 0.582511 -0.104013
C6    C     C_R   0.458679 0.971944 0.417962 -0.064413
C7    C     C_R   0.544353 0.973478 0.582404 -0.095275
C8    C     C_R   0.452970 0.981803 0.884274 -0.106247
C9    C     C_R   0.543954 0.023298 0.115124 -0.108544
C10   C     C_R   0.018144 0.452728 0.884461 -0.060194
C11   C     C_R   0.973293 0.542174 0.115146 -0.116356
C12   C     C_R   0.548057 0.015761 0.884956 -0.099300
C13   C     C_R   0.261332 0.179882 0.733869 -0.132743
C14   C     C_R   0.454897 0.975861 0.115577 -0.106791
C15   C     C_R   0.984126 0.547526 0.884650 -0.101545
C16   C     C_R   0.027241 0.457198 0.115361 -0.116296
C17   C     C_R   0.952461 0.484061 0.384440 -0.105391
C18   C     C_R   0.048661 0.512617 0.615461 -0.105012
C19   C     C_R   0.540207 0.030790 0.384963 -0.084311
C20   C     C_R   0.458912 0.027545 0.614715 -0.129449
C21   C     C_R   0.049177 0.512945 0.384810 -0.099262
C22   C     C_R   0.951889 0.484235 0.615500 -0.066261
C23   C     C_R   0.459712 0.970085 0.385060 -0.121855
C24   C     C_R   0.734324 0.815177 0.270592 -0.140383
C25   C     C_R   0.541735 0.970461 0.615199 -0.128577
C26   C     C_R   0.500026 0.999888 0.665966 0.897624
C27   C     C_R   0.499968 0.000085 0.334031 0.802589
C28   C     C_R   0.000192 0.499988 0.666087 0.845624
C29   C     C_R   0.000704 0.500026 0.333930 0.947198
C30   C     C_R   0.000019 0.499969 0.166038 0.949729
C31   C     C_R   0.999993 0.500204 0.833921 0.848366
C32   C     C_R   0.499951 0.999972 0.166065 0.954537
C33   C     C_R   0.500824 0.000039 0.833926 0.945575
C34   C     C_R   0.605786 0.894045 0.749905 0.865347
C35   C     C_R   0.827087 0.255818 0.748086 -0.133317
C36   C     C_R   0.394003 0.105895 0.249974 0.849010
C37   C     C_R   0.105629 0.605636 0.750003 0.852657
C38   C     C_R   0.893955 0.394031 0.250032 0.881905
C39   C     C_R   0.394166 0.105908 0.749966 0.873405
C40   C     C_R   0.605985 0.894072 0.249977 0.842520
C41   C     C_R   0.894365 0.394363 0.750002 0.874365
C42   C     C_R   0.106025 0.605995 0.250011 0.887736
C43   C     C_R   0.394353 0.894367 0.250003 0.862317
C44   C     C_R   0.606030 0.105984 0.750015 0.884093
C45   C     C_R   0.894147 0.605897 0.249981 0.873455
C46   C     C_R   0.175957 0.743824 0.258372 -0.129311
C47   C     C_R   0.106020 0.394098 0.749952 0.853031
C48   C     C_R   0.605635 0.105639 0.250012 0.877326
C49   C     C_R   0.393956 0.894034 0.750029 0.879921
C50   C     C_R   0.105860 0.394092 0.249963 0.864735
C51   C     C_R   0.893875 0.605810 0.749879 0.851494
C52   C     C_R   0.500340 0.000239 0.868263 -0.040348
C53   C     C_R   0.499564 0.999813 0.131700 -0.050873
C54   C     C_R   0.999882 0.499799 0.868265 -0.079254
C55   C     C_R   0.000124 0.499753 0.131634 -0.052855
C56   C     C_R   0.000511 0.500160 0.368280 -0.037925
C57   C     C_R   0.737896 0.819206 0.733042 -0.133623
C58   C     C_R   0.999889 0.499993 0.631749 -0.080984
C59   C     C_R   0.499886 0.000438 0.368528 -0.097713
C60   C     C_R   0.500188 0.999290 0.631473 -0.058786
C61   C     C_R   0.000945 0.495567 0.531603 0.450496
C62   C     C_R   0.000764 0.495458 0.468462 0.460092
C63   C     C_R   0.501693 0.998538 0.531720 0.416485
C64   C     C_R   0.502035 0.998572 0.468730 0.417180
C65   C     C_R   0.498891 0.998101 0.031476 0.453615
C66   C     C_R   0.499256 0.997149 0.968360 0.460921
C67   C     C_R   0.001255 0.499527 0.031387 0.453746
C68   C     C_R   0.265982 0.185149 0.270840 -0.138368
C69   C     C_R   0.001950 0.499904 0.968284 0.452697
C70   C     C_R   0.203174 0.632525 0.750163 0.469986
C71   C     C_R   0.798964 0.362209 0.237343 0.458693
C72   C     C_R   0.363547 0.200960 0.762029 0.474008
C73   C     C_R   0.648855 0.810610 0.226579 0.475746
C74   C     C_R   0.796818 0.367543 0.749673 0.468411
C75   C     C_R   0.201298 0.637476 0.237824 0.460276
C76   C     C_R   0.635721 0.798568 0.761385 0.468236
C77   C     C_R   0.350633 0.188697 0.226246 0.476743
C78   C     C_R   0.799521 0.637148 0.237287 0.471439
C79   C     C_R   0.820743 0.739235 0.265580 -0.133205
C80   C     C_R   0.190417 0.352029 0.772722 0.479641
C81   C     C_R   0.632364 0.203224 0.249302 0.469563
C82   C     C_R   0.362333 0.798919 0.762363 0.456441
C83   C     C_R   0.200208 0.362420 0.236778 0.473222
C84   C     C_R   0.808631 0.647336 0.772037 0.484937
C85   C     C_R   0.367583 0.796829 0.249767 0.474202
C86   C     C_R   0.637194 0.201510 0.761640 0.449994
C87   C     C_R   0.703188 0.132570 0.250983 0.468398
C88   C     C_R   0.298604 0.862625 0.737942 0.461718
C89   C     C_R   0.863233 0.700746 0.262369 0.474407
C90   C     C_R   0.185510 0.266383 0.728801 -0.137337
C91   C     C_R   0.148899 0.310676 0.726487 0.477610
C92   C     C_R   0.296766 0.867555 0.250355 0.472331
C93   C     C_R   0.701663 0.137053 0.738465 0.462661
C94   C     C_R   0.136928 0.299407 0.262665 0.469202
C95   C     C_R   0.850474 0.688459 0.725855 0.471850
C96   C     C_R   0.299575 0.137228 0.737278 0.476685
C97   C     C_R   0.689891 0.851598 0.273063 0.483998
C98   C     C_R   0.132329 0.703223 0.749877 0.468336
C99   C     C_R   0.861919 0.299340 0.263099 0.460158
C100  C     C_R   0.699972 0.862092 0.736698 0.479010
C101  C     C_R   0.743960 0.173281 0.253453 -0.134012
C102  C     C_R   0.310462 0.148784 0.273273 0.477735
C103  C     C_R   0.867641 0.296818 0.750317 0.465097
C104  C     C_R   0.137531 0.701183 0.262283 0.452279
C105  C     C_R   0.147794 0.647880 0.750022 -0.306981
C106  C     C_R   0.851038 0.351282 0.250140 -0.328301
C107  C     C_R   0.351797 0.148631 0.749787 -0.328846
C108  C     C_R   0.648808 0.851502 0.249881 -0.342823
C109  C     C_R   0.852186 0.352153 0.750004 -0.316508
C110  C     C_R   0.148868 0.648799 0.250036 -0.322042
C111  C     C_R   0.647816 0.850989 0.749395 -0.330119
C112  C     C_R   0.499110 0.998654 0.065944 0.007448
C113  C     C_R   0.255962 0.824173 0.741866 -0.132865
C114  C     C_R   0.351131 0.148387 0.249844 -0.345662
C115  C     C_R   0.851678 0.648537 0.249894 -0.331698
C116  C     C_R   0.148999 0.351669 0.749734 -0.344876
C117  C     C_R   0.647808 0.147891 0.250081 -0.311516
C118  C     C_R   0.351050 0.851280 0.750101 -0.327168
C119  C     C_R   0.148285 0.351373 0.249812 -0.334048
C120  C     C_R   0.850446 0.647804 0.749275 -0.344179
C121  C     C_R   0.352146 0.852170 0.250028 -0.310816
C122  C     C_R   0.648884 0.148767 0.750038 -0.321071
C123  C     C_3   0.093672 0.846248 0.770911 -0.256538
C124  C     C_R   0.179468 0.260977 0.265859 -0.133784
C125  C     C_3   0.894331 0.160351 0.300820 -0.231378
C126  C     C_3   0.155826 0.099110 0.713481 -0.231414
C127  C     C_3   0.790408 0.846153 0.340311 -0.200765
C128  C     C_3   0.905554 0.154637 0.773190 -0.259874
C129  C     C_3   0.103533 0.841855 0.297849 -0.226425
C130  C     C_3   0.843521 0.899609 0.712134 -0.230138
C131  C     C_3   0.211395 0.155953 0.341157 -0.194359
C132  C     C_3   0.901729 0.844510 0.285875 -0.230070
C133  C     C_3   0.154679 0.210531 0.659093 -0.206058
C134  C     C_3   0.847274 0.093300 0.232575 -0.256728
C135  C     C_R   0.813601 0.732585 0.727939 -0.136535
C136  C     C_3   0.157685 0.896532 0.702609 -0.234425
C137  C     C_3   0.098918 0.156157 0.287516 -0.227711
C138  C     C_3   0.844003 0.787534 0.658054 -0.210001
C139  C     C_3   0.153720 0.906079 0.229521 -0.259726
C140  C     C_3   0.843743 0.101995 0.704814 -0.236228
C141  C     C_3   0.592957 0.347022 0.268242 -0.261114
C142  C     C_3   0.396182 0.658452 0.797943 -0.233118
C143  C     C_3   0.655863 0.599096 0.213162 -0.232427
C144  C     C_3   0.292143 0.347603 0.839525 -0.206426
C145  C     C_3   0.406276 0.653696 0.270538 -0.261412
C146  C     C_R   0.255876 0.826920 0.252656 -0.134440
C147  C     C_3   0.602028 0.343431 0.795293 -0.233758
C148  C     C_3   0.343349 0.399770 0.211176 -0.232206
C149  C     C_3   0.704746 0.650278 0.838155 -0.203861
C150  C     C_3   0.402518 0.344986 0.784594 -0.233557
C151  C     C_3   0.655056 0.710840 0.159025 -0.212904
C152  C     C_3   0.346489 0.593960 0.729560 -0.256748
C153  C     C_3   0.659415 0.394787 0.200076 -0.234583
C154  C     C_3   0.596029 0.654246 0.782695 -0.237463
C155  C     C_3   0.342859 0.286508 0.157959 -0.212906
C156  C     C_3   0.654514 0.405347 0.726898 -0.261292
C157  C     C_R   0.744190 0.175638 0.742395 -0.132526
C158  C     C_3   0.342070 0.603673 0.202246 -0.237302
C159  C     C_3   0.214118 0.558056 0.718653 -0.189792
C160  C     C_3   0.797160 0.404085 0.190191 -0.167142
C161  C     C_3   0.446871 0.231322 0.746000 -0.159744
C162  C     C_3   0.634766 0.845762 0.178301 -0.175336
C163  C     C_3   0.786942 0.441863 0.717942 -0.185755
C164  C     C_3   0.204732 0.593988 0.191148 -0.170966
C165  C     C_3   0.551941 0.769339 0.745441 -0.152264
C166  C     C_3   0.364025 0.152151 0.178205 -0.175771
C167  C     C_3   0.768231 0.553956 0.252890 -0.159251
C168  C     C_R   0.673010 0.244089 0.246969 -0.135796
C169  C     C_3   0.156676 0.366118 0.821329 -0.195519
C170  C     C_3   0.556883 0.214971 0.279922 -0.188658
C171  C     C_3   0.405360 0.795967 0.809163 -0.173145
C172  C     C_3   0.232292 0.445683 0.251729 -0.165811
C173  C     C_3   0.841446 0.635354 0.820938 -0.195934
C174  C     C_3   0.442426 0.785932 0.280969 -0.220175
C175  C     C_3   0.592451 0.206473 0.807884 -0.146905
C176  C     C_3   0.715347 0.057196 0.220347 -0.185989
C177  C     C_3   0.295038 0.906193 0.691318 -0.176181
C178  C     C_3   0.946590 0.731519 0.246654 -0.159337
C179  C     C_R   0.323927 0.756271 0.758414 -0.132273
C180  C     C_3   0.134303 0.345585 0.678200 -0.169329
C181  C     C_3   0.285858 0.942672 0.219366 -0.180143
C182  C     C_3   0.706826 0.091933 0.692338 -0.179230
C183  C     C_3   0.053309 0.268252 0.247695 -0.154068
C184  C     C_3   0.865976 0.652862 0.677803 -0.156709
C185  C     C_3   0.268181 0.054268 0.753214 -0.160701
C186  C     C_3   0.655275 0.865611 0.321501 -0.207880
C187  C     C_3   0.057444 0.713977 0.781121 -0.185621
C188  C     C_3   0.903490 0.298272 0.310351 -0.177221
C189  C     C_3   0.732282 0.944643 0.752762 -0.171070
C190  C     C_R   0.761216 0.679764 0.233954 -0.133682
C191  C     C_3   0.346110 0.135678 0.321532 -0.169488
C192  C     C_3   0.942133 0.286996 0.781956 -0.173842
C193  C     C_3   0.094225 0.704438 0.309016 -0.147442
C194  C     C_2   0.402576 0.966103 0.866628 0.373613
C195  C     C_2   0.592155 0.046192 0.132166 0.379554
C196  C     C_2   0.032967 0.401824 0.867086 0.371482
C197  C     C_2   0.947110 0.588457 0.132258 0.400941
C198  C     C_2   0.600146 0.029654 0.868369 0.312141
C199  C     C_2   0.406864 0.953721 0.133093 0.378805
C200  C     C_2   0.970962 0.598275 0.866710 0.308885
C201  C     C_R   0.234868 0.315655 0.770163 -0.138278
C202  C     C_2   0.052983 0.410966 0.132695 0.401568
C203  C     C_2   0.901122 0.471077 0.366959 0.367892
C204  C     C_2   0.099525 0.524813 0.633569 0.308505
C205  C     C_2   0.579339 0.067381 0.368246 0.422474
C206  C     C_2   0.419608 0.064428 0.630999 0.448870
C207  C     C_2   0.101443 0.525031 0.367960 0.313158
C208  C     C_2   0.900175 0.472104 0.632849 0.371617
C209  C     C_2   0.419472 0.935639 0.367697 0.417196
C210  C     C_2   0.580373 0.933582 0.631972 0.450347
C211  C     C_2   0.402098 0.963414 0.934218 0.415808
C212  C     C_R   0.326980 0.755907 0.247464 -0.138226
C213  C     C_2   0.592444 0.043507 0.064735 0.410853
C214  C     C_2   0.038492 0.403623 0.934670 0.412779
C215  C     C_2   0.949232 0.589078 0.064891 0.411932
C216  C     C_2   0.597932 0.030937 0.935444 0.387979
C217  C     C_2   0.405765 0.953813 0.065639 0.409407
C218  C     C_2   0.962958 0.595861 0.935004 0.505568
C219  C     C_2   0.052428 0.410059 0.065307 0.410246
C220  C     C_2   0.901223 0.468436 0.434553 0.415056
C221  C     C_2   0.099895 0.526607 0.565241 0.502665
C222  C     C_2   0.591032 0.051357 0.434271 0.386991
C223  C     C_R   0.002249 0.500288 0.933919 -0.032817
C224  C     C_R   0.675740 0.244038 0.757668 -0.129972
C225  C     C_2   0.408808 0.046327 0.564919 0.406421
C226  C     C_2   0.100821 0.523641 0.435083 0.388465
C227  C     C_2   0.901351 0.468029 0.565256 0.407262
C228  C     C_2   0.412808 0.945165 0.435058 0.501986
C229  C     C_2   0.593087 0.950584 0.565934 0.401785
C230  C     C_R   0.238388 0.319684 0.233433 -0.134471
C231  C     C_R   0.763989 0.683392 0.769213 -0.139659
C232  C     C_R   0.321172 0.239593 0.765157 -0.133646
C233  C     C_R   0.685386 0.766261 0.228930 -0.139230
C234  C     C_R   0.244051 0.673158 0.752573 -0.136653
C235  C     C_R   0.756211 0.323897 0.241255 -0.132555
C236  C     C_R   0.677833 0.759589 0.764247 -0.134652
C237  C     C_R   0.314108 0.233066 0.228501 -0.138381
C238  C     C_R   0.755848 0.326967 0.751924 -0.133654
C239  C     C_R   0.000850 0.499579 0.065851 0.010103
C240  C     C_R   0.243930 0.675929 0.241738 -0.131772
C241  C     C_R   0.228787 0.728989 0.750086 -0.166698
C242  C     C_R   0.769542 0.269827 0.250234 -0.163582
C243  C     C_R   0.271029 0.230028 0.749499 -0.166037
C244  C     C_R   0.730114 0.770436 0.249762 -0.168423
C245  C     C_R   0.771155 0.271068 0.750007 -0.167538
C246  C     C_R   0.230337 0.730285 0.250052 -0.162075
C247  C     C_R   0.728019 0.769044 0.748588 -0.166245
C248  C     C_R   0.269786 0.229388 0.249662 -0.167945
C249  C     C_R   0.770735 0.729769 0.249765 -0.165806
C250  C     C_R   0.001054 0.495557 0.434013 0.005051
C251  C     C_R   0.230440 0.270726 0.749482 -0.167217
C252  C     C_R   0.728782 0.229011 0.250216 -0.167344
C253  C     C_R   0.269559 0.769807 0.750113 -0.162767
C254  C     C_R   0.229167 0.270055 0.249648 -0.166326
C255  C     C_R   0.768536 0.728277 0.748547 -0.167262
C256  C     C_R   0.271120 0.771093 0.250053 -0.167974
C257  C     C_R   0.730364 0.230252 0.750018 -0.163363
C258  C     C_R   0.159034 0.799942 0.743514 0.437866
C259  C     C_R   0.838115 0.201356 0.264556 0.417904
C260  C     C_R   0.213305 0.173225 0.715784 0.426922
C261  C     C_R   0.001001 0.495815 0.566060 -0.031378
C262  C     C_R   0.782148 0.821828 0.288839 0.421332
C263  C     C_R   0.841060 0.199922 0.744669 0.438112
C264  C     C_R   0.161286 0.799219 0.262914 0.416648
C265  C     C_R   0.785817 0.825671 0.714823 0.426345
C266  C     C_R   0.218513 0.178949 0.289452 0.420877
C267  C     C_R   0.827434 0.787277 0.283654 0.426858
C268  C     C_R   0.178828 0.218537 0.710571 0.422746
C269  C     C_R   0.799584 0.159626 0.258413 0.437904
C270  C     C_R   0.200515 0.838786 0.737412 0.418709
C271  C     C_R   0.173124 0.213374 0.284319 0.424140
C272  C     C_R   0.501471 0.998849 0.434292 -0.010346
C273  C     C_R   0.820217 0.780283 0.709605 0.423700
C274  C     C_R   0.200076 0.840730 0.256816 0.441878
C275  C     C_R   0.799754 0.160889 0.738579 0.418558
C276  C     C_R   0.659250 0.299707 0.242155 0.437954
C277  C     C_R   0.338596 0.700875 0.762912 0.417927
C278  C     C_R   0.713306 0.673207 0.215759 0.424911
C279  C     C_R   0.282906 0.322523 0.788201 0.422795
C280  C     C_R   0.340856 0.700142 0.243313 0.438902
C281  C     C_R   0.660935 0.299566 0.761484 0.417505
C282  C     C_R   0.285906 0.325782 0.214840 0.424804
C283  C     C_R   0.501066 0.998636 0.565840 0.011611
C284  C     C_R   0.715731 0.676324 0.787042 0.421701
C285  C     C_R   0.328106 0.287870 0.782997 0.427132
C286  C     C_R   0.678844 0.718541 0.210577 0.423912
C287  C     C_R   0.299839 0.659352 0.756744 0.438439
C288  C     C_R   0.700920 0.338339 0.236056 0.418005
C289  C     C_R   0.670626 0.711099 0.781843 0.426298
C290  C     C_R   0.320251 0.280317 0.209743 0.423766
C291  C     C_R   0.699927 0.340889 0.755369 0.439096
C292  C     C_R   0.299366 0.661320 0.237206 0.418624
C293  C     C_R   0.452842 0.980075 0.917266 -0.105396
C294  C     C_R   0.172920 0.744166 0.747574 -0.136626
C295  C     C_R   0.543874 0.022426 0.082135 -0.102208
C296  C     C_R   0.020179 0.453342 0.917444 -0.105003
C297  C     C_R   0.973945 0.542259 0.082159 -0.100810
C298  C     C_R   0.547826 0.013984 0.917935 -0.096309
C299  C     C_R   0.454538 0.975533 0.082587 -0.101769
C300  C     C_R   0.983911 0.547286 0.917676 -0.046432
C301  C     C_R   0.027333 0.456950 0.082373 -0.099808
C302  C     C_R   0.952686 0.481991 0.417436 -0.103285
C303  C     C_R   0.049129 0.511060 0.582440 -0.047710
C304  C     C_R   0.543363 0.026619 0.417697 -0.090326
H1    H     H_    0.107795 0.889241 0.768533 0.190252
H2    H     H_    0.833693 0.838172 0.346626 0.196510
H3    H     H_    0.769579 0.371985 0.180565 0.122360
H4    H     H_    0.840353 0.393379 0.184733 0.152685
H5    H     H_    0.787659 0.443061 0.178122 0.188109
H6    H     H_    0.425728 0.264181 0.732689 0.111147
H7    H     H_    0.456489 0.196620 0.730166 0.138877
H8    H     H_    0.486206 0.248473 0.754498 0.231137
H9    H     H_    0.675396 0.830241 0.170626 0.117578
H10   H     H_    0.638670 0.889178 0.185796 0.146521
H11   H     H_    0.607034 0.844655 0.157824 0.187907
H12   H     H_    0.768595 0.413053 0.700695 0.117788
H13   H     H_    0.765174 0.808840 0.344668 0.119662
H14   H     H_    0.830122 0.450483 0.711517 0.154179
H15   H     H_    0.764238 0.481000 0.716248 0.185675
H16   H     H_    0.232749 0.625679 0.181500 0.123342
H17   H     H_    0.161787 0.604627 0.185079 0.153817
H18   H     H_    0.214556 0.554574 0.179607 0.189050
H19   H     H_    0.572604 0.736516 0.731832 0.110028
H20   H     H_    0.542563 0.804432 0.729871 0.139871
H21   H     H_    0.512486 0.752475 0.753960 0.229647
H22   H     H_    0.323140 0.167188 0.170686 0.117765
H23   H     H_    0.360567 0.108930 0.186096 0.146856
H24   H     H_    0.775205 0.878561 0.356212 0.184473
H25   H     H_    0.391335 0.152853 0.157527 0.188514
H26   H     H_    0.734506 0.574857 0.265637 0.110378
H27   H     H_    0.802263 0.544850 0.269276 0.143506
H28   H     H_    0.751969 0.514356 0.244218 0.229469
H29   H     H_    0.173330 0.326069 0.829147 0.117643
H30   H     H_    0.113207 0.360976 0.814180 0.157067
H31   H     H_    0.157581 0.394336 0.841601 0.176593
H32   H     H_    0.584702 0.235178 0.297017 0.128537
H33   H     H_    0.548887 0.172153 0.287293 0.149494
H34   H     H_    0.517241 0.236977 0.280622 0.177254
H35   H     H_    0.891234 0.111637 0.771248 0.190747
H36   H     H_    0.373597 0.768023 0.818812 0.121864
H37   H     H_    0.394621 0.838962 0.815071 0.150148
H38   H     H_    0.444682 0.786324 0.820841 0.189044
H39   H     H_    0.266106 0.424715 0.264335 0.108071
H40   H     H_    0.198700 0.455397 0.268315 0.132700
H41   H     H_    0.248745 0.484957 0.242724 0.232543
H42   H     H_    0.822286 0.674053 0.829087 0.130609
H43   H     H_    0.884363 0.643599 0.813604 0.120546
H44   H     H_    0.842693 0.606744 0.841007 0.179697
H45   H     H_    0.414148 0.766410 0.298079 0.123984
H46   H     H_    0.886679 0.174332 0.794023 0.129918
H47   H     H_    0.450511 0.828928 0.287986 0.108219
H48   H     H_    0.481928 0.763739 0.282129 0.181415
H49   H     H_    0.623643 0.235089 0.817492 0.118296
H50   H     H_    0.603312 0.163874 0.814533 0.187618
H51   H     H_    0.552626 0.216327 0.818959 0.192084
H52   H     H_    0.735626 0.085078 0.203319 0.123045
H53   H     H_    0.672587 0.049118 0.212874 0.156084
H54   H     H_    0.737452 0.017619 0.219679 0.183194
H55   H     H_    0.266916 0.874587 0.681675 0.123606
H56   H     H_    0.337936 0.895466 0.685168 0.146724
H57   H     H_    0.950416 0.153547 0.777123 0.181308
H58   H     H_    0.285273 0.945654 0.679842 0.188123
H59   H     H_    0.925666 0.764881 0.233646 0.110020
H60   H     H_    0.955932 0.697176 0.230510 0.143324
H61   H     H_    0.986074 0.748123 0.255286 0.230872
H62   H     H_    0.174861 0.330062 0.670406 0.123486
H63   H     H_    0.138258 0.389034 0.685626 0.130751
H64   H     H_    0.106357 0.344387 0.657819 0.190487
H65   H     H_    0.266993 0.914295 0.202067 0.120523
H66   H     H_    0.328829 0.951485 0.212590 0.159068
H67   H     H_    0.263087 0.981833 0.218233 0.182540
H68   H     H_    0.103440 0.886556 0.293363 0.202294
H69   H     H_    0.735389 0.123133 0.682694 0.123493
H70   H     H_    0.664203 0.102587 0.685584 0.147587
H71   H     H_    0.716878 0.052066 0.681383 0.189141
H72   H     H_    0.073835 0.234291 0.234960 0.109735
H73   H     H_    0.044049 0.302103 0.231226 0.144576
H74   H     H_    0.013789 0.252275 0.256665 0.229104
H75   H     H_    0.825429 0.667937 0.669742 0.113768
H76   H     H_    0.862204 0.609545 0.685474 0.160806
H77   H     H_    0.894224 0.653839 0.657542 0.191771
H78   H     H_    0.234780 0.075505 0.766060 0.110492
H79   H     H_    0.136451 0.831532 0.314869 0.136912
H80   H     H_    0.302346 0.044980 0.769474 0.144696
H81   H     H_    0.251477 0.014760 0.744683 0.231034
H82   H     H_    0.671204 0.825161 0.329153 0.122356
H83   H     H_    0.611794 0.861330 0.314189 0.117217
H84   H     H_    0.656400 0.893454 0.341940 0.185247
H85   H     H_    0.085768 0.733290 0.798282 0.128148
H86   H     H_    0.049186 0.670964 0.788015 0.120624
H87   H     H_    0.018020 0.736301 0.782349 0.183473
H88   H     H_    0.871281 0.270905 0.320059 0.121323
H89   H     H_    0.892808 0.341564 0.315544 0.148345
H90   H     H_    0.063856 0.831550 0.309027 0.172698
H91   H     H_    0.942387 0.288940 0.322562 0.189029
H92   H     H_    0.765650 0.922987 0.765379 0.109094
H93   H     H_    0.698416 0.954120 0.769210 0.132553
H94   H     H_    0.749257 0.984055 0.744280 0.233123
H95   H     H_    0.330529 0.176379 0.329019 0.113107
H96   H     H_    0.389458 0.139576 0.313885 0.127097
H97   H     H_    0.345274 0.108312 0.342166 0.200886
H98   H     H_    0.913369 0.268681 0.799238 0.123623
H99   H     H_    0.950825 0.330155 0.788371 0.155853
H100  H     H_    0.981273 0.264267 0.783602 0.182717
H101  H     H_    0.880813 0.883983 0.700379 0.197961
H102  H     H_    0.125827 0.732560 0.318667 0.118818
H103  H     H_    0.105102 0.661540 0.315007 0.185526
H104  H     H_    0.054792 0.714007 0.320616 0.192293
H105  H     H_    0.377165 0.932370 0.874386 0.043150
H106  H     H_    0.612413 0.082918 0.123910 0.056832
H107  H     H_    0.065138 0.375229 0.875465 0.027629
H108  H     H_    0.908622 0.605369 0.124292 0.055885
H109  H     H_    0.639173 0.018166 0.878473 0.076865
H110  H     H_    0.386389 0.916761 0.125352 0.056265
H111  H     H_    0.953541 0.595561 0.843544 0.059452
H112  H     H_    0.112138 0.827520 0.792130 0.130300
H113  H     H_    0.847302 0.894263 0.737871 0.123605
H114  H     H_    0.091577 0.393898 0.124983 0.056102
H115  H     H_    0.873815 0.439029 0.374945 0.043771
H116  H     H_    0.097226 0.546472 0.655618 0.072433
H117  H     H_    0.622323 0.067949 0.374603 0.057765
H118  H     H_    0.376505 0.064129 0.625047 0.047606
H119  H     H_    0.140176 0.511651 0.377657 0.076351
H120  H     H_    0.871983 0.441094 0.624541 0.048269
H121  H     H_    0.433191 0.910368 0.348394 0.037961
H122  H     H_    0.623548 0.933132 0.626175 0.047690
H123  H     H_    0.377592 0.929323 0.926017 0.043636
H124  H     H_    0.841443 0.944227 0.707529 0.179589
H125  H     H_    0.612655 0.080935 0.071957 0.045671
H126  H     H_    0.073744 0.380656 0.926753 0.041568
H127  H     H_    0.910501 0.606302 0.072257 0.044653
H128  H     H_    0.623658 0.063692 0.926583 0.065946
H129  H     H_    0.385586 0.916714 0.073406 0.045591
H130  H     H_    0.928491 0.618736 0.925876 0.085039
H131  H     H_    0.090953 0.392814 0.072970 0.044884
H132  H     H_    0.874830 0.435601 0.426584 0.041324
H133  H     H_    0.125523 0.559661 0.573836 0.091024
H134  H     H_    0.606506 0.091258 0.427469 0.059134
H135  H     H_    0.168288 0.164330 0.347720 0.194105
H136  H     H_    0.368066 0.040869 0.574476 0.047966
H137  H     H_    0.128116 0.555341 0.426501 0.064887
H138  H     H_    0.875408 0.434662 0.572985 0.044242
H139  H     H_    0.399295 0.904410 0.428530 0.078286
H140  H     H_    0.633644 0.956510 0.575646 0.047539
H141  H     H_    0.236914 0.193236 0.345044 0.116143
H142  H     H_    0.226760 0.123871 0.357194 0.192250
H143  H     H_    0.885879 0.882221 0.297076 0.196876
H144  H     H_    0.896862 0.847327 0.260068 0.122400
H145  H     H_    0.946274 0.842594 0.290785 0.182901
H146  H     H_    0.163308 0.167384 0.652754 0.194938
H147  H     H_    0.191653 0.236291 0.654772 0.123044
H148  H     H_    0.048711 0.847231 0.774493 0.182082
H149  H     H_    0.122090 0.225266 0.643188 0.184964
H150  H     H_    0.890205 0.107319 0.235532 0.189819
H151  H     H_    0.829729 0.111121 0.210852 0.127358
H152  H     H_    0.848238 0.048243 0.229491 0.181800
H153  H     H_    0.112983 0.896597 0.707173 0.201385
H154  H     H_    0.167963 0.863651 0.685539 0.131750
H155  H     H_    0.167930 0.936211 0.691449 0.172164
H156  H     H_    0.114905 0.118788 0.298991 0.198362
H157  H     H_    0.103413 0.152534 0.261715 0.122795
H158  H     H_    0.054446 0.158256 0.292633 0.182739
H159  H     H_    0.894095 0.115441 0.297043 0.201398
H160  H     H_    0.834700 0.830482 0.651622 0.194973
H161  H     H_    0.807380 0.761196 0.653907 0.122253
H162  H     H_    0.876702 0.773103 0.642106 0.185035
H163  H     H_    0.110779 0.891700 0.231819 0.190157
H164  H     H_    0.172659 0.887883 0.208266 0.127739
H165  H     H_    0.152498 0.951041 0.226072 0.182189
H166  H     H_    0.888270 0.101865 0.709882 0.201813
H167  H     H_    0.834236 0.134423 0.687346 0.131457
H168  H     H_    0.833719 0.062042 0.693888 0.170487
H169  H     H_    0.606986 0.389964 0.265430 0.189724
H170  H     H_    0.860972 0.171866 0.317324 0.130701
H171  H     H_    0.610847 0.329244 0.289884 0.127345
H172  H     H_    0.547891 0.347962 0.271369 0.180750
H173  H     H_    0.396054 0.613714 0.793546 0.200968
H174  H     H_    0.363317 0.669072 0.814959 0.132253
H175  H     H_    0.435908 0.668654 0.809082 0.173561
H176  H     H_    0.618389 0.614866 0.201687 0.196961
H177  H     H_    0.652474 0.604123 0.238942 0.122656
H178  H     H_    0.657881 0.554537 0.208334 0.182656
H179  H     H_    0.335643 0.340407 0.845669 0.196138
H180  H     H_    0.267580 0.309950 0.844172 0.119536
H181  H     H_    0.933738 0.170821 0.312243 0.173912
H182  H     H_    0.276651 0.379979 0.855357 0.181399
H183  H     H_    0.392273 0.610681 0.268047 0.189908
H184  H     H_    0.387743 0.672236 0.291813 0.127055
H185  H     H_    0.451237 0.652811 0.274107 0.179769
H186  H     H_    0.601856 0.387949 0.790252 0.201362
H187  H     H_    0.634501 0.333927 0.812743 0.134194
H188  H     H_    0.562085 0.333357 0.806228 0.171883
H189  H     H_    0.380486 0.383789 0.199416 0.197403
H190  H     H_    0.347503 0.395259 0.236946 0.122569
H191  H     H_    0.341164 0.444229 0.206114 0.180488
H192  H     H_    0.118274 0.114832 0.702067 0.197560
H193  H     H_    0.660811 0.655316 0.844020 0.194337
H194  H     H_    0.727372 0.688987 0.843186 0.118040
H195  H     H_    0.721388 0.618447 0.853938 0.182363
H196  H     H_    0.386665 0.382965 0.795496 0.196756
H197  H     H_    0.397586 0.347149 0.758771 0.124348
H198  H     H_    0.447074 0.343224 0.789486 0.181573
H199  H     H_    0.663632 0.667717 0.152611 0.194134
H200  H     H_    0.692118 0.736544 0.154844 0.120120
H201  H     H_    0.622613 0.725757 0.143078 0.183638
H202  H     H_    0.389497 0.608000 0.732096 0.189135
H203  H     H_    0.152636 0.104287 0.739259 0.123959
H204  H     H_    0.328024 0.612435 0.708268 0.128666
H205  H     H_    0.347430 0.549012 0.725987 0.182788
H206  H     H_    0.614542 0.394782 0.204059 0.200860
H207  H     H_    0.670517 0.361417 0.183492 0.131073
H208  H     H_    0.669929 0.434151 0.188638 0.173205
H209  H     H_    0.611968 0.615907 0.793105 0.196209
H210  H     H_    0.600895 0.652993 0.756847 0.125139
H211  H     H_    0.551485 0.655785 0.787675 0.183634
H212  H     H_    0.333782 0.329380 0.151264 0.194045
H213  H     H_    0.305920 0.260396 0.154281 0.120311
H214  H     H_    0.157786 0.054522 0.708732 0.181578
H215  H     H_    0.375063 0.271419 0.141882 0.184046
H216  H     H_    0.611513 0.390994 0.728860 0.190122
H217  H     H_    0.674191 0.386515 0.706046 0.127017
H218  H     H_    0.653380 0.450194 0.722983 0.181865
H219  H     H_    0.386791 0.603646 0.206726 0.201310
H220  H     H_    0.331686 0.636574 0.185237 0.131773
H221  H     H_    0.331817 0.564003 0.191057 0.171457
H222  H     H_    0.233720 0.586465 0.701651 0.126546
H223  H     H_    0.171093 0.550131 0.711618 0.114711
H224  H     H_    0.236240 0.518538 0.717326 0.185663
N1    N     N_R   0.503291 0.045096 0.984176 -0.130640
N2    N     N_R   0.991363 0.448575 0.515584 -0.137104
N3    N     N_R   0.491450 0.951847 0.484754 -0.144683
N4    N     N_R   0.513079 0.045097 0.515830 -0.108055
N5    N     N_R   0.991282 0.448517 0.484516 -0.143061
N6    N     N_R   0.010189 0.542521 0.515535 -0.140286
N7    N     N_R   0.512626 0.045238 0.484834 -0.121785
N8    N     N_R   0.490659 0.951955 0.515749 -0.106776
N9    N     N_R   0.494764 0.950144 0.015633 -0.140409
N10   N     N_R   0.953879 0.500468 0.984138 -0.139306
N11   N     N_R   0.049331 0.498902 0.015492 -0.139578
N12   N     N_R   0.494884 0.949674 0.984575 -0.142706
N13   N     N_R   0.503051 0.045569 0.015220 -0.138940
N14   N     N_R   0.049676 0.499000 0.984439 -0.135488
N15   N     N_R   0.953538 0.500223 0.015184 -0.138865
N16   N     N_R   0.010133 0.542460 0.484487 -0.129561
O1    O     O_3   0.500000 0.000000 0.750000 -0.530990
O2    O     O_R   0.454060 0.000000 0.319230 -0.641159
O3    O     O_3   0.586894 0.211992 0.775216 -0.560137
O4    O     O_3   0.717059 0.077579 0.251208 -0.524615
O5    O     O_3   0.288450 0.912539 0.723882 -0.548288
O6    O     O_3   0.915601 0.713347 0.272503 -0.526990
O7    O     O_3   0.111714 0.312880 0.702160 -0.517626
O8    O     O_3   0.282951 0.922567 0.250249 -0.520321
O9    O     O_3   0.712200 0.086659 0.725031 -0.549725
O10   O     O_3   0.084753 0.287035 0.273219 -0.529079
O11   O     O_3   0.887959 0.686219 0.701663 -0.519314
O12   O     O_3   0.286734 0.084830 0.727299 -0.528817
O13   O     O_R   0.000000 0.545940 0.680770 -0.637911
O14   O     O_3   0.687612 0.888590 0.297496 -0.508470
O15   O     O_3   0.077276 0.716940 0.750170 -0.522247
O16   O     O_3   0.911188 0.289758 0.278027 -0.547167
O17   O     O_3   0.713094 0.914474 0.726838 -0.527065
O18   O     O_3   0.313177 0.112304 0.297918 -0.509096
O19   O     O_3   0.922693 0.283112 0.750963 -0.528514
O20   O     O_3   0.087682 0.711260 0.276489 -0.557716
O21   O     O_2   0.388291 0.991440 0.843482 -0.588360
O22   O     O_2   0.610532 0.023486 0.155260 -0.621155
O23   O     O_2   0.008402 0.388233 0.843503 -0.607621
O24   O     O_R   0.000000 0.454060 0.319230 -0.661870
O25   O     O_2   0.968982 0.609022 0.155058 -0.594201
O26   O     O_2   0.600468 0.055007 0.843858 -0.589982
O27   O     O_2   0.388875 0.977329 0.156014 -0.623752
O28   O     O_2   0.981826 0.643664 0.876933 -0.570710
O29   O     O_2   0.030628 0.390628 0.155407 -0.593812
O30   O     O_2   0.888191 0.496812 0.343698 -0.589159
O31   O     O_2   0.144244 0.508790 0.624761 -0.577048
O32   O     O_2   0.563402 0.098610 0.347970 -0.588912
O33   O     O_2   0.435643 0.097006 0.650611 -0.571453
O34   O     O_2   0.102237 0.550977 0.343649 -0.593029
O35   O     O_R   0.954060 0.500000 0.180770 -0.634122
O36   O     O_2   0.887840 0.497527 0.656348 -0.619116
O37   O     O_2   0.370712 0.936784 0.373940 -0.541944
O38   O     O_2   0.563688 0.901792 0.651817 -0.572968
O39   O     O_2   0.386516 0.988402 0.957234 -0.510999
O40   O     O_2   0.611183 0.018433 0.042528 -0.511115
O41   O     O_2   0.013750 0.387276 0.957620 -0.510565
O42   O     O_2   0.972690 0.609781 0.042653 -0.509062
O43   O     O_2   0.611858 0.007582 0.959325 -0.515704
O44   O     O_2   0.386828 0.977992 0.043190 -0.513387
O45   O     O_2   0.984683 0.611631 0.959047 -0.520746
O46   O     O_R   0.045940 0.500000 0.819230 -0.630081
O47   O     O_2   0.029515 0.389329 0.042891 -0.511936
O48   O     O_2   0.887206 0.494681 0.457442 -0.510018
O49   O     O_2   0.114383 0.501785 0.541936 -0.522026
O50   O     O_2   0.614590 0.026432 0.454961 -0.535228
O51   O     O_2   0.413662 0.071958 0.540659 -0.523713
O52   O     O_2   0.113980 0.498365 0.458464 -0.514487
O53   O     O_2   0.887105 0.494511 0.542525 -0.511403
O54   O     O_2   0.388626 0.969235 0.455870 -0.533457
O55   O     O_2   0.588677 0.923992 0.541970 -0.526379
O56   O     O_R   0.500000 0.954060 0.180770 -0.631039
O57   O     O_R   0.500000 0.045940 0.819230 -0.581563
O58   O     O_R   0.045940 0.500000 0.180770 -0.634459
O59   O     O_R   0.954060 0.500000 0.819230 -0.638491
O60   O     O_R   0.500000 0.045940 0.180770 -0.629779
O61   O     O_3   0.500000 0.000000 0.250000 -0.534704
O62   O     O_R   0.500000 0.954060 0.819230 -0.660104
O63   O     O_R   0.610280 0.935490 0.731900 -0.581774
O64   O     O_R   0.389720 0.064510 0.268100 -0.586302
O65   O     O_R   0.064510 0.610280 0.731900 -0.614911
O66   O     O_R   0.935490 0.389720 0.268100 -0.607297
O67   O     O_R   0.389720 0.064510 0.731900 -0.584534
O68   O     O_R   0.610280 0.935490 0.268100 -0.596303
O69   O     O_R   0.935490 0.389720 0.731900 -0.601681
O70   O     O_R   0.064510 0.610280 0.268100 -0.600215
O71   O     O_R   0.389720 0.935490 0.268100 -0.605597
O72   O     O_3   1.000000 0.500000 0.750000 -0.529643
O73   O     O_R   0.610280 0.064510 0.731900 -0.620254
O74   O     O_R   0.935490 0.610280 0.268100 -0.593718
O75   O     O_R   0.064510 0.389720 0.731900 -0.594856
O76   O     O_R   0.610280 0.064510 0.268100 -0.588430
O77   O     O_R   0.389720 0.935490 0.731900 -0.615284
O78   O     O_R   0.064510 0.389720 0.268100 -0.601251
O79   O     O_R   0.935490 0.610280 0.731900 -0.586257
O80   O     O_R   0.110280 0.435490 0.231900 -0.589011
O81   O     O_R   0.889720 0.564510 0.768100 -0.596432
O82   O     O_R   0.564510 0.110280 0.231900 -0.603682
O83   O     O_3   0.000000 0.500000 0.250000 -0.531804
O84   O     O_R   0.435490 0.889720 0.768100 -0.607051
O85   O     O_R   0.889720 0.564510 0.231900 -0.591635
O86   O     O_R   0.110280 0.435490 0.768100 -0.586719
O87   O     O_R   0.435490 0.889720 0.231900 -0.601146
O88   O     O_R   0.564510 0.110280 0.768100 -0.599718
O89   O     O_R   0.889720 0.435490 0.768100 -0.595580
O90   O     O_R   0.110280 0.564510 0.231900 -0.616993
O91   O     O_R   0.435490 0.110280 0.768100 -0.596388
O92   O     O_R   0.564510 0.889720 0.231900 -0.593553
O93   O     O_R   0.110280 0.564510 0.768100 -0.607513
O94   O     O_R   0.454060 0.000000 0.680770 -0.634074
O95   O     O_R   0.889720 0.435490 0.231900 -0.611999
O96   O     O_R   0.564510 0.889720 0.768100 -0.604238
O97   O     O_R   0.435490 0.110280 0.231900 -0.593010
O98   O     O_3   0.104694 0.816047 0.743492 -0.555086
O99   O     O_3   0.891852 0.188135 0.271907 -0.582410
O100  O     O_3   0.203047 0.124056 0.700689 -0.564960
O101  O     O_3   0.786617 0.865571 0.309319 -0.561271
O102  O     O_3   0.895378 0.183790 0.745324 -0.554630
O103  O     O_3   0.107246 0.812675 0.269409 -0.584645
O104  O     O_3   0.796031 0.874733 0.699627 -0.565443
O105  O     O_R   0.545940 0.000000 0.319230 -0.619792
O106  O     O_3   0.214449 0.135734 0.310291 -0.558775
O107  O     O_3   0.876588 0.797499 0.298765 -0.562446
O108  O     O_3   0.135126 0.214067 0.690079 -0.561156
O109  O     O_3   0.815725 0.105338 0.259356 -0.553390
O110  O     O_3   0.186988 0.892803 0.730993 -0.581906
O111  O     O_3   0.124269 0.203538 0.299839 -0.565183
O112  O     O_3   0.863788 0.784576 0.688999 -0.560552
O113  O     O_3   0.183886 0.895025 0.256927 -0.551029
O114  O     O_3   0.813449 0.106666 0.732829 -0.581640
O115  O     O_3   0.604915 0.315770 0.241339 -0.553621
O116  O     O_R   0.000000 0.454060 0.680770 -0.634166
O117  O     O_3   0.392604 0.687432 0.769453 -0.583346
O118  O     O_3   0.703165 0.624141 0.200532 -0.565347
O119  O     O_3   0.287630 0.366551 0.808468 -0.559792
O120  O     O_3   0.395197 0.684034 0.243199 -0.553225
O121  O     O_3   0.606687 0.313202 0.767257 -0.583736
O122  O     O_3   0.295698 0.374457 0.199163 -0.565610
O123  O     O_3   0.710771 0.631956 0.807038 -0.559887
O124  O     O_3   0.377440 0.298277 0.797872 -0.563085
O125  O     O_3   0.635289 0.714205 0.189974 -0.559772
O126  O     O_3   0.316002 0.605047 0.756869 -0.553797
O127  O     O_R   0.000000 0.545940 0.319230 -0.582336
O128  O     O_3   0.687600 0.392102 0.228864 -0.581995
O129  O     O_3   0.621096 0.700524 0.796475 -0.564897
O130  O     O_3   0.363338 0.284125 0.188775 -0.559821
O131  O     O_3   0.683742 0.395173 0.754743 -0.552735
O132  O     O_3   0.312885 0.607323 0.230690 -0.582211
O133  O     O_3   0.216989 0.577521 0.749683 -0.520438
O134  O     O_3   0.789242 0.411580 0.222577 -0.549470
O135  O     O_3   0.416011 0.213573 0.771995 -0.527668
O136  O     O_3   0.611902 0.812986 0.202143 -0.516323
O137  O     O_3   0.783052 0.422556 0.748959 -0.524543
O138  O     O_R   0.545940 0.000000 0.680770 -0.634769
O139  O     O_3   0.211439 0.587593 0.223692 -0.552135
O140  O     O_3   0.583235 0.786243 0.771449 -0.529165
O141  O     O_3   0.387153 0.185747 0.201600 -0.517230
O142  O     O_3   0.786835 0.584832 0.227108 -0.529564
O143  O     O_3   0.188381 0.389171 0.797083 -0.511195
O144  O     O_3   0.577321 0.216968 0.249077 -0.525316
O145  O     O_3   0.412083 0.788878 0.776657 -0.549705
O146  O     O_3   0.212818 0.414525 0.226256 -0.528319
O147  O     O_3   0.810900 0.610853 0.796678 -0.512774
O148  O     O_3   0.422630 0.783093 0.250016 -0.515227
Zn1   Zn    Zn3+2 0.500000 0.934510 0.776050 1.017519
Zn2   Zn    Zn3+2 0.000000 0.565490 0.723950 1.007932
Zn3   Zn    Zn3+2 0.565490 0.000000 0.276050 1.023191
Zn4   Zn    Zn3+2 0.434510 0.000000 0.723950 1.028573
Zn5   Zn    Zn3+2 0.000000 0.565490 0.276050 1.062657
Zn6   Zn    Zn3+2 0.000000 0.434510 0.723950 1.026474
Zn7   Zn    Zn3+2 0.434510 0.000000 0.276050 1.021411
Zn8   Zn    Zn3+2 0.565490 0.000000 0.723950 1.022725
Zn9   Zn    Zn3+2 0.500000 0.065490 0.223950 1.040754
Zn10  Zn    Zn3+2 0.065490 0.500000 0.776050 1.015688
Zn11  Zn    Zn3+2 0.934510 0.500000 0.223950 1.037949
Zn12  Zn    Zn3+2 0.500000 0.065490 0.776050 1.058018
Zn13  Zn    Zn3+2 0.500000 0.934510 0.223950 1.028476
Zn14  Zn    Zn3+2 0.934510 0.500000 0.776050 1.029228
Zn15  Zn    Zn3+2 0.065490 0.500000 0.223950 1.032915
Zn16  Zn    Zn3+2 0.000000 0.434510 0.276050 1.021440

loop_
_geom_bond_atom_site_label_1
_geom_bond_atom_site_label_2
_ccdc_geom_bond_type
C169  H31   S    
C146  C256  A    
C124  C271  A    
C34   C111  S    
C217  H129  S    
C78   C115  A    
C236  C247  A    
C232  C285  A    
C57   C247  A    
C38   O95   A    
C158  H219  S    
C29   O127  A    
C192  H100  S    
N9    N12   A    
C66   N12   A    
C261  C303  A    
O75   Zn6   S    
C51   O81   A    
C154  H209  S    
C86   C224  A    
C271  O111  S    
O73   Zn8   S    
C13   C260  A    
O1    Zn1   S    
C180  O7    S    
C276  C288  A    
C206  H118  S    
C8    C293  A    
O116  Zn6   S    
C32   O56   A    
C81   C117  A    
C142  H175  S    
C152  H204  S    
C228  H139  S    
C174  H48   S    
C131  H142  S    
C83   C119  A    
C150  H198  S    
C279  O119  S    
C163  H15   S    
C164  H16   S    
C18   C58   A    
O58   Zn15  S    
C80   C116  A    
C290  O130  S    
C193  H103  S    
C12   C298  A    
C183  H73   S    
C85   C121  A    
O93   Zn10  S    
C25   C60   A    
C190  C278  A    
C30   O35   A    
C180  H63   S    
C38   O66   A    
C185  O12   S    
O83   Zn11  S    
C185  H80   S    
C137  O111  S    
O82   Zn9   S    
C141  H171  S    
C5    C261  A    
C75   C240  A    
C175  H50   S    
C139  H165  S    
C16   C202  S    
C42   O70   A    
C51   C120  S    
C62   N16   A    
C47   C116  S    
C240  C292  A    
C130  O104  S    
C28   O13   A    
C35   C245  A    
C112  C299  A    
C180  H64   S    
C147  O121  S    
C155  H213  S    
C15   C54   A    
C1    C298  A    
O71   Zn7   S    
C167  H26   S    
C241  C294  A    
C173  H44   S    
C160  H4    S    
C73   C108  A    
C97   O14   S    
C227  O53   D    
C226  O52   D    
C136  H155  S    
C264  C274  A    
C99   O16   S    
C159  O133  S    
C288  O128  S    
C206  O33   D    
C147  H187  S    
C147  H186  S    
C102  C114  A    
C145  H185  S    
C21   C56   A    
C148  H191  S    
C125  O99   S    
C39   O67   A    
C233  C286  A    
C274  O113  S    
C134  H151  S    
C218  H130  S    
C22   C208  S    
C182  H71   S    
C214  O41   D    
C46   C246  A    
C161  O135  S    
C186  H82   S    
C259  O99   S    
C212  C280  A    
C187  H87   S    
C62   N5    A    
C194  O21   D    
C262  O101  S    
C269  O109  S    
C123  O98   S    
C151  H199  S    
C152  H205  S    
C188  O16   S    
C72   O135  S    
C101  C252  A    
C82   C118  A    
C64   N7    A    
C171  H37   S    
C184  H75   S    
C197  O25   D    
C32   C53   S    
C7    C283  A    
O60   Zn9   S    
C42   O90   A    
C49   O77   A    
C19   C205  S    
C45   O85   A    
C192  O19   S    
C267  O107  S    
C139  O113  S    
C51   O79   A    
C222  H134  S    
C112  C295  A    
O61   Zn13  S    
C156  H217  S    
C80   O143  S    
C146  C274  A    
C70   C105  A    
C22   C58   A    
C9    C195  S    
C144  H179  S    
C87   C117  A    
C83   C230  A    
C28   C58   S    
O72   Zn6   S    
C14   C199  S    
C230  C282  A    
C142  H173  S    
C140  H166  S    
C127  H24   S    
C150  H196  S    
C145  H183  S    
C61   C261  S    
C138  O112  S    
C125  H170  S    
C264  O103  S    
C104  C110  A    
C76   O140  S    
O86   Zn10  S    
C173  H43   S    
C238  C245  A    
C24   C244  A    
C159  H223  S    
C178  H59   S    
C145  O120  S    
C158  H220  S    
C281  O121  S    
C160  H5    S    
C62   C250  S    
C17   C302  A    
C100  C111  A    
C34   O96   A    
C71   C106  A    
C78   O142  S    
C12   C198  S    
C19   C304  A    
C164  O139  S    
C139  H163  S    
C291  O131  S    
C43   O87   A    
C224  C257  A    
C239  C297  A    
C213  H125  S    
O83   Zn16  S    
C89   C115  A    
C212  C256  A    
C177  H58   S    
C220  O48   D    
C209  H121  S    
C194  H105  S    
C232  C243  A    
O81   Zn14  S    
C69   N10   A    
C188  H89   S    
C30   O58   A    
C36   C114  S    
C272  C304  A    
C130  H101  S    
C11   C197  S    
C87   O4    S    
C189  H92   S    
C68   C248  A    
C33   C52   S    
C23   C59   A    
C132  H143  S    
C27   O105  A    
N6    N16   A    
C285  O124  S    
C176  H53   S    
C165  H19   S    
C130  H113  S    
C144  O119  S    
C10   C196  S    
C266  C271  A    
O88   Zn12  S    
C173  O147  S    
C102  O18   S    
C128  H46   S    
C234  C287  A    
C215  C297  S    
C39   O91   A    
C91   C116  A    
C202  H114  S    
C26   O94   A    
C182  H69   S    
C88   C113  A    
C162  H10   S    
C258  C294  A    
C136  O110  S    
C64   C272  S    
C87   C101  A    
C95   O11   S    
C282  C290  A    
C157  C257  A    
C172  H41   S    
C156  O131  S    
C166  H22   S    
O62   Zn1   S    
C160  O134  S    
C260  C268  A    
C236  C289  A    
C8    C52   A    
C138  H161  S    
C177  H56   S    
C182  H70   S    
C2    C259  A    
C204  O31   D    
C41   C109  S    
O84   Zn1   S    
N11   N14   A    
C152  H202  S    
C258  O98   S    
C11   C297  A    
C155  O130  S    
C152  O126  S    
C204  H116  S    
C287  O126  S    
C243  C251  A    
C244  C249  A    
C140  H168  S    
C13   C96   A    
C92   C146  A    
C81   O144  S    
C181  H67   S    
C63   N4    A    
C175  H51   S    
C34   O63   A    
C217  C299  S    
C149  H193  S    
C140  O114  S    
C262  C267  A    
C292  O132  S    
O59   Zn14  S    
C66   N1    A    
C65   N9    A    
C266  O106  S    
C19   C59   A    
C250  C302  A    
C127  H2    S    
C101  C269  A    
C5    C227  S    
C222  C304  S    
C69   C223  S    
C74   C238  A    
C84   O147  S    
C93   C157  A    
C153  H206  S    
C270  O110  S    
C65   C112  S    
C37   C105  S    
C167  H27   S    
C172  H39   S    
C2    C242  A    
C61   N6    A    
C181  O8    S    
N4    N7    A    
C126  H192  S    
C18   C303  A    
O1    Zn4   S    
C136  H154  S    
C235  C288  A    
C151  H201  S    
C137  H157  S    
C134  H152  S    
C211  C293  S    
C17   C56   A    
C104  O20   S    
C170  H33   S    
C167  O142  S    
C148  H190  S    
O61   Zn7   S    
C265  C273  A    
C2    C99   A    
C222  O50   D    
C263  C275  A    
C183  H72   S    
C273  O112  S    
C209  O37   D    
C89   O6    S    
C241  C253  A    
C123  H112  S    
C188  H91   S    
C88   C118  A    
C189  H94   S    
C9    C295  A    
C245  C257  A    
C10   C296  A    
C169  H30   S    
C99   C106  A    
C92   O8    S    
C164  H17   S    
C75   C110  A    
C77   O141  S    
C72   C232  A    
C83   O146  S    
C207  H119  S    
C73   C233  A    
O56   Zn13  S    
C208  H120  S    
C227  H138  S    
C129  H90   S    
C127  O101  S    
C181  H65   S    
C133  H146  S    
C40   O68   A    
O87   Zn13  S    
C210  H122  S    
C48   C117  S    
O105  Zn3   S    
C277  O117  S    
C32   O60   A    
C90   C251  A    
C154  H210  S    
C1    C293  A    
C242  C252  A    
C42   C110  S    
C36   O97   A    
C15   C200  S    
C93   O9    S    
C48   O76   A    
C246  C256  A    
C76   C111  A    
C82   O145  S    
C185  H81   S    
C41   O69   A    
C174  O148  S    
C135  C273  A    
C131  H141  S    
C31   C54   S    
C25   C210  S    
C208  O36   D    
C187  O15   S    
C43   O71   A    
C79   C89   A    
C275  O114  S    
C141  O115  S    
C179  C253  A    
C14   C53   A    
C181  H66   S    
C26   O138  A    
C133  O108  S    
C193  H102  S    
O72   Zn14  S    
C18   C204  S    
C220  H132  S    
C221  H133  S    
C76   C236  A    
C247  C255  A    
C126  H203  S    
C219  H131  S    
O72   Zn2   S    
C189  O17   S    
C195  O22   D    
C229  H140  S    
N1    N13   A    
C289  O129  S    
C175  H49   S    
O90   Zn15  S    
C149  H195  S    
C33   O62   A    
C37   O65   A    
O96   Zn1   S    
C276  O115  S    
O65   Zn2   S    
C44   O73   A    
C132  O107  S    
C277  C287  A    
C279  C285  A    
C142  O117  S    
C153  H208  S    
C68   C102  A    
C210  O38   D    
C35   C103  A    
O83   Zn5   S    
C143  H178  S    
C35   C263  A    
C134  H150  S    
C133  H149  S    
O85   Zn11  S    
O24   Zn16  S    
C143  O118  S    
C144  H182  S    
C199  O27   D    
C201  C251  A    
C6    C228  S    
C82   C179  A    
C86   C122  A    
C8    C194  S    
N2    N5    A    
C4    C226  S    
C20   C60   A    
C183  O10   S    
C231  C255  A    
C43   C121  S    
C68   C266  A    
C259  C269  A    
C158  O132  S    
C186  H83   S    
C40   C108  S    
C175  O3    S    
C165  O140  S    
C192  H99   S    
C150  O124  S    
C77   C237  A    
C229  O55   D    
C40   O92   A    
C184  H76   S    
C12   C52   A    
O63   Zn8   S    
C37   O93   A    
C27   O2    A    
C168  C252  A    
C216  C298  S    
C24   C97   A    
O70   Zn5   S    
C265  O104  S    
C113  C253  A    
C93   C122  A    
C124  C254  A    
C218  C300  S    
C128  H57   S    
C144  H180  S    
C170  O144  S    
O46   Zn10  S    
C220  C302  S    
C46   C104  A    
C240  C246  A    
O79   Zn2   S    
C94   O10   S    
C174  H47   S    
C286  O125  S    
C90   C268  A    
C278  O118  S    
C196  O23   D    
C177  O5    S    
C44   C122  S    
C128  O102  S    
C202  O29   D    
C215  H127  S    
C36   O64   A    
C233  C244  A    
C224  C281  A    
C216  H128  S    
C126  O100  S    
C84   C120  A    
C198  H109  S    
C223  C296  A    
C161  H8    S    
C50   O80   A    
C183  H74   S    
C156  H218  S    
C3    C20   A    
C239  C301  A    
C149  H194  S    
C178  H60   S    
C174  H45   S    
C158  H221  S    
C162  O136  S    
O77   Zn4   S    
C191  O18   S    
C96   C107  A    
C15   C300  A    
C125  H181  S    
C141  H172  S    
O78   Zn16  S    
C63   N8    A    
C70   O133  S    
C9    C53   A    
C77   C114  A    
O89   Zn14  S    
C11   C55   A    
C45   O74   A    
C126  H214  S    
C65   N13   A    
C7    C229  S    
C191  H95   S    
C200  O28   D    
C67   N15   A    
C280  O120  S    
O76   Zn3   S    
C156  H216  S    
C205  O32   D    
C191  H97   S    
C178  H61   S    
O74   Zn5   S    
C230  C254  A    
C178  O6    S    
C157  C275  A    
C284  O123  S    
C61   N2    A    
C268  O108  S    
C160  H3    S    
C176  O4    S    
C29   C56   S    
C95   C120  A    
C214  H126  S    
C30   C55   S    
C132  H144  S    
C215  O42   D    
C7    C25   A    
C103  C109  A    
C176  H54   S    
C147  H188  S    
C153  O128  S    
N3    N8    A    
C184  H77   S    
C201  C279  A    
O61   Zn3   S    
C21   C207  S    
C90   C91   A    
C127  H13   S    
C200  H111  S    
C85   O148  S    
C81   C168  A    
C221  C303  S    
O83   Zn15  S    
C190  C249  A    
C149  O123  S    
C162  H11   S    
C258  C270  A    
C282  O122  S    
C205  H117  S    
C263  O102  S    
C203  H115  S    
C24   C262  A    
C151  H200  S    
C138  H160  S    
C166  H23   S    
C171  O145  S    
C135  C255  A    
O91   Zn12  S    
C167  H28   S    
C171  H38   S    
C125  H159  S    
C211  H123  S    
C177  H55   S    
C4    C21   A    
C150  H197  S    
C188  H88   S    
C154  O129  S    
O94   Zn4   S    
C78   C190  A    
C20   C206  S    
C74   C109  A    
C63   C283  S    
O80   Zn15  S    
C186  O14   S    
C39   C107  S    
C98   O15   S    
C280  C292  A    
C98   C105  A    
O1    Zn12  S    
C100  O17   S    
C151  O125  S    
C213  O40   D    
C145  H184  S    
C163  H14   S    
C103  O19   S    
C237  C290  A    
C221  O49   D    
C132  H145  S    
C248  C254  A    
C123  H148  S    
C197  H108  S    
C44   O88   A    
C46   C264  A    
C218  O45   D    
C50   O78   A    
C17   C203  S    
C70   C234  A    
C67   C239  S    
C159  H224  S    
C84   C231  A    
O68   Zn3   S    
C74   O137  S    
O13   Zn2   S    
C172  H40   S    
C97   C108  A    
O57   Zn12  S    
C47   O86   A    
C5    C22   A    
C80   C201  A    
C71   O134  S    
O97   Zn9   S    
O92   Zn13  S    
C79   C267  A    
C195  H106  S    
C86   O3    S    
C137  H156  S    
C165  H21   S    
C139  H164  S    
O1    Zn8   S    
C172  O146  S    
C225  O51   D    
C3    C225  S    
C170  H34   S    
C3    C283  A    
C57   C265  A    
N10   N15   A    
C128  H35   S    
C155  H212  S    
C79   C249  A    
O64   Zn7   S    
C98   C294  A    
C148  O122  S    
C193  H104  S    
C73   O136  S    
C163  O137  S    
C33   O57   A    
C91   O7    S    
C187  H85   S    
O35   Zn11  S    
C216  O43   D    
C169  H29   S    
C164  H18   S    
C28   O116  A    
C6    C272  A    
C50   C119  S    
C165  H20   S    
C231  C284  A    
C217  O44   D    
C113  C270  A    
C225  H136  S    
C199  H110  S    
C168  C276  A    
C16   C301  A    
C161  H7    S    
C23   C209  S    
C192  H98   S    
C57   C100  A    
C166  H25   S    
O95   Zn11  S    
C154  H211  S    
C237  C248  A    
C14   C299  A    
C193  O20   S    
C38   C106  S    
C162  H9    S    
C41   O89   A    
C235  C242  A    
C129  H68   S    
C94   C119  A    
C45   C115  S    
C187  H86   S    
C49   C118  S    
C72   C107  A    
O72   Zn10  S    
C49   O84   A    
C95   C135  A    
C1    C66   S    
C169  O143  S    
O66   Zn16  S    
C260  O100  S    
C170  H32   S    
C171  H36   S    
C228  O54   D    
O67   Zn4   S    
C207  O34   D    
C133  H147  S    
C281  C291  A    
C71   C235  A    
C31   O59   A    
C211  O39   D    
O69   Zn6   S    
C85   C212  A    
C161  H6    S    
C219  C301  S    
C31   O46   A    
C48   O82   A    
C88   O5    S    
C96   O12   S    
C142  H174  S    
C185  H78   S    
C166  O141  S    
C138  H162  S    
C140  H167  S    
C141  H169  S    
C131  H135  S    
C278  C286  A    
C130  H124  S    
C163  H12   S    
C284  C289  A    
C219  O47   D    
C238  C291  A    
C29   O24   A    
O61   Zn9   S    
C223  C300  A    
C47   O75   A    
C180  H62   S    
C64   N3    A    
C123  H1    S    
C196  H107  S    
C155  H215  S    
O127  Zn5   S    
C159  H222  S    
C69   N14   A    
C153  H207  S    
C16   C55   A    
C4    C250  A    
C184  O11   S    
C131  O106  S    
C27   C59   S    
C92   C121  A    
C134  O109  S    
C75   O139  S    
C173  H42   S    
C182  O9    S    
C13   C243  A    
C26   C60   S    
C143  H177  S    
C176  H52   S    
C6    C23   A    
C136  H153  S    
C129  O103  S    
C226  H137  S    
C137  H158  S    
O2    Zn7   S    
C10   C54   A    
C191  H96   S    
C198  O26   D    
C234  C241  A    
C148  H189  S    
C213  C295  S    
C203  O30   D    
C214  C296  S    
C179  C277  A    
C67   N11   A    
O138  Zn8   S    
C143  H176  S    
C189  H93   S    
C129  H79   S    
C186  H84   S    
C94   C124  A    
