data_mof_unit_38707.cif
_audit_creation_date              2012-12-11T15:52:38-0500
_audit_creation_method            fapswitch 2.2
_symmetry_space_group_name_H-M    P1
_symmetry_Int_Tables_number       1
_space_group_crystal_system       triclinic
_cell_length_a                    6.925922
_cell_length_b                    14.537894
_cell_length_c                    16.043479
_cell_angle_alpha                 90.316971
_cell_angle_beta                  90.063076
_cell_angle_gamma                 89.908208
_cell_volume                      1615.36318991

loop_
_atom_site_label
_atom_site_type_symbol
_atom_type_description
_atom_site_fract_x
_atom_site_fract_y
_atom_site_fract_z
_atom_type_partial_charge
O1    O     O_R   0.494400 0.415640 0.412830 -0.543800
O2    O     O_R   0.823920 0.405510 0.586560 -0.544168
O3    O     O_R   0.994250 0.584360 0.587170 -0.543384
C1    C     C_R   0.654959 0.382739 0.615022 0.667301
O4    O     O_R   0.824110 0.404610 0.413450 -0.546228
O5    O     O_R   0.994440 0.583460 0.412820 -0.512023
C2    C     C_R   0.655038 0.381934 0.384544 0.687547
O6    O     O_R   0.494210 0.416540 0.587180 -0.542100
O7    O     O_3   0.660810 0.558680 0.500000 -0.358181
V1    V     V_3+5 0.935650 0.489110 0.500000 1.421095
O8    O     O_R   0.324150 0.594490 0.413440 -0.542211
C3    C     C_R   0.154693 0.615475 0.383377 0.702982
O9    O     O_R   0.323970 0.595390 0.586550 -0.549782
C4    C     C_R   0.155014 0.616239 0.616758 0.695843
V2    V     V_3+5 0.435660 0.510890 0.500000 1.413090
O10   O     O_3   0.160630 0.441320 0.500000 -0.375087
C5    C     C_3   0.949260 0.675323 0.737236 -0.292784
H1    H     H_    0.826815 0.694237 0.695657 0.086792
C6    C     C_3   0.945681 0.738488 0.815790 0.341978
H2    H     H_    0.809902 0.779959 0.812659 0.013511
H3    H     H_    0.040182 0.795733 0.607692 0.161596
H4    H     H_    0.987141 0.892953 0.718903 0.149597
C7    C     C_3   0.153496 0.784674 0.655851 -0.440670
C8    C     C_3   0.313352 0.670436 0.751747 0.350665
C9    C     C_3   0.143559 0.684745 0.688865 0.015053
H5    H     H_    0.451555 0.677447 0.716282 0.011194
C10   C     C_3   0.121848 0.805809 0.813930 0.012297
C11   C     C_3   0.125056 0.854950 0.728136 -0.426974
C12   C     C_3   0.309433 0.747013 0.820107 -0.308215
H6    H     H_    0.437824 0.792059 0.812220 0.088234
H7    H     H_    0.295644 0.796532 0.625515 0.153393
H8    H     H_    0.243676 0.906466 0.726594 0.161411
C13   C     C_R   0.959185 0.759891 0.202975 -0.232323
H9    H     H_    0.823805 0.769139 0.170129 0.138121
C14   C     C_R   0.968316 0.694335 0.266852 0.427908
C15   C     C_R   0.141985 0.681732 0.312630 -0.156158
C16   C     C_R   0.305154 0.733069 0.289342 -0.214320
H10   H     H_    0.440713 0.724895 0.322160 0.188414
C17   C     C_R   0.295830 0.796379 0.223959 -0.157732
C18   C     C_R   0.122119 0.811344 0.180537 -0.106458
C19   C     C_R   0.812325 0.281699 0.722576 -0.158234
H11   H     H_    0.952995 0.306796 0.704177 0.119494
C20   C     C_R   0.801225 0.217303 0.786973 -0.157845
H12   H     H_    0.933974 0.194550 0.816063 0.120695
C21   C     C_R   0.621530 0.183190 0.813681 -0.045541
C22   C     C_R   0.453295 0.215086 0.774040 -0.168048
H13   H     H_    0.312563 0.190297 0.792674 0.117312
C23   C     C_R   0.464460 0.279224 0.709429 -0.155326
H14   H     H_    0.331713 0.302127 0.680438 0.123911
C24   C     C_R   0.644073 0.313598 0.682957 -0.041772
C25   C     C_R   0.812361 0.275016 0.280595 -0.165811
H15   H     H_    0.953284 0.293895 0.304360 0.113120
C26   C     C_R   0.801276 0.211272 0.214958 -0.149289
H16   H     H_    0.934241 0.182795 0.190418 0.119278
C27   C     C_R   0.621446 0.184482 0.181727 -0.048130
C28   C     C_R   0.453076 0.223656 0.215775 -0.157332
H17   H     H_    0.312162 0.204974 0.191875 0.116591
C29   C     C_R   0.464172 0.287377 0.281436 -0.155852
H18   H     H_    0.331265 0.316050 0.305850 0.115847
C30   C     C_R   0.643942 0.313702 0.315004 -0.047915
O11   O     O_R   0.771300 0.080930 0.910090 -0.539626
O12   O     O_R   0.441270 0.092800 0.083770 -0.542346
O13   O     O_R   0.271080 0.913920 0.084380 -0.539754
C31   C     C_R   0.610307 0.115476 0.112761 0.691094
O14   O     O_R   0.441580 0.091910 0.910670 -0.542333
O15   O     O_R   0.271390 0.913020 0.910040 -0.539083
C32   C     C_R   0.610542 0.114347 0.881906 0.688166
O16   O     O_R   0.770990 0.081830 0.084440 -0.538895
O17   O     O_3   0.604750 0.938760 0.997250 -0.377451
V3    V     V_3+5 0.329850 0.008280 0.997210 1.390197
O18   O     O_R   0.941680 0.901940 0.910610 -0.556291
C33   C     C_R   0.111011 0.877375 0.883511 0.677937
O19   O     O_R   0.941370 0.902830 0.083720 -0.549799
C34   C     C_R   0.110698 0.880333 0.112414 0.710806
V4    V     V_3+5 0.829860 0.986420 0.997150 1.373758
O20   O     O_3   0.104830 0.056030 0.997180 -0.366700
O21   O     O_3   0.803060 0.645168 0.284990 -0.552960
C35   C     C_3   0.798725 0.564220 0.235631 0.101956
H19   H     H_    0.869561 0.507241 0.269892 0.126615
H20   H     H_    0.873200 0.571302 0.174552 0.096011
C36   C     C_3   0.589873 0.538167 0.218086 -0.732028
H21   H     H_    0.517435 0.593642 0.182458 0.217226
H22   H     H_    0.584742 0.473454 0.181056 0.182435
H23   H     H_    0.510988 0.527918 0.277344 0.229968
H24   H     H_    0.424674 0.834666 0.208288 0.137133
H25   H     H_    0.925582 0.602360 0.755215 0.173884
O22   O     O_3   0.957900 0.681588 0.887442 -0.544423
C37   C     C_3   0.805255 0.697474 0.943970 0.094257
H26   H     H_    0.663188 0.704026 0.912476 0.090607
H27   H     H_    0.833739 0.760378 0.981254 0.151538
C38   C     C_3   0.793856 0.616837 0.003288 -0.727965
H28   H     H_    0.934188 0.608691 0.035935 0.220955
H29   H     H_    0.677921 0.629389 0.049648 0.177541
H30   H     H_    0.761372 0.552624 0.968259 0.228115
O23   O     O_3   0.293722 0.582987 0.789867 -0.542040
C39   C     C_3   0.474199 0.538645 0.797520 0.085627
H31   H     H_    0.586289 0.585488 0.823092 0.114310
H32   H     H_    0.521907 0.512920 0.735594 0.118709
C40   C     C_3   0.454148 0.457765 0.856499 -0.680671
H33   H     H_    0.339174 0.410624 0.834007 0.226632
H34   H     H_    0.592845 0.419523 0.859915 0.182652
H35   H     H_    0.415621 0.482946 0.919830 0.218239
H36   H     H_    0.321209 0.716143 0.883209 0.175418

loop_
_geom_bond_atom_site_label_1
_geom_bond_atom_site_label_2
_ccdc_geom_bond_type
O22   C37   S    
V4    O20   S    
C10   C12   S    
O19   V4    S    
C19   H11   S    
C2    C30   S    
O23   C39   S    
C1    O6    A    
C36   H21   S    
O21   C35   S    
O11   V4    S    
O16   V4    S    
O12   V3    S    
C12   H6    S    
C31   O16   A    
C15   C16   A    
C8    H5    S    
C6    O22   S    
O5    C3    A    
C35   H20   S    
C29   C30   A    
O14   V3    S    
C39   C40   S    
C28   H17   S    
C12   H36   S    
O19   C34   A    
C8    C12   S    
O12   C31   A    
C13   C14   A    
O8    V2    S    
O15   C33   A    
C14   C15   A    
C28   C29   A    
O14   C32   A    
C39   H32   S    
C21   C32   S    
C37   C38   S    
O1    V2    S    
C3    C15   S    
C6    C10   S    
O7    V1    S    
C23   C24   A    
H4    C11   S    
O9    C4    A    
C39   H31   S    
C19   C20   A    
C36   H22   S    
C13   H9    S    
C26   C27   A    
C22   C23   A    
C13   C18   A    
C25   H15   S    
C11   H8    S    
C8    C9    S    
C8    O23   S    
C17   C18   A    
O4    C2    A    
C35   H19   S    
C29   H18   S    
C26   H16   S    
C14   O21   S    
C5    H25   S    
C1    C24   S    
C25   C26   A    
C7    H7    S    
O2    C1    A    
C20   H12   S    
C16   H10   S    
C38   H29   S    
O11   C32   A    
C40   H33   S    
O13   V3    S    
C27   C31   S    
C27   C28   A    
C5    H1    S    
C7    C11   S    
C20   C21   A    
O3    C4    A    
C23   H14   S    
C40   H34   S    
C37   H27   S    
O6    V2    S    
O9    V2    S    
V3    O20   S    
C17   H24   S    
O2    V1    S    
C19   C24   A    
C38   H28   S    
C36   H23   S    
C22   H13   S    
O1    C2    A    
O5    V1    S    
O8    C3    A    
O13   C34   A    
C5    C9    S    
C6    H2    S    
H3    C7    S    
O7    V2    S    
O18   C33   A    
C16   C17   A    
O3    V1    S    
V1    O10   S    
C38   H30   S    
O18   V4    S    
C35   C36   S    
O15   V3    S    
C5    C6    S    
C18   C34   S    
O17   V4    S    
C7    C9    S    
C4    C9    S    
O17   V3    S    
C21   C22   A    
O4    V1    S    
C40   H35   S    
C37   H26   S    
C10   C11   S    
C25   C30   A    
C10   C33   S    
V2    O10   S    
