data_mof_unit_63557.cif
_audit_creation_date              2012-10-26T18:44:23-0400
_audit_creation_method            fapswitch 2.2
_symmetry_space_group_name_H-M    P1
_symmetry_Int_Tables_number       1
_space_group_crystal_system       triclinic
_cell_length_a                    12.99671
_cell_length_b                    16.017998
_cell_length_c                    14.783943
_cell_angle_alpha                 90.021606
_cell_angle_beta                  96.299288
_cell_angle_gamma                 90.040862
_cell_volume                      3059.15658826

loop_
_atom_site_label
_atom_site_type_symbol
_atom_type_description
_atom_site_fract_x
_atom_site_fract_y
_atom_site_fract_z
_atom_type_partial_charge
Br1   Br    Br    0.786522 0.358944 0.658103 -0.400048
Br2   Br    Br    0.213465 0.641037 0.341877 -0.400010
Br3   Br    Br    0.722182 0.491020 0.907788 -0.274965
Br4   Br    Br    0.277817 0.508973 0.092212 -0.274966
C1    C     C_R   0.500091 0.340969 0.499996 0.560047
C2    C     C_R   0.407067 0.503696 0.039962 0.208255
C3    C     C_R   0.498677 0.499964 0.902631 -0.081788
C4    C     C_R   0.501323 0.500035 0.097368 -0.081787
C5    C     C_R   0.404730 0.503651 0.943846 0.242656
C6    C     C_R   0.595270 0.496348 0.056154 0.242657
C7    C     C_1   0.499469 0.499985 0.802478 0.202728
C8    C     C_1   0.500531 0.500014 0.197522 0.202727
C9    C     C_R   0.300386 0.502797 0.483000 0.608546
C10   C     C_R   0.699614 0.497201 0.517000 0.608563
C11   C     C_R   0.812033 0.491332 0.527189 0.007437
C12   C     C_R   0.499909 0.659031 0.500004 0.560050
C13   C     C_R   0.187967 0.508662 0.472812 0.007411
C14   C     C_R   0.027715 0.570765 0.404340 0.265645
C15   C     C_R   0.972281 0.429219 0.595656 0.265649
C16   C     C_R   0.136242 0.565191 0.410988 0.094876
C17   C     C_R   0.863753 0.434794 0.589004 0.094858
C18   C     C_R   0.133102 0.457337 0.527073 0.227545
C19   C     C_R   0.866900 0.542664 0.472938 0.227569
C20   C     C_R   0.026377 0.470876 0.530696 -0.026220
C21   C     C_R   0.973622 0.529118 0.469309 -0.026238
C22   C     C_R   0.539783 0.954428 0.577978 0.285929
C23   C     C_R   0.458532 0.957501 0.419900 0.208862
C24   C     C_R   0.460219 0.045572 0.422021 0.285933
C25   C     C_R   0.498727 0.912616 0.498527 -0.003739
C26   C     C_R   0.501276 0.087384 0.501471 -0.003742
C27   C     C_R   0.541473 0.042499 0.580098 0.208860
C28   C     C_1   0.499055 0.822853 0.499259 0.039717
C29   C     C_1   0.500947 0.177147 0.500740 0.039711
C30   C     C_1   0.500524 0.252061 0.500175 0.048645
C31   C     C_1   0.499477 0.747938 0.499825 0.048646
C32   C     C_R   0.592933 0.496302 0.960038 0.208254
Cu1   Cu    Cu3+1 0.500030 0.500000 0.589220 1.127783
Cu2   Cu    Cu3+1 0.499970 0.500000 0.410780 1.127777
H1    H     H_    0.856071 0.658155 0.438206 0.370767
H2    H     H_    0.316122 0.506626 0.827591 0.344436
H3    H     H_    0.143950 0.341852 0.561797 0.370760
H4    H     H_    0.015353 0.622175 0.283749 0.387969
H5    H     H_    0.984630 0.377771 0.716220 0.387986
H6    H     H_    0.580642 0.142977 0.652724 0.353682
H7    H     H_    0.419378 0.857025 0.347264 0.353693
H8    H     H_    0.604210 0.943292 0.703858 0.396968
H9    H     H_    0.395782 0.056708 0.296143 0.396966
H10   H     H_    0.683878 0.493372 0.172409 0.344432
N1    N     N_1   0.500030 0.499980 0.276710 -0.159928
N2    N     N_1   0.499970 0.500020 0.723290 -0.159925
O1    O     O_R   0.500050 0.380310 0.575330 -0.475247
O2    O     O_3   0.185920 0.393179 0.573950 -0.615752
O3    O     O_3   0.972973 0.615423 0.334878 -0.615384
O4    O     O_3   0.027021 0.384551 0.665111 -0.615400
O5    O     O_3   0.582654 0.081637 0.659610 -0.664021
O6    O     O_3   0.417360 0.918362 0.340385 -0.664044
O7    O     O_3   0.577776 0.906786 0.652475 -0.643557
O8    O     O_3   0.422225 0.093213 0.347524 -0.643555
O9    O     O_3   0.691350 0.492739 0.106586 -0.595765
O10   O     O_3   0.308650 0.507260 0.893414 -0.595760
O11   O     O_R   0.499950 0.619690 0.424670 -0.475249
O12   O     O_R   0.500000 0.380310 0.424640 -0.495419
O13   O     O_R   0.500000 0.619690 0.575360 -0.495418
O14   O     O_R   0.349020 0.499990 0.563110 -0.464253
O15   O     O_R   0.650980 0.500010 0.436890 -0.464259
O16   O     O_R   0.348970 0.499990 0.412410 -0.466390
O17   O     O_R   0.651030 0.500010 0.587590 -0.466387
O18   O     O_3   0.814087 0.606830 0.426074 -0.615774

loop_
_geom_bond_atom_site_label_1
_geom_bond_atom_site_label_2
_ccdc_geom_bond_type
C19   O18   S    
C6    C32   A    
C10   O17   A    
Br1   C17   S    
Cu1   Cu2   S    
H2    O10   S    
C12   O13   A    
C24   O8    S    
C23   C25   A    
H1    O18   S    
H3    O2    S    
C13   C18   A    
C14   O3    S    
Cu2   O15   S    
C9    C13   S    
C4    C8    S    
Cu2   O11   S    
C1    C30   S    
C5    O10   S    
C2    C5    A    
C11   C19   A    
C8    N1    T    
C22   C27   A    
C12   C31   S    
Cu2   N1    S    
C23   O6    S    
H9    O8    S    
C3    C7    S    
Cu1   N2    S    
C9    O14   A    
H6    O5    S    
C14   C21   A    
Br3   C32   S    
H10   O9    S    
Cu1   O17   S    
C15   O4    S    
C24   C26   A    
C15   C17   A    
C10   O15   A    
C29   C30   T    
C1    O12   A    
C6    O9    S    
C25   C28   S    
C14   C16   A    
C9    O16   A    
C19   C21   A    
H4    O3    S    
C26   C27   A    
Cu1   O1    S    
C22   O7    S    
C18   C20   A    
C12   O11   A    
C18   O2    S    
Br2   C16   S    
C28   C31   T    
C11   C17   A    
C13   C16   A    
C20   C21   A    
C22   C25   A    
Br4   C2    S    
C3    C32   A    
C23   C24   A    
C3    C5    A    
C7    N2    T    
C10   C11   S    
C1    O1    A    
C2    C4    A    
H5    O4    S    
C26   C29   S    
C27   O5    S    
Cu1   O13   S    
C15   C20   A    
H8    O7    S    
C4    C6    A    
Cu2   O16   S    
H7    O6    S    
Cu1   O14   S    
Cu2   O12   S    
