data_mof_unit_10823.cif
_audit_creation_date              2012-10-26T19:56:45-0400
_audit_creation_method            fapswitch 2.2
_symmetry_space_group_name_H-M    P1
_symmetry_Int_Tables_number       1
_space_group_crystal_system       triclinic
_cell_length_a                    15.835225
_cell_length_b                    15.389069
_cell_length_c                    9.883039
_cell_angle_alpha                 90.072956
_cell_angle_beta                  59.709282
_cell_angle_gamma                 89.997237
_cell_volume                      2079.58901759

loop_
_atom_site_label
_atom_site_type_symbol
_atom_type_description
_atom_site_fract_x
_atom_site_fract_y
_atom_site_fract_z
_atom_type_partial_charge
C1    C     C_R   0.372133 0.118422 0.561868 0.550289
C2    C     C_2   0.489541 0.995094 0.083885 0.099717
C3    C     C_2   0.010916 0.496842 0.915446 0.106759
C4    C     C_2   0.989095 0.496907 0.084520 0.106424
C5    C     C_2   0.299770 0.814371 0.596456 -0.130681
C6    C     C_2   0.700008 0.185841 0.403640 -0.133386
C7    C     C_2   0.700385 0.814341 0.403305 -0.132026
C8    C     C_2   0.299839 0.185872 0.596599 -0.134230
C9    C     C_2   0.799728 0.314405 0.596505 -0.132343
C10   C     C_2   0.200116 0.685743 0.403574 -0.132049
C11   C     C_2   0.200299 0.314264 0.403357 -0.132940
C12   C     C_R   0.627924 0.881634 0.438107 0.550125
C13   C     C_2   0.799857 0.685884 0.596565 -0.133059
C14   C     C_2   0.285797 0.783871 0.483041 -0.163089
C15   C     C_2   0.713851 0.216460 0.517119 -0.162454
C16   C     C_2   0.714338 0.784006 0.516784 -0.160993
C17   C     C_2   0.286013 0.216325 0.483058 -0.160404
C18   C     C_2   0.785615 0.284023 0.483161 -0.162862
C19   C     C_2   0.213967 0.716365 0.517039 -0.160365
C20   C     C_2   0.214271 0.283955 0.516837 -0.162400
C21   C     C_2   0.786148 0.716434 0.482965 -0.159828
C22   C     C_3   0.718192 0.981642 0.001986 0.054684
C23   C     C_R   0.627812 0.118413 0.438250 0.552331
C24   C     C_3   0.809344 0.995259 0.842741 -0.414687
C25   C     C_3   0.281836 0.018571 0.997931 0.054824
C26   C     C_3   0.190693 0.005224 0.157291 -0.413901
C27   C     C_3   0.217652 0.477316 0.004143 0.052327
C28   C     C_3   0.309383 0.486330 0.844117 -0.413914
C29   C     C_3   0.782279 0.477921 0.995887 0.051919
C30   C     C_3   0.690544 0.487450 0.155841 -0.413942
C31   C     C_R   0.372131 0.881643 0.561775 0.552172
C32   C     C_R   0.872141 0.618428 0.561859 0.552348
C33   C     C_R   0.127903 0.381614 0.438118 0.551036
C34   C     C_R   0.127838 0.618388 0.438235 0.551591
C35   C     C_R   0.872117 0.381654 0.561787 0.550257
C36   C     C_2   0.510461 0.004867 0.916115 0.099197
Cu1   Cu    Cu3+1 0.522650 0.000000 0.349410 0.963516
Cu2   Cu    Cu3+1 0.477350 0.000000 0.650590 0.964036
Cu3   Cu    Cu3+1 0.022650 0.500000 0.349410 0.963866
Cu4   Cu    Cu3+1 0.977350 0.500000 0.650590 0.963534
H1    H     H_    0.672082 0.191632 0.636177 0.161547
H2    H     H_    0.257766 0.789486 0.715369 0.115675
H3    H     H_    0.257808 0.210920 0.715535 0.088548
H4    H     H_    0.742437 0.789313 0.284361 0.105388
H5    H     H_    0.242166 0.710580 0.284634 0.114004
H6    H     H_    0.757839 0.289432 0.715374 0.101944
H7    H     H_    0.757719 0.710850 0.715541 0.102124
H8    H     H_    0.242274 0.289162 0.284453 0.089920
H9    H     H_    0.415266 0.981302 0.175751 0.137017
H10   H     H_    0.584748 0.018607 0.824239 0.136807
H11   H     H_    0.913924 0.487813 0.177348 0.127166
H12   H     H_    0.327591 0.808677 0.363970 0.162382
H13   H     H_    0.086080 0.487595 0.822593 0.127147
H14   H     H_    0.699359 0.911147 0.013049 0.137092
H15   H     H_    0.735671 0.000740 0.093348 0.177061
H16   H     H_    0.831567 0.064653 0.827799 0.157745
H17   H     H_    0.870157 0.954800 0.833361 0.101787
H18   H     H_    0.794565 0.976216 0.748159 0.151332
H19   H     H_    0.264271 0.999367 0.906710 0.177839
H20   H     H_    0.300820 0.089040 0.986526 0.131470
H21   H     H_    0.205562 0.024385 0.251727 0.150093
H22   H     H_    0.129951 0.045736 0.166535 0.096375
H23   H     H_    0.327825 0.191329 0.363988 0.157071
H24   H     H_    0.168317 0.935866 0.172602 0.164033
H25   H     H_    0.196527 0.407305 0.021071 0.131013
H26   H     H_    0.235568 0.498833 0.093892 0.179083
H27   H     H_    0.333891 0.555131 0.823085 0.164599
H28   H     H_    0.368755 0.445374 0.838739 0.097182
H29   H     H_    0.294200 0.464917 0.751058 0.149271
H30   H     H_    0.803161 0.407824 0.979133 0.135282
H31   H     H_    0.764482 0.499359 0.906039 0.178485
H32   H     H_    0.666338 0.556370 0.176747 0.160991
H33   H     H_    0.631015 0.446751 0.161205 0.100531
H34   H     H_    0.672498 0.808978 0.635868 0.157880
H35   H     H_    0.705580 0.466048 0.248988 0.149931
H36   H     H_    0.172123 0.691610 0.636135 0.170105
H37   H     H_    0.827279 0.308942 0.364152 0.149554
H38   H     H_    0.828081 0.691543 0.363838 0.170220
H39   H     H_    0.172519 0.309011 0.635876 0.149644
H40   H     H_    0.741994 0.210742 0.284734 0.099229
N1    N     N_2   0.443290 0.000000 0.876860 -0.077333
N2    N     N_2   0.556710 0.000000 0.123140 -0.077355
N3    N     N_2   0.943290 0.500000 0.876860 -0.077264
N4    N     N_2   0.056710 0.500000 0.123140 -0.077198
O1    O     O_R   0.422430 0.089640 0.419570 -0.499393
O2    O     O_R   0.615830 0.910350 0.326090 -0.525263
O3    O     O_R   0.615830 0.089650 0.326090 -0.478770
O4    O     O_R   0.384170 0.910350 0.673910 -0.476478
O5    O     O_R   0.884170 0.589650 0.673910 -0.480697
O6    O     O_R   0.115830 0.410350 0.326090 -0.528170
O7    O     O_R   0.115830 0.589650 0.326090 -0.479027
O8    O     O_R   0.884170 0.410350 0.673910 -0.526953
O9    O     O_3   0.642416 0.034067 0.012093 -0.503194
O10   O     O_3   0.357518 0.966073 0.987984 -0.500167
O11   O     O_3   0.143763 0.530247 0.009048 -0.495188
O12   O     O_R   0.577570 0.910360 0.580430 -0.498557
O13   O     O_3   0.856332 0.530615 0.990943 -0.497305
O14   O     O_R   0.577570 0.089640 0.580430 -0.518920
O15   O     O_R   0.422430 0.910360 0.419570 -0.518183
O16   O     O_R   0.922430 0.589640 0.419570 -0.499520
O17   O     O_R   0.077570 0.410360 0.580430 -0.516836
O18   O     O_R   0.077570 0.589640 0.580430 -0.499818
O19   O     O_R   0.922430 0.410360 0.419570 -0.517176
O20   O     O_R   0.384170 0.089650 0.673910 -0.527200

loop_
_geom_bond_atom_site_label_1
_geom_bond_atom_site_label_2
_ccdc_geom_bond_type
C15   C18   S    
C5    H2    S    
C16   C21   S    
N1    O10   S    
C1    C8    S    
C13   C32   S    
C27   O11   S    
C28   H29   S    
C8    H3    S    
Cu2   O14   S    
C22   H14   S    
C34   O18   A    
C16   H34   S    
Cu1   O1    S    
C19   H36   S    
C28   H28   S    
C26   H21   S    
Cu3   N4    S    
C35   O19   A    
C17   C20   S    
C26   H24   S    
C34   O7    A    
Cu2   O20   S    
Cu4   O17   S    
C14   H12   S    
C24   H17   S    
C21   H38   S    
C25   H20   S    
C31   O15   A    
Cu4   O5    S    
C29   C30   S    
C10   C19   D    
Cu3   O6    S    
C35   O8    A    
C6    C15   D    
C25   O10   S    
N2    O9    S    
C23   O3    A    
Cu4   N3    S    
C11   H8    S    
Cu3   O7    S    
C1    O1    A    
C7    C12   S    
C11   C20   D    
C4    H11   S    
Cu1   O2    S    
C11   C33   S    
C28   H27   S    
C15   H1    S    
Cu3   Cu4   S    
C13   H7    S    
C30   H33   S    
C25   C26   S    
C32   O16   A    
Cu2   O4    S    
N4    O11   S    
Cu1   Cu2   S    
C27   H25   S    
C2    H9    S    
C6    H40   S    
C32   O5    A    
C4    N4    D    
C36   N1    D    
C10   H5    S    
C13   C21   D    
C10   C34   S    
C7    H4    S    
Cu4   O8    S    
C1    O20   A    
C5    C14   D    
C7    C16   D    
Cu2   N1    S    
C3    N3    D    
C22   O9    S    
C33   O17   A    
Cu1   N2    S    
C2    N2    D    
C3    C4    S    
Cu1   O15   S    
C36   H10   S    
C29   H30   S    
C2    C36   S    
C31   O4    A    
C20   H39   S    
C14   C19   S    
Cu1   O3    S    
C30   H32   S    
Cu3   O19   S    
C22   H15   S    
C12   O2    A    
C24   H16   S    
C8    C17   D    
C29   O13   S    
C26   H22   S    
C27   H26   S    
C33   O6    A    
C17   H23   S    
C30   H35   S    
C3    H13   S    
Cu3   O16   S    
C18   H37   S    
C6    C23   S    
C22   C24   S    
Cu4   O18   S    
C9    C18   D    
C9    H6    S    
C23   O14   A    
C24   H18   S    
N3    O13   S    
Cu2   O12   S    
C27   C28   S    
C9    C35   S    
C12   O12   A    
C25   H19   S    
C5    C31   S    
C29   H31   S    
