data_mof_unit_32214.cif
_audit_creation_date              2013-03-05T16:02:59-0500
_audit_creation_method            fapswitch 2.2
_symmetry_space_group_name_H-M    P1
_symmetry_Int_Tables_number       1
_space_group_crystal_system       triclinic
_cell_length_a                    15.011089
_cell_length_b                    14.010766
_cell_length_c                    10.563642
_cell_angle_alpha                 90.490275
_cell_angle_beta                  89.573271
_cell_angle_gamma                 90.295619
_cell_volume                      2221.54016532

loop_
_atom_site_label
_atom_site_type_symbol
_atom_site_description
_atom_site_fract_x
_atom_site_fract_y
_atom_site_fract_z
_atom_type_partial_charge
O1    O     O_R   0.367850 0.580280 0.500030 -0.624327
O2    O     O_R   0.632150 0.419720 0.499970 -0.623171
O3    O     O_R   0.632150 0.580280 0.499970 -0.596486
O4    O     O_R   0.367850 0.419720 0.500030 -0.597107
C1    C     C_R   0.326788 0.499705 0.497312 0.948839
C2    C     C_R   0.673226 0.500334 0.503114 0.951324
O5    O     O_R   0.499970 0.580260 0.313950 -0.618867
O6    O     O_R   0.500030 0.419740 0.686050 -0.618383
O7    O     O_R   0.500030 0.580260 0.686050 -0.588205
O8    O     O_R   0.499970 0.419740 0.313950 -0.588385
C3    C     C_R   0.498972 0.499446 0.257592 1.002345
C4    C     C_R   0.500800 0.500558 0.742391 1.002164
Zn1   Zn    Zn3+2 0.500000 0.607200 0.500000 1.043404
Zn2   Zn    Zn3+2 0.500000 0.392800 0.500000 1.044907
C5    C     C_3   0.424408 0.538804 0.041140 0.288783
C6    C     C_3   0.575116 0.461213 0.958752 0.288566
C7    C     C_3   0.495350 0.589857 0.962324 0.281105
C8    C     C_3   0.504197 0.410151 0.037588 0.281443
C9    C     C_3   0.428721 0.449472 0.954677 -0.372450
C10   C     C_3   0.570829 0.550532 0.045224 -0.373376
H1    H     H_    0.371339 0.408594 0.916003 0.208514
H2    H     H_    0.628232 0.591400 0.083855 0.208012
C11   C     C_3   0.501283 0.501607 0.876258 -0.282514
C12   C     C_3   0.498261 0.498409 0.123683 -0.281739
C13   C     C_R   0.813518 0.428564 0.442547 -0.266583
C14   C     C_R   0.186788 0.572445 0.556550 -0.282751
C15   C     C_R   0.768836 0.501016 0.507103 -0.161894
C16   C     C_R   0.231234 0.499542 0.492522 -0.147327
C17   C     C_R   0.814998 0.574299 0.570525 0.283231
C18   C     C_R   0.184998 0.427454 0.427111 0.282294
C19   C     C_R   0.908067 0.575146 0.566084 -0.045936
C20   C     C_R   0.091959 0.427947 0.429416 -0.020130
C21   C     C_R   0.953491 0.502098 0.498718 0.003330
C22   C     C_R   0.046657 0.501964 0.495294 0.017158
C23   C     C_R   0.905737 0.428568 0.436000 0.107947
C24   C     C_R   0.094480 0.575592 0.558025 0.074604
C25   C     C_R   0.956392 0.647017 0.628535 -0.154569
C26   C     C_R   0.043539 0.356674 0.365812 -0.206553
C27   C     C_R   0.048769 0.648934 0.623671 0.185780
C28   C     C_R   0.950976 0.356429 0.368218 0.183271
H3    H     H_    0.775462 0.373036 0.395152 0.199889
H4    H     H_    0.225494 0.624944 0.608300 0.172996
H5    H     H_    0.923045 0.703204 0.681150 0.210435
H6    H     H_    0.076877 0.300913 0.312399 0.200558
C29   C     C_R   0.553069 0.797887 0.415963 0.033139
C30   C     C_R   0.446926 0.202112 0.584035 0.031373
C31   C     C_R   0.446985 0.798356 0.584126 0.031580
C32   C     C_R   0.552966 0.201639 0.415818 0.037328
N1    N     N_R   0.500000 0.750030 0.500000 -0.110980
N2    N     N_R   0.500000 0.249970 0.500000 -0.111860
C33   C     C_R   0.445765 0.899027 0.586242 0.008451
C34   C     C_R   0.554170 0.100967 0.413687 0.007762
C35   C     C_R   0.554270 0.898549 0.413827 0.011564
C36   C     C_R   0.445690 0.101448 0.586134 0.011844
C37   C     C_R   0.499997 0.949381 0.500008 0.087495
C38   C     C_R   0.499951 0.050615 0.499939 0.086281
C39   C     C_R   0.391847 0.950312 0.672013 -0.145516
C40   C     C_R   0.608061 0.049681 0.327885 -0.139916
C41   C     C_R   0.608127 0.949357 0.327979 -0.153454
C42   C     C_R   0.391806 0.050638 0.671949 -0.152099
H7    H     H_    0.594374 0.757436 0.350637 0.136179
H8    H     H_    0.405637 0.242565 0.649380 0.136376
H9    H     H_    0.405706 0.758269 0.649477 0.150162
H10   H     H_    0.594220 0.241724 0.350433 0.152931
H11   H     H_    0.349714 0.912852 0.739102 0.171485
H12   H     H_    0.650165 0.087138 0.260759 0.173577
H13   H     H_    0.650279 0.911528 0.260905 0.163545
H14   H     H_    0.349649 0.088466 0.739016 0.163344
N3    N     N_R   0.340958 0.581120 0.084758 0.262089
O9    O     O_R   0.280906 0.604549 0.002789 -0.378183
O10   O     O_R   0.324285 0.592236 0.204886 -0.358459
N4    N     N_R   0.658479 0.418911 0.914805 0.262230
O11   O     O_R   0.718400 0.394883 0.996590 -0.382151
O12   O     O_R   0.675249 0.408429 0.794613 -0.356801
N5    N     N_R   0.492055 0.688499 0.919498 0.224415
O13   O     O_R   0.423470 0.741603 0.945676 -0.365027
O14   O     O_R   0.560441 0.725628 0.861461 -0.313377
N6    N     N_R   0.507509 0.311503 0.080390 0.224563
O15   O     O_R   0.576057 0.258379 0.054078 -0.364601
O16   O     O_R   0.439168 0.274383 0.138541 -0.314151
N7    N     N_R   0.767463 0.645464 0.642265 0.207073
O17   O     O_R   0.721011 0.621067 0.741389 -0.321601
O18   O     O_R   0.765067 0.733160 0.602939 -0.381319
N8    N     N_R   0.232489 0.355789 0.356235 0.207375
O19   O     O_R   0.279733 0.379628 0.257621 -0.321999
O20   O     O_R   0.233618 0.268040 0.395502 -0.383555
N9    N     N_2   0.093633 0.726508 0.684013 -0.323325
H15   H     H_    0.146635 0.754988 0.634283 0.231591
C43   C     C_3   0.111329 0.712168 0.816781 -0.659001
H16   H     H_    0.156801 0.650701 0.828900 0.267289
H17   H     H_    0.048149 0.698663 0.869267 0.252091
H18   H     H_    0.143261 0.777156 0.857207 0.254026
N10   N     N_2   0.903863 0.283090 0.302319 -0.336027
H19   H     H_    0.934711 0.217491 0.304712 0.241663
C44   C     C_3   0.878707 0.308688 0.175237 -0.656431
H20   H     H_    0.836205 0.251406 0.134090 0.265912
H21   H     H_    0.939046 0.317558 0.114744 0.243584
H22   H     H_    0.840327 0.376237 0.176218 0.271374

loop_
_geom_bond_atom_site_label_1
_geom_bond_atom_site_label_2
_geom_bond_distance
_ccdc_geom_bond_type
C18   C20   1.396684 A    
N9    H15   1.030665 S    
N10   H19   1.031872 S    
C15   C17   1.403940 A    
C44   H20   1.110391 S    
C6    N4    1.458421 S    
C27   N9    1.424131 S    
C28   N10   1.424139 S    
C37   C38   1.418368 A    
O3    C2    1.282180 A    
N7    O17   1.300881 A    
C35   C41   1.406034 A    
C44   H22   1.110453 S    
C31   N1    1.366103 A    
C36   C42   1.406062 A    
O5    C3    1.274799 A    
C4    C11   1.414146 S    
C7    C11   1.531023 S    
C30   H8    1.082783 S    
C8    C12   1.531291 S    
C6    C10   1.544341 S    
C9    H1    1.110423 S    
N8    O20   1.301115 A    
C32   C34   1.410687 A    
C31   H9    1.082893 S    
N6    O16   1.300312 A    
C32   H10   1.082888 S    
C3    C12   1.414637 S    
C7    C10   1.543920 S    
C8    C9    1.543929 S    
N3    O10   1.299809 A    
O7    Zn1   2.004456 S    
C41   H13   1.083368 S    
C5    C9    1.544453 S    
C40   H12   1.083498 S    
C10   C12   1.547757 S    
C19   C21   1.416445 A    
C33   C39   1.405786 A    
C20   C26   1.401861 A    
C43   H17   1.111212 S    
C22   C24   1.416474 A    
O3    Zn1   2.021161 S    
C8    N6    1.459099 S    
C32   N2    1.366089 A    
C29   C35   1.410741 A    
N10   C44   1.445884 S    
O4    Zn2   2.021163 S    
O2    C2    1.284317 A    
N7    O18   1.301135 A    
C35   C37   1.408401 A    
C5    N3    1.458560 S    
C36   C38   1.408392 A    
N8    O19   1.300834 A    
N4    O12   1.299780 A    
O8    Zn2   2.004456 S    
C13   H3    1.084098 S    
N6    O15   1.300056 A    
O4    C1    1.282406 A    
C39   C42   1.405645 A    
C31   C33   1.410681 A    
C40   C41   1.405625 A    
C19   C25   1.401303 A    
C20   C22   1.417766 A    
C25   H5    1.082424 S    
C9    C11   1.547547 S    
N5    O13   1.300054 A    
C26   H6    1.082333 S    
C25   C27   1.387380 A    
C1    C16   1.435631 S    
C2    C15   1.436117 S    
C29   N1    1.366172 A    
O6    C4    1.274727 A    
C30   C36   1.410772 A    
C21   C22   1.398735 A    
C43   H18   1.110455 S    
N5    O14   1.300329 A    
C34   C40   1.405782 A    
C13   C23   1.385527 A    
Zn1   N1    2.001158 S    
C14   C24   1.386534 A    
C5    C12   1.529370 S    
C10   H2    1.110432 S    
C17   N7    1.436666 S    
C6    C11   1.528847 S    
N9    C43   1.445302 S    
O1    C1    1.283642 A    
O1    Zn1   2.017340 S    
C14   H4    1.082089 S    
C5    C7    1.525769 S    
O6    Zn2   1.998111 S    
C24   C27   1.412664 A    
C39   H11   1.083511 S    
N4    O11   1.299420 A    
C44   H21   1.111645 S    
C13   C15   1.390597 A    
C30   N2    1.366203 A    
C14   C16   1.390829 A    
C16   C18   1.402581 A    
C23   C28   1.408144 A    
C17   C19   1.397493 A    
C26   C28   1.389502 A    
Zn2   N2    2.001159 S    
C29   H7    1.082785 S    
C21   C23   1.414895 A    
C33   C37   1.408660 A    
C18   N8    1.436507 S    
N3    O9    1.299877 A    
O2    Zn2   2.017339 S    
O7    C4    1.270025 A    
O8    C3    1.270214 A    
O5    Zn1   1.998112 S    
C42   H14   1.083367 S    
C6    C8    1.525724 S    
C7    N5    1.459075 S    
C43   H16   1.110500 S    
C34   C38   1.408658 A    
