data_mof_unit_30010.cif
_audit_creation_date              2013-03-05T15:45:15-0500
_audit_creation_method            fapswitch 2.2
_symmetry_space_group_name_H-M    P1
_symmetry_Int_Tables_number       1
_space_group_crystal_system       triclinic
_cell_length_a                    16.931165
_cell_length_b                    7.054763
_cell_length_c                    16.779171
_cell_angle_alpha                 90.001235
_cell_angle_beta                  100.692457
_cell_angle_gamma                 89.998412
_cell_volume                      1969.39570062

loop_
_atom_site_label
_atom_site_type_symbol
_atom_site_description
_atom_site_fract_x
_atom_site_fract_y
_atom_site_fract_z
_atom_type_partial_charge
O1    O     O_R   0.579510 0.506290 0.439030 -0.601537
O2    O     O_R   0.420490 0.006290 0.560970 -0.601532
O3    O     O_R   0.412540 0.170090 0.405290 -0.536716
O4    O     O_R   0.587460 0.670090 0.594710 -0.536716
C1    C     C_R   0.384325 0.346427 0.382878 0.911614
C2    C     C_R   0.615675 0.846427 0.617122 0.911611
O5    O     O_R   0.578390 0.176230 0.429330 -0.588592
O6    O     O_R   0.421610 0.676230 0.570670 -0.588576
O7    O     O_R   0.587530 0.011250 0.585190 -0.583272
O8    O     O_R   0.412470 0.511250 0.414810 -0.583275
C3    C     C_R   0.604346 0.343640 0.413076 1.028665
C4    C     C_R   0.395654 0.843647 0.586923 1.028653
O9    O     O_3   0.502800 0.340940 0.551110 -0.263264
O10   O     O_3   0.497200 0.840940 0.448890 -0.263271
V1    V     V_3+5 0.499480 0.064020 0.490520 1.270863
V2    V     V_3+5 0.500520 0.564020 0.509480 1.270865
C5    C     C_R   0.167223 0.926801 0.861395 -0.134917
C6    C     C_R   0.832786 0.426832 0.138616 -0.134927
C7    C     C_R   0.333752 0.839955 0.639608 -0.134515
C8    C     C_R   0.666239 0.339924 0.360380 -0.134479
C9    C     C_R   0.234143 0.655422 0.695394 -0.221355
C10   C     C_R   0.765780 0.155315 0.304520 -0.221405
C11   C     C_R   0.286441 0.675398 0.640566 -0.055521
C12   C     C_R   0.713493 0.175294 0.359359 -0.055490
C13   C     C_R   0.325964 0.987147 0.694072 -0.252010
C14   C     C_R   0.674076 0.487183 0.305970 -0.252049
C15   C     C_R   0.273592 0.967135 0.750078 0.209468
C16   C     C_R   0.726437 0.467170 0.249954 0.209526
C17   C     C_R   0.227579 0.799457 0.751090 0.214147
C18   C     C_R   0.772391 0.299421 0.248877 0.214190
C19   C     C_R   0.175181 0.779451 0.807061 -0.267551
C20   C     C_R   0.824779 0.279415 0.192896 -0.267521
C21   C     C_R   0.214496 0.091410 0.860434 -0.114986
C22   C     C_R   0.785568 0.591514 0.139640 -0.115027
C23   C     C_R   0.266946 0.111250 0.805725 -0.193917
C24   C     C_R   0.733130 0.611356 0.194360 -0.193998
H1    H     H_    0.138806 0.652768 0.806391 0.137150
H2    H     H_    0.861107 0.152671 0.193516 0.137155
H3    H     H_    0.210166 0.207419 0.901723 0.139934
H4    H     H_    0.789934 0.707579 0.098394 0.139953
H5    H     H_    0.199375 0.526208 0.694656 0.134575
H6    H     H_    0.800501 0.026045 0.305208 0.134534
H7    H     H_    0.301685 0.240505 0.806445 0.145229
H8    H     H_    0.698437 0.740666 0.193691 0.145188
H9    H     H_    0.290580 0.559541 0.599149 0.151957
H10   H     H_    0.709320 0.059380 0.400733 0.151894
H11   H     H_    0.362369 0.113779 0.694740 0.148123
H12   H     H_    0.637717 0.613876 0.305352 0.148112
C25   C     C_3   0.736793 0.823914 0.840911 -0.370156
C26   C     C_3   0.263207 0.323901 0.159089 -0.370176
H13   H     H_    0.749177 0.675657 0.860346 0.250402
H14   H     H_    0.250824 0.175643 0.139655 0.250400
H15   H     H_    0.724660 0.897820 0.895782 0.174604
H16   H     H_    0.275340 0.397800 0.104218 0.174598
C27   C     C_3   0.661077 0.832221 0.771766 0.170993
C28   C     C_3   0.338923 0.332208 0.228234 0.171000
H17   H     H_    0.624696 0.956048 0.784743 0.127616
H18   H     H_    0.375304 0.456029 0.215256 0.127622
H19   H     H_    0.858857 0.640472 0.771246 0.228563
H20   H     H_    0.141144 0.140481 0.228755 0.228563
H21   H     H_    0.739878 0.584078 0.684714 0.233526
H22   H     H_    0.260124 0.084085 0.315287 0.233528
C29   C     C_3   0.833072 0.775938 0.745069 -0.424008
C30   C     C_3   0.166929 0.275948 0.254931 -0.424000
C31   C     C_3   0.789527 0.105308 0.770085 0.103696
C32   C     C_3   0.210473 0.605310 0.229914 0.103701
C33   C     C_3   0.812001 0.910151 0.812015 -0.132620
C34   C     C_3   0.187999 0.410150 0.187984 -0.132619
H23   H     H_    0.844094 0.158624 0.748918 0.120392
H24   H     H_    0.155905 0.658635 0.251081 0.120394
C35   C     C_3   0.687025 0.869103 0.688084 -0.276965
C36   C     C_3   0.312975 0.369104 0.311916 -0.276971
C37   C     C_3   0.757647 0.733818 0.679182 -0.217210
C38   C     C_3   0.242353 0.233828 0.320819 -0.217211
C39   C     C_3   0.720437 0.080375 0.694573 0.108670
C40   C     C_3   0.279562 0.580378 0.305427 0.108679
H25   H     H_    0.669966 0.174210 0.703358 0.162424
H26   H     H_    0.330033 0.674207 0.296642 0.162425
H27   H     H_    0.880545 0.841709 0.716361 0.181784
H28   H     H_    0.119455 0.341728 0.283639 0.181786
H29   H     H_    0.772826 0.745472 0.617804 0.191592
H30   H     H_    0.227174 0.245489 0.382196 0.191590
O11   O     O_R   0.087500 0.266000 0.085220 -0.580235
O12   O     O_R   0.912500 0.766000 0.914780 -0.580233
O13   O     O_R   0.921600 0.589950 0.070670 -0.609317
O14   O     O_R   0.078400 0.089950 0.929330 -0.609299
C41   C     C_R   0.894853 0.423195 0.086106 0.967338
C42   C     C_R   0.105147 0.923188 0.913895 0.967320
O15   O     O_R   0.087460 0.596020 0.094710 -0.552251
O16   O     O_R   0.912540 0.096020 0.905290 -0.552251
O17   O     O_R   0.079520 0.760970 0.939020 -0.585179
O18   O     O_R   0.920480 0.260970 0.060980 -0.585188
C43   C     C_R   0.116393 0.426338 0.117483 0.916569
C44   C     C_R   0.883606 0.926338 0.882517 0.916566
O19   O     O_3   0.997180 0.425140 0.948910 -0.263148
O20   O     O_3   0.002820 0.925140 0.051090 -0.263156
V3    V     V_3+5 0.000520 0.702080 0.009480 1.221737
V4    V     V_3+5 0.999480 0.202080 0.990520 1.221739
N1    N     N_R   0.609449 0.665329 0.771948 0.253345
O21   O     O_R   0.537186 0.685201 0.786906 -0.393953
O22   O     O_R   0.633217 0.498090 0.754495 -0.359565
N2    N     N_R   0.390552 0.165310 0.228053 0.253343
O23   O     O_R   0.462816 0.185173 0.213098 -0.393947
O24   O     O_R   0.366783 0.998075 0.245503 -0.359564
N3    N     N_R   0.768520 0.246049 0.827389 0.240965
O25   O     O_R   0.704444 0.228720 0.859218 -0.386114
O26   O     O_R   0.818090 0.383534 0.851831 -0.420186
N4    N     N_R   0.231479 0.746042 0.172610 0.240964
O27   O     O_R   0.295555 0.728702 0.140781 -0.386116
O28   O     O_R   0.181909 0.883531 0.148168 -0.420189
N5    N     N_R   0.746727 0.144640 0.620166 0.233221
O29   O     O_R   0.810380 0.074241 0.598122 -0.436370
O30   O     O_R   0.712041 0.290565 0.581104 -0.423620
N6    N     N_R   0.253272 0.644654 0.379833 0.233211
O31   O     O_R   0.189620 0.574264 0.401877 -0.436398
O32   O     O_R   0.287957 0.790580 0.418894 -0.423640

loop_
_geom_bond_atom_site_label_1
_geom_bond_atom_site_label_2
_geom_bond_distance
_ccdc_geom_bond_type
C32   C34   1.560773 S    
C25   H15   1.109895 S    
C11   H9    1.083492 S    
C15   C17   1.418278 A    
C5    C42   1.491583 S    
N5    O29   1.301092 A    
O1    C3    1.323266 A    
C36   C40   1.590775 S    
O2    C4    1.323254 A    
C2    O7    1.330971 A    
N6    O31   1.301089 A    
O19   V4    1.719086 S    
O18   V4    1.986495 S    
C29   H27   1.112249 S    
O5    C3    1.306472 A    
N3    O26   1.298325 A    
C26   H16   1.109895 S    
C22   H4    1.083470 S    
O12   V3    2.017533 S    
C30   C34   1.560202 S    
C40   H26   1.112158 S    
C1    C36   1.539132 S    
O14   C42   1.303729 A    
C31   C33   1.560771 S    
O11   C43   1.309041 A    
N4    O27   1.300822 A    
C25   H13   1.104028 S    
C31   N3    1.470949 S    
C21   H3    1.083500 S    
C8    C12   1.412208 A    
N4    O28   1.298323 A    
C28   C36   1.568816 S    
O11   V4    2.017537 S    
O20   V4    2.198174 S    
C10   H6    1.083911 S    
C33   C44   1.533001 S    
C26   H14   1.104029 S    
C20   H2    1.084217 S    
C18   C20   1.413553 A    
C23   H7    1.083964 S    
C13   H11   1.084261 S    
C14   H12   1.084219 S    
O5    V1    1.993717 S    
O6    V2    1.993670 S    
C41   O18   1.320462 A    
C39   N5    1.472630 S    
C30   H28   1.112250 S    
C5    C21   1.412196 A    
C38   H30   1.109789 S    
C7    C13   1.405517 A    
C37   H29   1.109790 S    
O16   C44   1.322687 A    
O13   C41   1.303718 A    
C2    C35   1.539135 S    
C29   C33   1.560202 S    
C3    C8    1.491466 S    
O4    C2    1.360346 A    
C35   C37   1.558577 S    
C29   C37   1.554805 S    
C15   C23   1.398962 A    
C25   C27   1.562374 S    
C9    C17   1.398830 A    
C26   C28   1.562375 S    
C19   H1    1.084258 S    
O15   V3    1.997650 S    
O4    V2    1.997685 S    
C7    C11   1.412238 A    
C39   H25   1.112157 S    
C40   N6    1.472630 S    
N1    O21   1.301348 A    
C42   O17   1.320450 A    
O6    C4    1.306482 A    
C32   C40   1.566740 S    
O20   V3    1.719060 S    
N5    O30   1.300551 A    
O1    V2    1.984547 S    
O12   C44   1.309043 A    
O17   V3    1.986523 S    
N2    O24   1.297455 A    
O2    V1    1.984570 S    
C6    C22   1.412164 A    
C9    H5    1.083952 S    
C36   C38   1.558577 S    
N1    O22   1.297458 A    
C27   H17   1.113407 S    
C5    C19   1.405512 A    
C10   C12   1.397320 A    
C24   H8    1.083920 S    
C6    C20   1.405468 A    
O3    V1    1.997678 S    
C10   C18   1.398783 A    
C14   C16   1.413680 A    
C6    C41   1.491593 S    
C32   N4    1.470948 S    
O3    C1    1.360341 A    
N6    O32   1.300550 A    
O19   V3    2.198138 S    
C25   C33   1.567086 S    
C13   C15   1.413687 A    
N3    O25   1.300822 A    
H19   C29   1.107108 S    
C34   C43   1.533000 S    
C31   C39   1.566741 S    
H20   C30   1.107108 S    
H21   C37   1.107010 S    
C9    C11   1.397336 A    
O7    V1    2.001396 S    
C12   H10   1.083464 S    
C1    O8    1.330970 A    
C17   C19   1.413560 A    
O8    V2    2.001398 S    
C35   C39   1.590778 S    
C32   H24   1.114895 S    
C8    C14   1.405475 A    
C31   H23   1.114893 S    
C4    C7    1.491456 S    
C16   C18   1.418227 A    
C21   C23   1.397630 A    
C28   H18   1.113407 S    
C22   C24   1.397613 A    
O15   C43   1.322683 A    
N2    O23   1.301347 A    
O14   V4    1.993576 S    
O13   V3    1.993622 S    
C28   N2    1.466756 S    
C16   C24   1.398914 A    
O9    V2    1.719369 S    
C27   N1    1.466756 S    
C30   C38   1.554803 S    
O10   V1    1.719343 S    
H22   C38   1.107010 S    
C26   C34   1.567085 S    
O16   V4    1.997660 S    
C27   C35   1.568816 S    
