data_mof_unit_67940.cif
_audit_creation_date              2012-12-10T19:24:08-0500
_audit_creation_method            fapswitch 2.2
_symmetry_space_group_name_H-M    P1
_symmetry_Int_Tables_number       1
_space_group_crystal_system       triclinic
_cell_length_a                    10.526233
_cell_length_b                    10.501265
_cell_length_c                    9.80289
_cell_angle_alpha                 91.055258
_cell_angle_beta                  88.142576
_cell_angle_gamma                 91.382245
_cell_volume                      1082.54618769

loop_
_atom_site_label
_atom_site_type_symbol
_atom_type_description
_atom_site_fract_x
_atom_site_fract_y
_atom_site_fract_z
_atom_type_partial_charge
C1    C     C_R   0.503523 0.258053 0.498438 0.911455
C2    C     C_3   0.614135 0.487552 0.044371 -0.262196
C3    C     C_R   0.257680 0.495353 0.501858 0.852645
C4    C     C_R   0.742320 0.504659 0.498143 0.852642
C5    C     C_3   0.029891 0.422555 0.599665 0.065203
C6    C     C_3   0.970111 0.577477 0.400338 0.065206
C7    C     C_3   0.951574 0.382209 0.475482 -0.251468
C8    C     C_3   0.048429 0.617822 0.524522 -0.251462
C9    C     C_3   0.877406 0.505194 0.494960 -0.010638
C10   C     C_3   0.122595 0.494835 0.505042 -0.010642
C11   C     C_3   0.953476 0.545020 0.620284 -0.199436
C12   C     C_R   0.496481 0.741947 0.501562 0.911440
C13   C     C_3   0.046525 0.455011 0.379719 -0.199450
C14   C     C_3   0.567013 0.045749 0.603316 0.652752
C15   C     C_3   0.432995 0.954250 0.396685 0.652745
C16   C     C_3   0.619605 0.955735 0.490197 -0.362563
C17   C     C_3   0.380403 0.044264 0.509804 -0.362574
C18   C     C_3   0.495161 0.876694 0.505157 -0.189674
C19   C     C_3   0.504847 0.123305 0.494844 -0.189679
C20   C     C_R   0.059381 0.334965 0.713372 0.146160
C21   C     C_R   0.069896 0.383250 0.847053 -0.172202
C22   C     C_R   0.085012 0.300704 0.955055 -0.108678
C23   C     C_3   0.443735 0.965440 0.618919 -0.097546
C24   C     C_R   0.088098 0.169455 0.930862 -0.083446
C25   C     C_R   0.079650 0.120603 0.797830 -0.144542
C26   C     C_R   0.066111 0.203003 0.689163 -0.160234
C27   C     C_R   0.940630 0.665062 0.286623 0.146118
C28   C     C_R   0.930026 0.616749 0.152968 -0.172172
C29   C     C_R   0.914912 0.699275 0.044949 -0.108695
C30   C     C_R   0.911919 0.830531 0.069096 -0.083489
C31   C     C_R   0.920463 0.879414 0.202102 -0.144569
C32   C     C_R   0.934002 0.797034 0.310787 -0.160210
C33   C     C_R   0.374511 0.930241 0.750136 0.165088
C34   C     C_3   0.556274 0.034559 0.381082 -0.097554
C35   C     C_R   0.389030 0.005992 0.868263 -0.126452
C36   C     C_R   0.322974 0.974455 0.989278 -0.114541
C37   C     C_R   0.240434 0.868323 0.992936 -0.123329
C38   C     C_R   0.221876 0.795134 0.874598 -0.200221
C39   C     C_R   0.287733 0.826616 0.753397 -0.103508
C40   C     C_R   0.625501 0.069754 0.249866 0.165097
C41   C     C_R   0.610987 0.993999 0.131741 -0.126446
C42   C     C_R   0.677046 0.025532 0.010728 -0.114523
C43   C     C_R   0.759586 0.131664 0.007069 -0.123319
C44   C     C_R   0.778140 0.204857 0.125405 -0.200228
C45   C     C_3   0.431090 0.408321 0.048229 0.748330
C46   C     C_R   0.712279 0.173379 0.246605 -0.103473
C47   C     C_3   0.568909 0.591679 0.951771 0.748319
C48   C     C_3   0.544051 0.394497 0.947561 -0.242769
C49   C     C_3   0.455948 0.605503 0.052439 -0.242752
C50   C     C_3   0.385864 0.512447 0.955628 -0.262164
F1    F     F_    0.639768 0.098541 0.705587 -0.717815
F2    F     F_    0.360240 0.901458 0.294414 -0.717823
F3    F     F_    0.358030 0.310119 0.104112 -0.686906
F4    F     F_    0.641964 0.689883 0.895886 -0.686929
H1    H     H_    0.909772 0.286093 0.455321 0.133473
H2    H     H_    0.709704 0.477281 0.086066 0.160329
H3    H     H_    0.064386 0.484449 0.868213 0.103098
H4    H     H_    0.092113 0.338323 0.057833 0.143157
H5    H     H_    0.095437 0.105803 0.015560 0.140305
H6    H     H_    0.081550 0.018841 0.779073 0.146124
H7    H     H_    0.057959 0.163489 0.586979 0.120263
H8    H     H_    0.935475 0.515542 0.131841 0.103092
H9    H     H_    0.907737 0.661632 0.942191 0.143234
H10   H     H_    0.904580 0.894165 0.984382 0.140320
H11   H     H_    0.918638 0.981182 0.220822 0.146118
H12   H     H_    0.090234 0.713935 0.544687 0.133455
H13   H     H_    0.942227 0.836573 0.412949 0.120290
H14   H     H_    0.449724 0.090498 0.866840 0.191850
H15   H     H_    0.334266 0.033870 0.079581 0.225207
H16   H     H_    0.189702 0.843898 0.086915 0.195894
H17   H     H_    0.156007 0.714495 0.876404 0.132133
H18   H     H_    0.271054 0.770207 0.662286 0.125098
H19   H     H_    0.550293 0.909492 0.133165 0.191846
H20   H     H_    0.665757 0.966115 0.920425 0.225202
H21   H     H_    0.810324 0.156086 0.913091 0.195883
H22   H     H_    0.844008 0.285496 0.123599 0.132107
H23   H     H_    0.911198 0.583030 0.717245 0.158098
H24   H     H_    0.728954 0.229791 0.337714 0.125093
H25   H     H_    0.088801 0.417005 0.282755 0.158119
H26   H     H_    0.716560 0.916294 0.484148 0.168044
H27   H     H_    0.283448 0.083704 0.515851 0.168026
H28   H     H_    0.579727 0.305516 0.898917 0.202211
H29   H     H_    0.420273 0.694483 0.101084 0.202210
H30   H     H_    0.290291 0.522705 0.913933 0.160344
N1    N     N_3   0.499910 0.500030 0.863290 -0.127971
N2    N     N_3   0.500090 0.499970 0.136710 -0.127973
O1    O     O_R   0.500010 0.313960 0.616610 -0.592394
O2    O     O_R   0.499990 0.686040 0.383390 -0.592398
O3    O     O_R   0.500060 0.313950 0.383350 -0.588124
O4    O     O_R   0.499940 0.686050 0.616650 -0.588124
O5    O     O_R   0.313930 0.499970 0.616610 -0.639054
O6    O     O_R   0.686070 0.500030 0.383390 -0.639057
O7    O     O_R   0.313980 0.499960 0.383350 -0.588070
O8    O     O_R   0.686020 0.500040 0.616650 -0.588073
Zn1   Zn    Zn3+2 0.499970 0.500010 0.655740 1.006867
Zn2   Zn    Zn3+2 0.500030 0.499990 0.344260 1.006865

loop_
_geom_bond_atom_site_label_1
_geom_bond_atom_site_label_2
_ccdc_geom_bond_type
C1    O1    A    
C15   C18   S    
C29   H9    S    
C8    H12   S    
C30   H10   S    
C41   C42   A    
C35   C36   A    
C7    H1    S    
C6    C9    S    
O2    Zn2   S    
C50   H30   S    
O4    Zn1   S    
C47   C49   S    
C5    C20   S    
C40   C46   A    
C33   C39   A    
C34   C40   S    
C47   N1    S    
C22   C24   A    
C12   O4    A    
C28   C29   A    
C37   C38   A    
C5    C11   S    
C24   H5    S    
C38   C39   A    
C33   C35   A    
O6    Zn2   S    
C13   H25   S    
C3    O5    A    
C44   H22   S    
C11   H23   S    
C50   N1    S    
C16   C34   S    
C14   F1    S    
C23   C33   S    
O1    Zn1   S    
C39   H18   S    
C25   H6    S    
C15   C34   S    
C45   F3    S    
C37   H16   S    
C49   N2    S    
C44   C46   A    
C43   H21   S    
C1    C19   S    
C42   H20   S    
C12   O2    A    
C18   C23   S    
C24   C25   A    
C46   H24   S    
C31   H11   S    
C6    C8    S    
C2    C48   S    
C25   C26   A    
O5    Zn1   S    
C19   C34   S    
C16   H26   S    
C14   C23   S    
C43   C44   A    
C21   H3    S    
C29   C30   A    
C6    C27   S    
C3    O7    A    
C17   C23   S    
C15   F2    S    
C9    C11   S    
N2    Zn2   S    
C32   H13   S    
C4    O8    A    
C8    C10   S    
C40   C41   A    
O7    Zn2   S    
C47   F4    S    
C14   C16   S    
C42   C43   A    
C36   H15   S    
C5    C7    S    
C45   C48   S    
C15   C17   S    
C38   H17   S    
C36   C37   A    
C1    O3    A    
C27   C32   A    
C14   C19   S    
C26   H7    S    
C31   C32   A    
C10   C13   S    
C22   H4    S    
C2    C47   S    
C49   H29   S    
O3    Zn2   S    
C45   N2    S    
C5    C10   S    
C3    C10   S    
C2    H2    S    
C6    C13   S    
C45   C50   S    
N1    Zn1   S    
C30   C31   A    
C20   C26   A    
C35   H14   S    
C8    C11   S    
C17   C19   S    
C48   H28   S    
C2    N2    S    
C17   H27   S    
O8    Zn1   S    
C41   H19   S    
C7    C9    S    
C7    C13   S    
C20   C21   A    
C16   C18   S    
C49   C50   S    
C12   C18   S    
C27   C28   A    
C48   N1    S    
C4    C9    S    
C21   C22   A    
C4    O6    A    
C28   H8    S    
