data_mof_unit_26143.cif
_audit_creation_date              2012-12-10T19:01:49-0500
_audit_creation_method            fapswitch 2.2
_symmetry_space_group_name_H-M    P1
_symmetry_Int_Tables_number       1
_space_group_crystal_system       triclinic
_cell_length_a                    24.406877
_cell_length_b                    24.417598
_cell_length_c                    25.89427
_cell_angle_alpha                 90.013611
_cell_angle_beta                  89.961311
_cell_angle_gamma                 90.032469
_cell_volume                      15431.87309

loop_
_atom_site_label
_atom_site_type_symbol
_atom_type_description
_atom_site_fract_x
_atom_site_fract_y
_atom_site_fract_z
_atom_type_partial_charge
C1    C     C_R   0.228560 0.271686 0.248569 -0.136206
C2    C     C_R   0.233452 0.723961 0.243157 -0.113038
C3    C     C_R   0.394860 0.105089 0.749996 0.843770
C4    C     C_R   0.894882 0.394942 0.249966 0.843425
C5    C     C_R   0.105130 0.605108 0.750004 0.843503
C6    C     C_R   0.394871 0.105191 0.249933 0.845146
C7    C     C_R   0.605213 0.894951 0.749901 0.843875
C8    C     C_R   0.894982 0.605115 0.749949 0.843546
C9    C     C_R   0.105080 0.394955 0.249932 0.841616
C10   C     C_R   0.394797 0.894982 0.749906 0.843588
C11   C     C_R   0.605028 0.105196 0.249872 0.844014
C12   C     C_R   0.105114 0.394943 0.750014 0.843733
C13   C     C_R   0.730769 0.773271 0.747819 -0.132261
C14   C     C_R   0.894890 0.605126 0.249997 0.842434
C15   C     C_R   0.605189 0.105120 0.749948 0.843511
C16   C     C_R   0.394967 0.894805 0.249889 0.840658
C17   C     C_R   0.201555 0.286552 0.202151 0.494540
C18   C     C_R   0.828650 0.743465 0.758362 0.492646
C19   C     C_R   0.289923 0.796147 0.198848 0.505254
C20   C     C_R   0.741179 0.176156 0.765745 0.460124
C21   C     C_R   0.800226 0.715718 0.202819 0.506658
C22   C     C_R   0.172749 0.257429 0.761144 0.492412
C23   C     C_R   0.718172 0.197139 0.203239 0.490219
C24   C     C_R   0.271376 0.229044 0.248210 -0.127258
C25   C     C_R   0.256869 0.827494 0.760742 0.470369
C26   C     C_R   0.797168 0.286611 0.796473 0.505731
C27   C     C_R   0.180006 0.737595 0.226443 0.464808
C28   C     C_R   0.724114 0.807681 0.791572 0.489633
C29   C     C_R   0.259925 0.176109 0.228455 0.487971
C30   C     C_R   0.194979 0.721346 0.793443 0.493093
C31   C     C_R   0.824595 0.259047 0.234930 0.490287
C32   C     C_R   0.278323 0.194634 0.793302 0.490994
C33   C     C_R   0.741861 0.825344 0.234491 0.484522
C34   C     C_R   0.695416 0.779677 0.704715 0.490339
C35   C     C_R   0.227278 0.730034 0.748622 -0.134003
C36   C     C_R   0.324200 0.240825 0.268049 0.470454
C37   C     C_R   0.783016 0.301125 0.703867 0.505812
C38   C     C_R   0.244336 0.670515 0.261671 0.475680
C39   C     C_R   0.304304 0.219859 0.704912 0.489840
C40   C     C_R   0.674703 0.758030 0.264316 0.460814
C41   C     C_R   0.218275 0.697412 0.704070 0.496110
C42   C     C_R   0.756745 0.328188 0.260212 0.491981
C43   C     C_R   0.302889 0.779399 0.291322 0.472573
C44   C     C_R   0.673366 0.242621 0.735697 0.484643
C45   C     C_R   0.214418 0.298349 0.295431 0.502632
C46   C     C_R   0.769646 0.273244 0.247042 -0.136948
C47   C     C_R   0.758496 0.674743 0.738140 0.493063
C48   C     C_R   0.694096 0.222429 0.292117 0.491049
C49   C     C_R   0.325120 0.758524 0.736263 0.491913
C50   C     C_R   0.784685 0.701331 0.295244 0.504818
C51   C     C_R   0.241857 0.325804 0.736930 0.490658
C52   C     C_R   0.159473 0.325038 0.203759 -0.310526
C53   C     C_R   0.867440 0.701759 0.761245 -0.306789
C54   C     C_R   0.326694 0.839726 0.202007 -0.310325
C55   C     C_R   0.700537 0.135969 0.766873 -0.295234
C56   C     C_R   0.841927 0.676727 0.204392 -0.305212
C57   C     C_R   0.270390 0.227747 0.748854 -0.133328
C58   C     C_R   0.133737 0.298940 0.763656 -0.306753
C59   C     C_R   0.679850 0.154939 0.205514 -0.308491
C60   C     C_R   0.298304 0.866691 0.762888 -0.298048
C61   C     C_R   0.839772 0.324628 0.795587 -0.301881
C62   C     C_R   0.138783 0.698052 0.227648 -0.305537
C63   C     C_R   0.684272 0.848483 0.790831 -0.305656
C64   C     C_R   0.301237 0.136748 0.227843 -0.303844
C65   C     C_R   0.153996 0.681641 0.792656 -0.304675
C66   C     C_R   0.864589 0.299735 0.234091 -0.304314
C67   C     C_R   0.317710 0.153391 0.792309 -0.304408
C68   C     C_R   0.728697 0.771223 0.248745 -0.103939
C69   C     C_R   0.700527 0.865000 0.233151 -0.322985
C70   C     C_R   0.653350 0.818138 0.706866 -0.307346
C71   C     C_R   0.363562 0.199561 0.269995 -0.298618
C72   C     C_R   0.822541 0.342360 0.705011 -0.304621
C73   C     C_R   0.201735 0.632663 0.265222 -0.301064
C74   C     C_R   0.346107 0.181135 0.706744 -0.309156
C75   C     C_R   0.634991 0.799069 0.265928 -0.295956
C76   C     C_R   0.180093 0.655063 0.706054 -0.309076
C77   C     C_R   0.798597 0.366827 0.263277 -0.306779
C78   C     C_R   0.342660 0.820384 0.292453 -0.302758
C79   C     C_R   0.147409 0.352838 0.249510 -0.147217
C80   C     C_R   0.634174 0.200850 0.733876 -0.322784
C81   C     C_R   0.175827 0.340365 0.294756 -0.306019
C82   C     C_R   0.799199 0.634810 0.736722 -0.303894
C83   C     C_R   0.653216 0.182645 0.291608 -0.305287
C84   C     C_R   0.364886 0.799455 0.734954 -0.303938
C85   C     C_R   0.823298 0.659294 0.294789 -0.301343
C86   C     C_R   0.200856 0.365436 0.735463 -0.303463
C87   C     C_3   0.260514 0.282250 0.132749 0.127012
C88   C     C_3   0.250272 0.338034 0.107158 -0.415196
C89   C     C_3   0.301611 0.358866 0.079843 -0.962596
C90   C     C_R   0.853235 0.647822 0.749369 -0.148203
C91   C     C_3   0.853111 0.828391 0.726990 0.114923
C92   C     C_3   0.907787 0.815120 0.700406 -0.401651
C93   C     C_3   0.920688 0.856266 0.657761 -0.949025
C94   C     C_3   0.285586 0.739536 0.127823 0.119963
C95   C     C_3   0.340821 0.751371 0.101706 -0.412720
C96   C     C_3   0.363070 0.700519 0.074646 -0.964868
C97   C     C_3   0.828307 0.153028 0.742106 0.060844
C98   C     C_3   0.881795 0.128739 0.762368 -0.278725
C99   C     C_3   0.923121 0.120197 0.718797 -0.989805
C100  C     C_3   0.744078 0.724193 0.131742 0.108979
C101  C     C_R   0.353893 0.851280 0.248253 -0.143364
C102  C     C_3   0.753442 0.668043 0.106398 -0.415086
C103  C     C_3   0.702430 0.648829 0.077588 -0.961848
C104  C     C_3   0.147943 0.171342 0.733000 0.115581
C105  C     C_3   0.092200 0.183056 0.707857 -0.402878
C106  C     C_3   0.078480 0.140494 0.666698 -0.947662
C107  C     C_3   0.734996 0.243969 0.127462 0.126152
C108  C     C_3   0.682454 0.230479 0.097421 -0.409388
C109  C     C_3   0.670995 0.273529 0.056140 -0.959657
C110  C     C_3   0.172509 0.850473 0.729214 0.072532
C111  C     C_3   0.118550 0.878160 0.743746 -0.281414
C112  C     C_R   0.773147 0.730098 0.747844 -0.137591
C113  C     C_R   0.647322 0.147810 0.750099 -0.140596
C114  C     C_3   0.080964 0.883944 0.696948 -0.994452
C115  C     C_3   0.735991 0.284261 0.863727 0.093795
C116  C     C_3   0.750588 0.325368 0.906157 -0.352793
C117  C     C_3   0.699210 0.351366 0.929149 -0.978419
C118  C     C_3   0.151850 0.824056 0.246036 0.067329
C119  C     C_3   0.132051 0.877792 0.222344 -0.269720
C120  C     C_3   0.115318 0.918824 0.263908 -0.996604
C121  C     C_3   0.745709 0.763293 0.867555 0.116833
C122  C     C_3   0.696185 0.778273 0.901258 -0.390950
C123  C     C_3   0.688831 0.737530 0.945387 -0.961170
C124  C     C_R   0.852580 0.647456 0.249719 -0.148839
C125  C     C_3   0.169580 0.151052 0.240346 0.116241
C126  C     C_3   0.177360 0.093751 0.263662 -0.404933
C127  C     C_3   0.126432 0.075390 0.293182 -0.948881
C128  C     C_3   0.242559 0.740450 0.868272 0.112815
C129  C     C_3   0.228916 0.690041 0.901249 -0.389650
C130  C     C_3   0.271961 0.681031 0.943090 -0.960934
C131  C     C_3   0.845190 0.170938 0.260786 0.119321
C132  C     C_3   0.899552 0.180149 0.289249 -0.406595
C133  C     C_3   0.910309 0.134710 0.328394 -0.947278
C134  C     C_3   0.259229 0.242091 0.868314 0.117339
C135  C     C_R   0.147211 0.352523 0.749770 -0.148879
C136  C     C_3   0.310380 0.229083 0.900487 -0.393161
C137  C     C_3   0.319487 0.272094 0.942380 -0.958746
C138  C     C_3   0.818705 0.875743 0.255596 0.053528
C139  C     C_3   0.837180 0.927388 0.227029 -0.293585
C140  C     C_3   0.864169 0.968298 0.263653 -0.981997
C141  C     C_3   0.739438 0.759524 0.628132 0.124909
C142  C     C_3   0.725172 0.811055 0.596908 -0.408877
C143  C     C_3   0.766637 0.820679 0.553743 -0.958076
C144  C     C_3   0.350638 0.328320 0.249075 0.071584
C145  C     C_3   0.377289 0.379136 0.272623 -0.282338
C146  C     C_R   0.646724 0.148118 0.249048 -0.151773
C147  C     C_3   0.390411 0.421858 0.231369 -0.991159
C148  C     C_3   0.773912 0.244225 0.633298 0.109940
C149  C     C_3   0.830397 0.252471 0.608178 -0.416500
C150  C     C_3   0.849255 0.200647 0.580482 -0.961263
C151  C     C_3   0.329700 0.640943 0.238644 0.068747
C152  C     C_3   0.377629 0.607197 0.259255 -0.287796
C153  C     C_3   0.417020 0.591113 0.216022 -0.991516
C154  C     C_3   0.258240 0.237540 0.628978 0.127429
C155  C     C_3   0.271760 0.184974 0.598974 -0.408665
C156  C     C_3   0.229552 0.174269 0.556764 -0.963961
C157  C     C_R   0.352081 0.853072 0.749421 -0.148832
C158  C     C_3   0.649535 0.671782 0.239856 0.061200
C159  C     C_3   0.621604 0.619799 0.259515 -0.280904
C160  C     C_3   0.610315 0.579728 0.215501 -0.988900
C161  C     C_3   0.231902 0.749575 0.630862 0.127505
C162  C     C_3   0.176646 0.740278 0.603812 -0.417100
C163  C     C_3   0.159498 0.790856 0.573280 -0.973898
C164  C     C_3   0.670530 0.353635 0.232908 0.114845
C165  C     C_3   0.682877 0.409195 0.207645 -0.402846
C166  C     C_3   0.639973 0.423673 0.167065 -0.947516
C167  C     C_3   0.246531 0.771646 0.361184 0.070976
C168  C     C_R   0.852046 0.353106 0.750186 -0.148482
C169  C     C_3   0.233980 0.736736 0.408705 -0.265172
C170  C     C_3   0.180935 0.754821 0.434841 -1.015407
C171  C     C_3   0.621859 0.318742 0.756611 0.053173
C172  C     C_3   0.570183 0.336411 0.727677 -0.292351
C173  C     C_3   0.528470 0.362557 0.764062 -0.979829
C174  C     C_3   0.221336 0.239543 0.364822 0.108127
C175  C     C_3   0.164740 0.248245 0.389461 -0.404471
C176  C     C_3   0.146737 0.197947 0.420012 -0.951914
C177  C     C_3   0.672001 0.655241 0.769267 0.119372
C178  C     C_3   0.684888 0.603833 0.801176 -0.407813
C179  C     C_R   0.149097 0.645958 0.247881 -0.144273
C180  C     C_3   0.642043 0.594759 0.843252 -0.947977
C181  C     C_3   0.742500 0.241449 0.366567 0.117933
C182  C     C_3   0.730270 0.190032 0.398642 -0.395267
C183  C     C_3   0.774106 0.180918 0.439715 -0.960171
C184  C     C_3   0.346056 0.670670 0.762450 0.115190
C185  C     C_3   0.399477 0.681576 0.792022 -0.405193
C186  C     C_3   0.410253 0.637011 0.832038 -0.947363
C187  C     C_3   0.781336 0.762208 0.362665 0.093396
C188  C     C_3   0.820278 0.747534 0.406804 -0.349601
C189  C     C_3   0.845687 0.798800 0.430567 -0.979825
C190  C     C_R   0.648125 0.853167 0.749252 -0.153066
C191  C     C_3   0.329646 0.346489 0.763895 0.120207
C192  C     C_3   0.319497 0.400110 0.793306 -0.406937
C193  C     C_3   0.364373 0.410566 0.833114 -0.948529
C194  C     C_R   0.352579 0.147712 0.249496 -0.152763
C195  C     C_R   0.147213 0.647679 0.749688 -0.152584
C196  C     C_R   0.276574 0.766384 0.244140 -0.119158
C197  C     C_R   0.852119 0.353174 0.249267 -0.149013
C198  C     C_R   0.352310 0.147164 0.749718 -0.152029
C199  C     C_R   0.647400 0.852299 0.249573 -0.140577
C200  C     C_R   0.039519 0.593394 0.446249 -0.143744
C201  C     C_R   0.960926 0.406570 0.553825 -0.145227
C202  C     C_R   0.593070 0.959826 0.446234 -0.143597
C203  C     C_R   0.407044 0.040273 0.553895 -0.147171
C204  C     C_R   0.960931 0.406536 0.446302 -0.145359
C205  C     C_R   0.039748 0.593326 0.553770 -0.145149
C206  C     C_R   0.406986 0.040255 0.446381 -0.144656
C207  C     C_R   0.727504 0.230020 0.750260 -0.104277
C208  C     C_R   0.592980 0.959702 0.553749 -0.146812
C209  C     C_R   0.537810 0.094054 0.946293 -0.143987
C210  C     C_R   0.462930 0.905740 0.053812 -0.145753
C211  C     C_R   0.094265 0.462898 0.946205 -0.145096
C212  C     C_R   0.905785 0.537305 0.053886 -0.145929
C213  C     C_R   0.462746 0.905799 0.946270 -0.145142
C214  C     C_R   0.538015 0.093928 0.053829 -0.147033
C215  C     C_R   0.905739 0.537215 0.946344 -0.145631
C216  C     C_R   0.094222 0.462812 0.053746 -0.145491
C217  C     C_R   0.059049 0.638788 0.473187 -0.139616
C218  C     C_R   0.771732 0.728906 0.248814 -0.107315
C219  C     C_R   0.941814 0.361001 0.526907 -0.147117
C220  C     C_R   0.638323 0.940029 0.473174 -0.136919
C221  C     C_R   0.361769 0.060039 0.527022 -0.149813
C222  C     C_R   0.941823 0.360983 0.473272 -0.138173
C223  C     C_R   0.059187 0.638749 0.526820 -0.149826
C224  C     C_R   0.361729 0.060031 0.473393 -0.137543
C225  C     C_R   0.638265 0.939962 0.526804 -0.148959
C226  C     C_R   0.556471 0.139791 0.973272 -0.136480
C227  C     C_R   0.444878 0.859756 0.026875 -0.149581
C228  C     C_R   0.140209 0.444748 0.973136 -0.138009
C229  C     C_R   0.227841 0.270747 0.748769 -0.137088
C230  C     C_R   0.859853 0.555506 0.026985 -0.148041
C231  C     C_R   0.444735 0.859799 0.973237 -0.138236
C232  C     C_R   0.556586 0.139716 0.026911 -0.149105
C233  C     C_R   0.859827 0.555449 0.973344 -0.137803
C234  C     C_R   0.140190 0.444710 0.026777 -0.147968
C235  C     C_R   0.519433 0.046636 0.027291 0.074899
C236  C     C_R   0.480912 0.953269 0.972771 0.072876
C237  C     C_R   0.046753 0.480957 0.027252 0.075054
C238  C     C_R   0.953217 0.519069 0.972807 0.072686
C239  C     C_R   0.480976 0.953244 0.027284 0.075154
C240  C     C_R   0.726511 0.230825 0.247249 -0.133070
C241  C     C_R   0.519355 0.046681 0.972778 0.072109
C242  C     C_R   0.953228 0.519088 0.027322 0.075009
C243  C     C_R   0.046767 0.480990 0.972738 0.072782
C244  C     C_R   0.020317 0.546333 0.527268 0.074623
C245  C     C_R   0.979991 0.453677 0.472784 0.072868
C246  C     C_R   0.546126 0.979394 0.527257 0.074864
C247  C     C_R   0.453892 0.020604 0.472819 0.072512
C248  C     C_R   0.980008 0.453685 0.527293 0.075124
C249  C     C_R   0.020235 0.546353 0.472757 0.072290
C250  C     C_R   0.453906 0.020604 0.527329 0.075063
C251  C     C_R   0.270259 0.772491 0.748576 -0.132265
C252  C     C_R   0.546152 0.979438 0.472746 0.072280
C253  C     C_R   0.999987 0.499996 0.110144 0.789223
C254  C     C_R   0.999989 0.500006 0.889871 0.787735
C255  C     C_R   0.500024 0.000001 0.110139 0.790199
C256  C     C_R   0.499990 0.000034 0.889877 0.788192
C257  C     C_R   0.500010 0.999995 0.610144 0.789567
C258  C     C_R   0.500008 0.000006 0.389875 0.787327
C259  C     C_R   0.000023 0.500057 0.610135 0.789218
C260  C     C_R   0.999991 0.500032 0.389877 0.787675
C261  C     C_R   0.500101 0.999978 0.054058 -0.156996
C262  C     C_R   0.769532 0.273329 0.750149 -0.107396
C263  C     C_R   0.499999 0.000031 0.945983 -0.157933
C264  C     C_R   0.999982 0.499998 0.054060 -0.156308
C265  C     C_R   0.999988 0.500019 0.945980 -0.157267
C266  C     C_R   0.000091 0.500041 0.554053 -0.157232
C267  C     C_R   0.000005 0.500050 0.445982 -0.158126
C268  C     C_R   0.500011 0.999988 0.554062 -0.157815
C269  C     C_R   0.500020 0.000022 0.445986 -0.158593
C270  C     C_R   0.105332 0.604979 0.249767 0.843393
C271  C     C_R   0.894819 0.394969 0.750045 0.841585
C272  C     C_R   0.605091 0.894778 0.249885 0.843491
H1    H     H_    0.927328 0.325368 0.452437 0.132872
H2    H     H_    0.570753 0.175413 0.047804 0.135148
H3    H     H_    0.147897 0.128364 0.747064 0.181099
H4    H     H_    0.181564 0.173798 0.704244 0.102968
H5    H     H_    0.059657 0.182640 0.737913 0.242456
H6    H     H_    0.092849 0.224137 0.689443 0.210452
H7    H     H_    0.110388 0.140334 0.636100 0.261196
H8    H     H_    0.038384 0.150534 0.648813 0.269959
H9    H     H_    0.075698 0.099072 0.684239 0.266834
H10   H     H_    0.768645 0.250559 0.099225 0.184303
H11   H     H_    0.730873 0.283118 0.148795 0.103243
H12   H     H_    0.686768 0.189792 0.078591 0.244223
H13   H     H_    0.823949 0.569265 0.952528 0.133408
H14   H     H_    0.647026 0.228902 0.124349 0.205448
H15   H     H_    0.666139 0.314537 0.074116 0.263924
H16   H     H_    0.632645 0.263041 0.035319 0.259545
H17   H     H_    0.705168 0.274890 0.027821 0.275543
H18   H     H_    0.162563 0.810116 0.711779 0.140990
H19   H     H_    0.194156 0.876642 0.700338 0.116751
H20   H     H_    0.097327 0.853370 0.773717 0.243254
H21   H     H_    0.127108 0.919417 0.760014 0.223405
H22   H     H_    0.100990 0.909218 0.666667 0.264706
H23   H     H_    0.042208 0.904213 0.708746 0.275784
H24   H     H_    0.176082 0.430972 0.047613 0.133647
H25   H     H_    0.070981 0.842996 0.680747 0.268973
H26   H     H_    0.711622 0.250508 0.881094 0.167035
H27   H     H_    0.708885 0.304246 0.834605 0.104969
H28   H     H_    0.773724 0.304139 0.937219 0.235231
H29   H     H_    0.776963 0.358225 0.889895 0.217279
H30   H     H_    0.677138 0.375306 0.899203 0.263243
H31   H     H_    0.710894 0.379376 0.961089 0.272706
H32   H     H_    0.671415 0.319317 0.944666 0.266894
H33   H     H_    0.187226 0.833293 0.271643 0.121280
H34   H     H_    0.117810 0.805971 0.269235 0.123247
H35   H     H_    0.570574 0.175572 0.952450 0.129822
H36   H     H_    0.165409 0.895874 0.198550 0.239636
H37   H     H_    0.096367 0.869564 0.196834 0.227922
H38   H     H_    0.081504 0.901933 0.287828 0.266223
H39   H     H_    0.100952 0.957201 0.245348 0.277700
H40   H     H_    0.150801 0.928609 0.289133 0.263622
H41   H     H_    0.781635 0.756765 0.893140 0.186846
H42   H     H_    0.738966 0.723715 0.847469 0.101534
H43   H     H_    0.702037 0.819923 0.917695 0.244757
H44   H     H_    0.658425 0.778345 0.877309 0.206744
H45   H     H_    0.683641 0.695405 0.930015 0.262719
H46   H     H_    0.431362 0.823796 0.047737 0.134577
H47   H     H_    0.651876 0.748496 0.968175 0.267364
H48   H     H_    0.725029 0.738557 0.971359 0.269758
H49   H     H_    0.129948 0.151787 0.219284 0.186273
H50   H     H_    0.165947 0.182512 0.271087 0.103331
H51   H     H_    0.185888 0.063780 0.232357 0.244491
H52   H     H_    0.212768 0.094181 0.290614 0.205517
H53   H     H_    0.115543 0.105829 0.323294 0.261019
H54   H     H_    0.134479 0.035438 0.312158 0.269676
H55   H     H_    0.091308 0.070511 0.266310 0.269151
H56   H     H_    0.250394 0.775606 0.894494 0.185948
H57   H     H_    0.176111 0.430996 0.952269 0.132954
H58   H     H_    0.281183 0.734189 0.846425 0.101865
H59   H     H_    0.188255 0.695701 0.919854 0.244628
H60   H     H_    0.227153 0.653057 0.876295 0.206457
H61   H     H_    0.313109 0.675723 0.925493 0.262502
H62   H     H_    0.261732 0.643643 0.965520 0.267170
H63   H     H_    0.272903 0.716532 0.969915 0.269248
H64   H     H_    0.845069 0.128662 0.244908 0.181876
H65   H     H_    0.810077 0.172825 0.287957 0.102807
H66   H     H_    0.933728 0.181181 0.260871 0.241012
H67   H     H_    0.898358 0.220003 0.309939 0.206904
H68   H     H_    0.823998 0.569347 0.047876 0.134086
H69   H     H_    0.876421 0.132589 0.356946 0.261661
H70   H     H_    0.949162 0.143170 0.349215 0.267058
H71   H     H_    0.914027 0.094570 0.308489 0.269207
H72   H     H_    0.224384 0.249224 0.895105 0.186443
H73   H     H_    0.264542 0.280909 0.846625 0.101359
H74   H     H_    0.305582 0.188290 0.918992 0.244838
H75   H     H_    0.346994 0.227970 0.874981 0.206378
H76   H     H_    0.323837 0.313372 0.924885 0.262119
H77   H     H_    0.357449 0.262407 0.964139 0.267151
H78   H     H_    0.284461 0.272363 0.969800 0.269348
H79   H     H_    0.137596 0.334699 0.168507 0.187290
H80   H     H_    0.855283 0.855646 0.272694 0.156796
H81   H     H_    0.791539 0.887490 0.288574 0.107985
H82   H     H_    0.866864 0.916006 0.196273 0.240355
H83   H     H_    0.801250 0.947173 0.208490 0.218520
H84   H     H_    0.834781 0.981215 0.294083 0.262453
H85   H     H_    0.877231 0.005126 0.241693 0.269224
H86   H     H_    0.900804 0.949739 0.282094 0.266561
H87   H     H_    0.744676 0.724863 0.600777 0.184876
H88   H     H_    0.779442 0.764108 0.647919 0.103381
H89   H     H_    0.683702 0.806428 0.579726 0.245116
H90   H     H_    0.909297 0.712017 0.771327 0.188199
H91   H     H_    0.724987 0.847424 0.622704 0.204929
H92   H     H_    0.808431 0.825618 0.570018 0.263624
H93   H     H_    0.755749 0.858458 0.532231 0.259244
H94   H     H_    0.766432 0.785641 0.526378 0.276489
H95   H     H_    0.312837 0.341546 0.228728 0.138873
H96   H     H_    0.379884 0.309806 0.220877 0.117289
H97   H     H_    0.349037 0.397481 0.301539 0.241339
H98   H     H_    0.415756 0.367184 0.292617 0.225308
H99   H     H_    0.419328 0.404739 0.202427 0.264742
H100  H     H_    0.409669 0.458194 0.249707 0.274657
H101  H     H_    0.335373 0.863405 0.167557 0.187116
H102  H     H_    0.352314 0.435138 0.211536 0.267764
H103  H     H_    0.744125 0.234122 0.602304 0.179469
H104  H     H_    0.774080 0.208296 0.659453 0.096890
H105  H     H_    0.828214 0.286764 0.580039 0.236084
H106  H     H_    0.861399 0.262789 0.638004 0.209986
H107  H     H_    0.853966 0.166580 0.608574 0.264093
H108  H     H_    0.889434 0.208216 0.561639 0.266084
H109  H     H_    0.819157 0.188563 0.550460 0.270652
H110  H     H_    0.346497 0.678585 0.220408 0.142107
H111  H     H_    0.307692 0.615936 0.209058 0.116202
H112  H     H_    0.074024 0.674222 0.547662 0.134917
H113  H     H_    0.711020 0.095150 0.779944 0.191237
H114  H     H_    0.400248 0.631472 0.288666 0.239752
H115  H     H_    0.361686 0.569455 0.278010 0.224929
H116  H     H_    0.395583 0.565627 0.186782 0.267771
H117  H     H_    0.451498 0.567019 0.232311 0.271917
H118  H     H_    0.433934 0.628265 0.197041 0.267683
H119  H     H_    0.252279 0.271277 0.600763 0.185564
H120  H     H_    0.218758 0.233618 0.649854 0.103301
H121  H     H_    0.312956 0.188855 0.581007 0.243535
H122  H     H_    0.272188 0.149419 0.625741 0.205233
H123  H     H_    0.188018 0.169973 0.573839 0.264682
H124  H     H_    0.864818 0.668084 0.169449 0.187886
H125  H     H_    0.239936 0.135875 0.535981 0.260431
H126  H     H_    0.229509 0.208584 0.528634 0.269107
H127  H     H_    0.688332 0.659631 0.220531 0.137702
H128  H     H_    0.621765 0.691973 0.211393 0.120453
H129  H     H_    0.648381 0.599571 0.288515 0.239650
H130  H     H_    0.582250 0.630757 0.278516 0.226168
H131  H     H_    0.582754 0.598705 0.186455 0.266147
H132  H     H_    0.590186 0.542400 0.231026 0.274051
H133  H     H_    0.649267 0.567548 0.196473 0.268339
H134  H     H_    0.263349 0.757212 0.600677 0.178166
H135  H     H_    0.092242 0.288735 0.775075 0.189255
H136  H     H_    0.230936 0.787227 0.654730 0.098621
H137  H     H_    0.180028 0.704703 0.577214 0.236032
H138  H     H_    0.144176 0.731412 0.632692 0.212035
H139  H     H_    0.152882 0.826002 0.599820 0.265646
H140  H     H_    0.120658 0.782361 0.552445 0.268971
H141  H     H_    0.191565 0.801885 0.544681 0.272761
H142  H     H_    0.627687 0.354320 0.247406 0.180778
H143  H     H_    0.672138 0.319998 0.204158 0.103405
H144  H     H_    0.683443 0.441681 0.237725 0.242455
H145  H     H_    0.723707 0.407896 0.188699 0.209883
H146  H     H_    0.675214 0.128193 0.172396 0.191654
H147  H     H_    0.638743 0.391782 0.136503 0.260588
H148  H     H_    0.650529 0.463552 0.149000 0.268955
H149  H     H_    0.598854 0.427218 0.185175 0.266549
H150  H     H_    0.209986 0.770519 0.335623 0.115993
H151  H     H_    0.254409 0.814633 0.373618 0.125017
H152  H     H_    0.229881 0.693125 0.396929 0.243784
H153  H     H_    0.268356 0.740062 0.436670 0.224080
H154  H     H_    0.183922 0.798337 0.447007 0.268353
H155  H     H_    0.173379 0.729050 0.469449 0.278179
H156  H     H_    0.145777 0.750000 0.407990 0.261667
H157  H     H_    0.287968 0.908295 0.773718 0.190353
H158  H     H_    0.641266 0.355618 0.773895 0.157852
H159  H     H_    0.610223 0.291409 0.789486 0.108023
H160  H     H_    0.581397 0.366375 0.697128 0.241499
H161  H     H_    0.551143 0.300235 0.708836 0.218415
H162  H     H_    0.515686 0.332844 0.794243 0.261656
H163  H     H_    0.491656 0.375103 0.741843 0.269829
H164  H     H_    0.546283 0.399394 0.782837 0.267373
H165  H     H_    0.250633 0.228193 0.395837 0.179699
H166  H     H_    0.220776 0.204320 0.337768 0.106344
H167  H     H_    0.166258 0.284210 0.415740 0.240292
H168  H     H_    0.861840 0.333372 0.830939 0.183919
H169  H     H_    0.133803 0.256256 0.358939 0.210211
H170  H     H_    0.144526 0.161631 0.394352 0.261733
H171  H     H_    0.105608 0.205251 0.437014 0.268879
H172  H     H_    0.176071 0.189456 0.451697 0.268263
H173  H     H_    0.629003 0.652334 0.755487 0.183166
H174  H     H_    0.673723 0.692573 0.793624 0.103562
H175  H     H_    0.685818 0.567441 0.775398 0.241970
H176  H     H_    0.725687 0.608243 0.819738 0.206515
H177  H     H_    0.639921 0.630936 0.869147 0.261326
H178  H     H_    0.653277 0.558296 0.866562 0.266180
H179  H     H_    0.098309 0.708692 0.213727 0.192086
H180  H     H_    0.601111 0.587656 0.825745 0.267957
H181  H     H_    0.749784 0.276172 0.393435 0.185642
H182  H     H_    0.781074 0.236554 0.344362 0.101614
H183  H     H_    0.689786 0.194495 0.417869 0.243856
H184  H     H_    0.728857 0.153589 0.372969 0.207009
H185  H     H_    0.815040 0.176588 0.421450 0.262971
H186  H     H_    0.764812 0.142976 0.461672 0.267329
H187  H     H_    0.774935 0.215963 0.467060 0.268211
H188  H     H_    0.347613 0.628379 0.746695 0.182999
H189  H     H_    0.310274 0.671528 0.788877 0.103439
H190  H     H_    0.680872 0.875755 0.823695 0.193030
H191  H     H_    0.434333 0.683011 0.764408 0.241393
H192  H     H_    0.396862 0.721651 0.812204 0.206423
H193  H     H_    0.375724 0.634614 0.859884 0.261047
H194  H     H_    0.448387 0.646655 0.853569 0.266074
H195  H     H_    0.415329 0.596658 0.812806 0.268391
H196  H     H_    0.747123 0.787130 0.378449 0.166700
H197  H     H_    0.803064 0.788779 0.334153 0.103360
H198  H     H_    0.797380 0.724775 0.437095 0.235031
H199  H     H_    0.853598 0.720782 0.392020 0.217049
H200  H     H_    0.871190 0.820519 0.401504 0.262907
H201  H     H_    0.292568 0.097017 0.211081 0.193197
H202  H     H_    0.872102 0.787068 0.463658 0.273319
H203  H     H_    0.813192 0.826906 0.444660 0.267559
H204  H     H_    0.372092 0.347255 0.748377 0.181646
H205  H     H_    0.327934 0.310817 0.790362 0.103039
H206  H     H_    0.318428 0.434840 0.765583 0.241263
H207  H     H_    0.279396 0.398018 0.813555 0.206752
H208  H     H_    0.366508 0.376134 0.861030 0.261802
H209  H     H_    0.355260 0.448864 0.854587 0.266668
H210  H     H_    0.404723 0.415141 0.813698 0.269607
H211  H     H_    0.128160 0.676683 0.826384 0.191042
H212  H     H_    0.326314 0.075027 0.452600 0.131632
H213  H     H_    0.905998 0.288976 0.222888 0.189261
H214  H     H_    0.322061 0.127041 0.825722 0.192467
H215  H     H_    0.710424 0.906129 0.220601 0.181718
H216  H     H_    0.625400 0.821297 0.674506 0.193509
H217  H     H_    0.403303 0.208698 0.286523 0.194388
H218  H     H_    0.831458 0.364738 0.669850 0.187963
H219  H     H_    0.210319 0.592331 0.280659 0.192047
H220  H     H_    0.372972 0.176819 0.673655 0.191775
H221  H     H_    0.594072 0.788879 0.279050 0.191510
H222  H     H_    0.174779 0.629214 0.672397 0.193391
H223  H     H_    0.673618 0.924975 0.547677 0.135150
H224  H     H_    0.788718 0.408178 0.275297 0.189687
H225  H     H_    0.363721 0.828970 0.328385 0.187290
H226  H     H_    0.593039 0.210317 0.721068 0.181930
H227  H     H_    0.166712 0.361976 0.330299 0.186947
H228  H     H_    0.788011 0.593015 0.727350 0.189132
H229  H     H_    0.627423 0.177881 0.325392 0.191848
H230  H     H_    0.406353 0.788792 0.723861 0.189338
H231  H     H_    0.831860 0.637355 0.330244 0.183821
H232  H     H_    0.211503 0.406919 0.724455 0.189239
H233  H     H_    0.039418 0.595912 0.404554 0.129430
H234  H     H_    0.073760 0.674296 0.452330 0.137501
H235  H     H_    0.960947 0.404090 0.595524 0.126977
H236  H     H_    0.595630 0.959907 0.404541 0.129444
H237  H     H_    0.404524 0.040248 0.595590 0.128548
H238  H     H_    0.960951 0.404037 0.404603 0.128829
H239  H     H_    0.039837 0.595789 0.595470 0.127773
H240  H     H_    0.404436 0.040219 0.404690 0.129719
H241  H     H_    0.595482 0.959681 0.595442 0.128526
H242  H     H_    0.537743 0.096531 0.904591 0.127843
H243  H     H_    0.463004 0.903290 0.095518 0.125638
H244  H     H_    0.096702 0.462924 0.904498 0.127627
H245  H     H_    0.927336 0.325399 0.547779 0.133409
H246  H     H_    0.903381 0.537355 0.095595 0.125876
H247  H     H_    0.462668 0.903401 0.904563 0.127853
H248  H     H_    0.538121 0.096320 0.095536 0.127090
H249  H     H_    0.903302 0.537191 0.904640 0.127751
H250  H     H_    0.096630 0.462768 0.095452 0.125876
H251  H     H_    0.273637 0.252936 0.102352 0.178727
H252  H     H_    0.295109 0.284610 0.160420 0.093426
H253  H     H_    0.216477 0.334141 0.078641 0.236393
H254  H     H_    0.238169 0.368663 0.136750 0.211204
H255  H     H_    0.335382 0.364534 0.108107 0.264595
H256  H     H_    0.673746 0.925057 0.452326 0.129571
H257  H     H_    0.292783 0.398877 0.061260 0.265532
H258  H     H_    0.314800 0.329450 0.049596 0.271047
H259  H     H_    0.854195 0.871796 0.739812 0.180890
H260  H     H_    0.818454 0.825472 0.699435 0.103187
H261  H     H_    0.941350 0.815919 0.729397 0.242618
H262  H     H_    0.905922 0.773532 0.683088 0.209977
H263  H     H_    0.887747 0.856043 0.628199 0.260881
H264  H     H_    0.959991 0.845099 0.638877 0.269761
H265  H     H_    0.924679 0.898130 0.674137 0.265865
H266  H     H_    0.255993 0.726804 0.097527 0.177130
H267  H     H_    0.326411 0.074996 0.547952 0.135729
H268  H     H_    0.288893 0.704246 0.154584 0.094424
H269  H     H_    0.335564 0.784751 0.072962 0.235441
H270  H     H_    0.371322 0.764773 0.130908 0.211736
H271  H     H_    0.370403 0.667356 0.103195 0.264990
H272  H     H_    0.402454 0.710573 0.055351 0.265373
H273  H     H_    0.333665 0.685838 0.045034 0.271933
H274  H     H_    0.838380 0.192025 0.722165 0.136743
H275  H     H_    0.809826 0.123608 0.714084 0.120881
H276  H     H_    0.899827 0.156879 0.791540 0.240899
H277  H     H_    0.873247 0.088790 0.781315 0.225865
H278  H     H_    0.430990 0.823888 0.952402 0.133200
H279  H     H_    0.906323 0.091585 0.689439 0.264510
H280  H     H_    0.961466 0.102510 0.734706 0.276084
H281  H     H_    0.933071 0.159893 0.700017 0.268156
H282  H     H_    0.733805 0.754019 0.100846 0.179265
H283  H     H_    0.707930 0.723230 0.157678 0.096387
H284  H     H_    0.788341 0.670822 0.078924 0.236887
H285  H     H_    0.763433 0.636963 0.136237 0.209795
H286  H     H_    0.667633 0.643956 0.104905 0.264423
H287  H     H_    0.710700 0.608685 0.059001 0.265262
H288  H     H_    0.691019 0.678774 0.047216 0.272740
O1    O     O_3   0.000000 0.500000 0.250000 -0.486133
O2    O     O_R   1.000000 0.454520 0.865790 -0.637665
O3    O     O_R   0.545480 1.000000 0.134210 -0.638780
O4    O     O_R   0.454520 1.000000 0.865790 -0.638130
O5    O     O_R   0.500000 0.954520 0.634210 -0.638079
O6    O     O_R   0.500000 0.045480 0.365790 -0.638955
O7    O     O_R   0.954520 0.500000 0.634210 -0.637569
O8    O     O_R   0.045480 0.500000 0.365790 -0.638293
O9    O     O_R   0.500000 0.045480 0.634210 -0.638842
O10   O     O_R   0.500000 0.954520 0.365790 -0.637656
O11   O     O_R   0.045480 0.500000 0.634210 -0.638217
O12   O     O_3   0.000000 0.500000 0.750000 -0.486233
O13   O     O_R   0.954520 0.500000 0.365790 -0.638112
O14   O     O_R   0.063990 0.609460 0.219650 -0.640657
O15   O     O_R   0.936010 0.390540 0.780350 -0.642287
O16   O     O_R   0.609460 0.936010 0.219650 -0.641871
O17   O     O_R   0.390540 0.063990 0.780350 -0.643820
O18   O     O_R   0.936010 0.390540 0.219650 -0.640782
O19   O     O_R   0.063990 0.609460 0.780350 -0.643628
O20   O     O_R   0.390540 0.063990 0.219650 -0.642653
O21   O     O_R   0.609460 0.936010 0.780350 -0.644281
O22   O     O_R   0.936010 0.609460 0.780350 -0.644444
O23   O     O_3   0.500000 1.000000 0.250000 -0.485055
O24   O     O_R   0.063990 0.390540 0.219650 -0.645158
O25   O     O_R   0.390540 0.936010 0.780350 -0.644294
O26   O     O_R   0.609460 0.063990 0.219650 -0.648006
O27   O     O_R   0.063990 0.390540 0.780350 -0.644597
O28   O     O_R   0.936010 0.609460 0.219650 -0.643754
O29   O     O_R   0.609460 0.063990 0.780350 -0.644751
O30   O     O_R   0.390540 0.936010 0.219650 -0.645756
O31   O     O_R   0.563990 0.109460 0.719650 -0.641875
O32   O     O_R   0.436010 0.890540 0.280350 -0.640844
O33   O     O_R   0.109460 0.436010 0.719650 -0.640748
O34   O     O_3   0.500000 1.000000 0.750000 -0.484880
O35   O     O_R   0.890540 0.563990 0.280350 -0.642438
O36   O     O_R   0.436010 0.890540 0.719650 -0.640512
O37   O     O_R   0.563990 0.109460 0.280350 -0.643604
O38   O     O_R   0.890540 0.563990 0.719650 -0.639476
O39   O     O_R   0.109460 0.436010 0.280350 -0.641786
O40   O     O_R   0.436010 0.109460 0.280350 -0.646017
O41   O     O_R   0.563990 0.890540 0.719650 -0.647856
O42   O     O_R   0.890540 0.436010 0.280350 -0.645240
O43   O     O_R   0.109460 0.563990 0.719650 -0.647090
O44   O     O_R   0.563990 0.890540 0.280350 -0.644760
O45   O     O_R   0.000000 0.454520 0.134210 -0.637609
O46   O     O_R   0.436010 0.109460 0.719650 -0.648262
O47   O     O_R   0.109460 0.563990 0.280350 -0.646138
O48   O     O_R   0.890540 0.436010 0.719650 -0.643733
O49   O     O_3   0.212246 0.260914 0.155443 -0.591216
O50   O     O_3   0.845049 0.795977 0.771603 -0.590714
O51   O     O_3   0.264014 0.786821 0.152021 -0.593217
O52   O     O_3   0.792821 0.163122 0.784140 -0.592197
O53   O     O_3   0.791682 0.743762 0.156966 -0.594255
O54   O     O_3   0.157094 0.205304 0.776393 -0.590807
O55   O     O_3   0.751156 0.200170 0.159729 -0.592479
O56   O     O_R   0.000000 0.545480 0.865790 -0.638187
O57   O     O_3   0.204257 0.843202 0.774262 -0.587376
O58   O     O_3   0.784325 0.261115 0.842676 -0.597179
O59   O     O_3   0.168160 0.788509 0.205911 -0.588812
O60   O     O_3   0.759590 0.806252 0.833333 -0.591221
O61   O     O_3   0.210976 0.163660 0.203984 -0.592551
O62   O     O_3   0.198102 0.755335 0.836224 -0.591845
O63   O     O_3   0.839391 0.207082 0.218458 -0.591335
O64   O     O_3   0.244414 0.197639 0.836183 -0.590824
O65   O     O_3   0.794905 0.838603 0.219968 -0.596682
O66   O     O_3   0.696827 0.744822 0.662466 -0.591986
O67   O     O_R   0.454520 1.000000 0.134210 -0.637341
O68   O     O_3   0.337182 0.291349 0.289056 -0.588825
O69   O     O_3   0.754898 0.292310 0.658084 -0.593808
O70   O     O_3   0.295331 0.655597 0.280298 -0.590999
O71   O     O_3   0.301686 0.253409 0.661821 -0.592859
O72   O     O_3   0.661051 0.706359 0.282212 -0.592279
O73   O     O_3   0.248968 0.703078 0.659277 -0.592974
O74   O     O_3   0.704787 0.343916 0.275955 -0.591200
O75   O     O_3   0.292938 0.749874 0.335958 -0.588390
O76   O     O_3   0.659698 0.295540 0.721260 -0.596679
O77   O     O_3   0.241413 0.287984 0.341504 -0.592176
O78   O     O_R   0.545480 1.000000 0.865790 -0.637947
O79   O     O_3   0.705699 0.659153 0.724935 -0.590846
O80   O     O_3   0.697502 0.256119 0.335096 -0.591330
O81   O     O_3   0.339911 0.706514 0.719921 -0.593491
O82   O     O_3   0.758550 0.713917 0.341199 -0.596823
O83   O     O_3   0.293979 0.341058 0.721162 -0.591151
O84   O     O_R   0.000000 0.545480 0.134210 -0.637660
Zn1   Zn    Zn3+2 0.064970 0.500000 0.293390 0.959607
Zn2   Zn    Zn3+2 0.435030 1.000000 0.206610 0.960596
Zn3   Zn    Zn3+2 0.000000 0.435030 0.793390 0.960056
Zn4   Zn    Zn3+2 0.000000 0.564970 0.206610 0.962634
Zn5   Zn    Zn3+2 0.435030 0.000000 0.793390 0.960448
Zn6   Zn    Zn3+2 0.564970 1.000000 0.206610 0.958626
Zn7   Zn    Zn3+2 0.000000 0.564970 0.793390 0.959370
Zn8   Zn    Zn3+2 0.000000 0.435030 0.206610 0.960832
Zn9   Zn    Zn3+2 0.935030 0.500000 0.706610 0.962866
Zn10  Zn    Zn3+2 0.500000 0.935030 0.293390 0.961792
Zn11  Zn    Zn3+2 0.500000 0.064970 0.706610 0.958125
Zn12  Zn    Zn3+2 0.935030 0.500000 0.293390 0.959748
Zn13  Zn    Zn3+2 0.064970 0.500000 0.706610 0.960181
Zn14  Zn    Zn3+2 0.500000 0.064970 0.293390 0.959211
Zn15  Zn    Zn3+2 0.500000 0.935030 0.706610 0.960467
Zn16  Zn    Zn3+2 0.564970 0.000000 0.793390 0.960176

loop_
_geom_bond_atom_site_label_1
_geom_bond_atom_site_label_2
_ccdc_geom_bond_type
C254  O56   A    
C150  H108  S    
C126  C127  S    
O7    Zn9   S    
C134  H73   S    
C178  H176  S    
C214  C235  A    
C215  C233  A    
C9    O24   A    
C83   H229  S    
O23   Zn2   S    
C166  H148  S    
C245  C267  A    
C161  O73   S    
C253  O84   A    
C42   O74   S    
C99   H281  S    
C14   O35   A    
C13   C112  S    
O2    Zn3   S    
C162  H138  S    
C177  O79   S    
O27   Zn3   S    
C75   H221  S    
C20   C55   A    
C100  H282  S    
C126  H52   S    
C216  C234  A    
C189  H202  S    
C115  H27   S    
C39   C74   A    
C110  C111  S    
C86   H232  S    
C177  H174  S    
O48   Zn9   S    
C89   H255  S    
C183  H186  S    
C12   C135  S    
C256  O4    A    
C25   C60   A    
C205  C244  A    
C143  H93   S    
C104  O54   S    
C108  H12   S    
C36   C71   A    
C33   C69   A    
O17   Zn5   S    
C6    O20   A    
C29   C64   A    
C192  H206  S    
O22   Zn7   S    
C102  H285  S    
C153  H118  S    
C32   C57   A    
C17   C52   A    
C104  C105  S    
C161  C162  S    
O23   Zn6   S    
C71   H217  S    
C92   H262  S    
C70   H216  S    
C123  H47   S    
C191  C192  S    
C14   C124  S    
C201  C219  A    
C139  H83   S    
C54   H101  S    
C71   C194  A    
C109  H17   S    
C49   O81   S    
C223  H112  S    
C205  C223  A    
C147  H102  S    
C259  O11   A    
C131  H65   S    
O37   Zn14  S    
C76   C195  A    
C200  C249  A    
C21   C56   A    
C203  C250  A    
C141  H88   S    
C175  C176  S    
C133  H69   S    
C93   H265  S    
C187  H196  S    
C140  H86   S    
O30   Zn2   S    
C66   H213  S    
C154  C155  S    
C5    O43   A    
C99   H279  S    
C158  C159  S    
C120  H39   S    
C209  C226  A    
C36   O68   S    
C43   O75   S    
C6    C194  S    
C70   C190  A    
C79   C81   A    
C247  C250  A    
O1    Zn1   S    
C206  H240  S    
C93   H264  S    
C51   O83   S    
C8    O22   A    
C45   C81   A    
C243  C265  A    
C67   H214  S    
C144  C145  S    
C201  H235  S    
C143  H92   S    
C22   C58   A    
C138  H81   S    
C139  C140  S    
C40   C75   A    
O67   Zn2   S    
C125  H49   S    
C22   O54   S    
C109  H15   S    
C87   H252  S    
C61   C168  A    
O20   Zn2   S    
O45   Zn8   S    
C9    O39   A    
C41   C76   A    
C89   H257  S    
C23   C240  A    
C25   C251  A    
C185  H192  S    
C94   O51   S    
C215  H249  S    
C226  C232  A    
C181  H182  S    
C174  H165  S    
C10   O36   A    
C100  O53   S    
C50   C218  A    
C12   O33   A    
C3    O46   A    
C161  H134  S    
C142  H89   S    
C171  H158  S    
C208  C246  A    
C108  H14   S    
C155  H122  S    
O3    Zn6   S    
C221  H267  S    
C167  O75   S    
C88   C89   S    
C236  C263  A    
C98   C99   S    
C241  C263  A    
C245  C248  A    
C155  C156  S    
C40   C68   A    
C242  C264  A    
C43   C196  A    
C154  H119  S    
C16   O32   A    
C186  H195  S    
C118  O59   S    
C14   O28   A    
C217  C223  A    
C227  C231  A    
C110  H19   S    
C175  H169  S    
O39   Zn1   S    
C54   C101  A    
C141  O66   S    
C164  H142  S    
C67   C198  A    
C128  C129  S    
C97   C98   S    
C140  H85   S    
C167  C169  S    
C108  C109  S    
C23   C59   A    
C24   C36   A    
C125  H50   S    
C30   O62   S    
C105  H5    S    
C144  O68   S    
C49   C84   A    
C29   O61   S    
C103  H288  S    
C11   O37   A    
C272  O44   A    
O34   Zn5   S    
C186  H194  S    
C174  C175  S    
C39   O71   S    
C252  C269  A    
C217  H234  S    
C115  C116  S    
C133  H71   S    
O1    Zn12  S    
C270  O47   A    
C180  H178  S    
C184  C185  S    
C165  H144  S    
C176  H171  S    
C9    C79   S    
C202  C220  A    
C258  C269  S    
C37   C262  A    
C235  C241  A    
C182  C183  S    
C115  O58   S    
O31   Zn11  S    
C158  H127  S    
C255  C261  S    
C144  H95   S    
C206  C224  A    
C31   C46   A    
C64   C194  A    
C117  H30   S    
C114  H25   S    
C256  O78   A    
C107  C108  S    
C15   C113  S    
C7    C190  S    
C181  O80   S    
C253  O45   A    
C52   C79   A    
O19   Zn7   S    
C154  O71   S    
C104  H4    S    
C244  C266  A    
C204  C245  A    
C213  C231  A    
C121  O60   S    
C183  H187  S    
C81   H227  S    
C145  H97   S    
C19   C196  A    
O35   Zn12  S    
C173  H164  S    
C62   H179  S    
C105  H6    S    
C72   C168  A    
C230  H68   S    
C3    O17   A    
C138  O65   S    
C170  H156  S    
C246  C268  A    
C100  C102  S    
C80   H226  S    
C220  H256  S    
C15   O31   A    
C73   H219  S    
C156  H126  S    
C244  C249  A    
O9    Zn11  S    
C127  H54   S    
C232  H2    S    
C134  H72   S    
C60   C157  A    
C38   O70   S    
C168  C271  S    
C209  C241  A    
C62   C179  A    
C19   O51   S    
C130  H63   S    
C121  H42   S    
C44   C207  A    
C161  H136  S    
C172  H161  S    
C202  H236  S    
C169  H152  S    
C160  H132  S    
C27   C62   A    
C48   O80   S    
C228  H57   S    
C2    C38   A    
C219  H245  S    
C27   O59   S    
O84   Zn4   S    
C167  H150  S    
O18   Zn8   S    
C212  H246  S    
C158  O72   S    
O23   Zn10  S    
C131  H64   S    
C137  H76   S    
C214  H248  S    
C91   H260  S    
C193  H210  S    
C99   H280  S    
C211  C228  A    
C32   C67   A    
C258  O6    A    
C37   C72   A    
C107  H10   S    
C173  H163  S    
C270  O14   A    
C53   C90   A    
C96   H271  S    
C19   C54   A    
C129  C130  S    
C138  H80   S    
C207  C262  S    
C257  O5    A    
C150  H109  S    
C188  H198  S    
C32   O64   S    
C259  O7    A    
C53   H90   S    
C222  H1    S    
C103  H286  S    
C136  C137  S    
C55   H113  S    
C166  H149  S    
C11   C146  S    
C75   C199  A    
C58   C135  A    
C63   C190  A    
C1    C17   A    
C180  H180  S    
C48   C83   A    
C210  C239  A    
C249  C267  A    
C234  H24   S    
C250  C268  A    
C259  C266  S    
C219  C222  A    
C4    O18   A    
C1    C45   A    
C17   O49   S    
C28   O60   S    
C151  H110  S    
C224  H212  S    
C117  H32   S    
C188  H199  S    
C8    O38   A    
C102  C103  S    
C35   C41   A    
C179  C270  S    
C30   C65   A    
C177  H173  S    
C183  H185  S    
C16   C101  S    
C114  H23   S    
O23   Zn14  S    
C106  H8    S    
C152  C153  S    
C42   C77   A    
C239  C261  A    
C106  H7    S    
C170  H154  S    
C20   C207  A    
C65   C195  A    
C159  H130  S    
C171  H159  S    
O42   Zn12  S    
C160  H133  S    
C33   C68   A    
C237  C264  A    
C129  H59   S    
C98   H276  S    
C87   C88   S    
C111  H21   S    
C189  H200  S    
C257  O9    A    
C200  H233  S    
C51   C229  A    
C153  H117  S    
C214  C232  A    
O34   Zn15  S    
C82   H228  S    
C130  H61   S    
O16   Zn6   S    
C181  C182  S    
C43   C78   A    
O26   Zn6   S    
C122  H43   S    
C132  H67   S    
C56   C124  A    
C164  C165  S    
C26   C61   A    
C18   C112  A    
C97   H274  S    
C221  C224  A    
C225  H223  S    
C140  H84   S    
C98   H277  S    
C123  H45   S    
C58   H135  S    
C74   H220  S    
C7    O41   A    
C118  H33   S    
O47   Zn1   S    
C3    C198  S    
C6    O40   A    
C42   C46   A    
C41   O73   S    
C24   C29   A    
C50   O82   S    
C50   C85   A    
C145  C147  S    
C109  H16   S    
C137  H78   S    
C148  H103  S    
C233  H13   S    
C182  H183  S    
C45   O77   S    
C164  O74   S    
C151  C152  S    
C163  H141  S    
C13   C28   A    
C176  H170  S    
C2    C27   A    
C107  O55   S    
C95   H270  S    
C34   C70   A    
C1    C24   S    
O6    Zn14  S    
C21   O53   S    
C150  H107  S    
C235  C261  A    
C59   H146  S    
C128  H58   S    
C178  H175  S    
C120  H40   S    
C209  H242  S    
C120  H38   S    
C51   C86   A    
C166  H147  S    
C48   C240  A    
C72   H218  S    
C254  O2    A    
C238  C265  A    
C93   H263  S    
C237  C243  A    
C128  O62   S    
C211  C243  A    
C44   C80   A    
C125  O61   S    
C162  H137  S    
C271  O15   A    
O34   Zn11  S    
C272  O16   A    
C226  H35   S    
C126  H51   S    
C11   O26   A    
C111  H20   S    
C189  H203  S    
C87   H251  S    
C127  H55   S    
C187  H197  S    
C184  H188  S    
C191  O83   S    
C83   C146  A    
C57   C229  S    
O10   Zn10  S    
O13   Zn12  S    
C159  C160  S    
C181  H181  S    
C174  H166  S    
C35   C251  S    
O4    Zn5   S    
C143  H94   S    
C121  C122  S    
C26   C262  A    
C147  H100  S    
C114  H22   S    
O32   Zn10  S    
C167  H151  S    
C125  C126  S    
C216  H250  S    
C154  H120  S    
O12   Zn13  S    
C216  C237  A    
C131  C132  S    
C97   O52   S    
C84   H230  S    
C162  C163  S    
O36   Zn15  S    
C88   H254  S    
C92   H261  S    
C148  O69   S    
O78   Zn16  S    
C204  C222  A    
C123  H48   S    
C122  H44   S    
C171  O76   S    
O12   Zn9   S    
C107  H11   S    
C152  H114  S    
C7    O21   A    
C77   H224  S    
C178  C180  S    
C119  C120  S    
C236  C239  A    
C47   O79   S    
C34   O66   S    
C105  C106  S    
C191  H205  S    
C174  O77   S    
C33   O65   S    
C82   C90   A    
O56   Zn7   S    
C147  H99   S    
C151  O70   S    
C103  H287  S    
C255  O3    A    
C187  C188  S    
C136  H75   S    
C149  C150  S    
C260  O8    A    
C185  C186  S    
C15   O29   A    
C22   C229  A    
O25   Zn5   S    
C116  H29   S    
C133  H70   S    
C92   C93   S    
C163  H139  S    
C176  H172  S    
C111  C114  S    
C16   O30   A    
C94   C95   S    
C78   H225  S    
C138  C139  S    
C49   C251  A    
C227  H46   S    
C158  H128  S    
C96   H273  S    
C144  H96   S    
C151  H111  S    
C177  C178  S    
C119  H37   S    
C256  C263  S    
C271  O48   A    
O21   Zn16  S    
C31   O63   S    
C142  C143  S    
C18   O50   S    
C210  H243  S    
C91   C92   S    
C77   C197  A    
C260  O13   A    
C184  H189  S    
O38   Zn9   S    
C131  O63   S    
C199  C272  S    
C87   O49   S    
C31   C66   A    
C202  C252  A    
C171  C172  S    
C254  C265  S    
C165  C166  S    
C204  H238  S    
C169  C170  S    
C95   C96   S    
C110  O57   S    
C5    O19   A    
C26   O58   S    
O8    Zn1   S    
O28   Zn4   S    
C25   O57   S    
C246  C252  A    
C163  H140  S    
C100  H283  S    
C156  H123  S    
C30   C35   A    
C85   C124  A    
C115  H26   S    
O46   Zn11  S    
C127  H53   S    
C94   H268  S    
C149  H105  S    
C89   H258  S    
C247  C269  A    
C10   O25   A    
C248  C266  A    
O14   Zn4   S    
C47   C112  A    
C39   C57   A    
O5    Zn15  S    
C132  H66   S    
C116  C117  S    
C203  C221  A    
C230  C233  A    
C175  H167  S    
C47   C82   A    
C185  H191  S    
C118  C119  S    
C61   H168  S    
C13   C34   A    
C208  H241  S    
C121  H41   S    
C18   C53   A    
C169  H153  S    
C78   C101  A    
C192  H207  S    
C132  C133  S    
C191  H204  S    
C212  C242  A    
C128  H56   S    
C187  O82   S    
C46   C240  S    
C213  C236  A    
O44   Zn10  S    
C228  C234  A    
C5    C195  S    
C91   H259  S    
C110  H18   S    
C193  H209  S    
C201  C248  A    
C257  C268  S    
C173  H162  S    
C139  H82   S    
C96   H272  S    
C4    O42   A    
C23   O55   S    
C119  H36   S    
C74   C198  A    
C88   H253  S    
C255  O67   A    
C148  C149  S    
C165  H145  S    
C186  H193  S    
O12   Zn3   S    
C85   H231  S    
C134  C136  S    
C55   C113  A    
C134  O64   S    
C44   O76   S    
C180  H177  S    
C172  H160  S    
C188  C189  S    
C203  H237  S    
C2    C196  S    
O15   Zn3   S    
C68   C218  S    
C208  C225  A    
C141  H87   S    
C212  C230  A    
C86   C135  A    
C184  O81   S    
O29   Zn16  S    
C210  C227  A    
O24   Zn8   S    
C117  H31   S    
C258  O10   A    
C182  H184  S    
C215  C238  A    
C80   C113  A    
C260  C267  S    
C211  H244  S    
C104  H3    S    
C64   H201  S    
C213  H247  S    
O11   Zn13  S    
C253  C264  S    
C4    C197  S    
C40   O72   S    
O1    Zn4   S    
C145  H98   S    
O33   Zn13  S    
C21   C218  A    
C69   H215  S    
C12   O27   A    
C8    C90   S    
C170  H155  S    
C159  H129  S    
C10   C157  S    
O43   Zn13  S    
C172  C173  S    
C65   H211  S    
C52   H79   S    
C76   H222  S    
O41   Zn15  S    
C156  H125  S    
C153  H116  S    
C20   O52   S    
C193  H208  S    
C63   H190  S    
O34   Zn16  S    
C84   C157  A    
C130  H62   S    
C238  C242  A    
C152  H115  S    
C205  H239  S    
C94   H266  S    
C106  H9    S    
C142  H91   S    
C192  C193  S    
C206  C247  A    
C160  H131  S    
C141  C142  S    
C102  H284  S    
C60   H157  S    
C129  H60   S    
C155  H121  S    
C56   H124  S    
C118  H34   S    
C220  C225  A    
C149  H106  S    
C91   O50   S    
C66   C197  A    
C136  H74   S    
O12   Zn7   S    
C200  C217  A    
C73   C179  A    
C59   C146  A    
C137  H77   S    
C148  H104  S    
C37   O69   S    
C116  H28   S    
C231  H278  S    
O1    Zn8   S    
C69   C199  A    
O40   Zn14  S    
C28   C63   A    
C164  H143  S    
C122  C123  S    
C95   H269  S    
C97   H275  S    
C38   C73   A    
