data_mof_unit_51665.cif
_audit_creation_date              2012-10-26T19:42:16-0400
_audit_creation_method            fapswitch 2.2
_symmetry_space_group_name_H-M    P1
_symmetry_Int_Tables_number       1
_space_group_crystal_system       triclinic
_cell_length_a                    9.613427
_cell_length_b                    10.86509
_cell_length_c                    17.397096
_cell_angle_alpha                 93.13982
_cell_angle_beta                  85.783911
_cell_angle_gamma                 88.128029
_cell_volume                      1808.27301794

loop_
_atom_site_label
_atom_site_type_symbol
_atom_type_description
_atom_site_fract_x
_atom_site_fract_y
_atom_site_fract_z
_atom_type_partial_charge
C1    C     C_R   0.496815 0.737653 0.504850 0.536744
C2    C     C_R   0.527985 0.508362 0.265785 0.006363
C3    C     C_R   0.289129 0.890146 0.608726 -0.103912
C4    C     C_R   0.481533 0.498145 0.649539 0.534159
C5    C     C_R   0.197887 0.962937 0.659539 -0.121191
C6    C     C_R   0.208465 0.090277 0.664314 -0.130535
C7    C     C_R   0.307929 0.146180 0.616865 -0.115351
C8    C     C_R   0.399788 0.074864 0.563389 0.005333
C9    C     C_R   0.391495 0.944247 0.560071 0.021848
C10   C     C_R   0.492144 0.872363 0.511910 -0.021386
C11   C     C_R   0.606086 0.928350 0.477234 -0.159529
C12   C     C_R   0.342615 0.469180 0.773223 -0.137956
C13   C     C_R   0.622105 0.054254 0.485622 -0.041834
C14   C     C_R   0.508061 0.129883 0.518616 -0.023435
C15   C     C_R   0.875824 0.351949 0.388209 -0.051210
C16   C     C_R   0.502121 0.263015 0.505945 0.525432
C17   C     C_R   0.957235 0.290889 0.327764 -0.150103
C18   C     C_R   0.100835 0.289664 0.327841 -0.184205
C19   C     C_R   0.163007 0.350806 0.387857 -0.094782
C20   C     C_R   0.084395 0.427451 0.444647 0.161255
C21   C     C_R   0.935044 0.427702 0.444719 0.166282
C22   C     C_R   0.916581 0.569715 0.552448 -0.010849
C23   C     C_R   0.408941 0.474894 0.148603 -0.116064
C24   C     C_R   0.064367 0.569596 0.552469 -0.015217
C25   C     C_R   0.518827 0.502645 0.350277 0.530183
C26   C     C_R   0.471493 0.488965 0.733195 0.014570
C27   C     C_R   0.592517 0.495106 0.773332 -0.133474
C28   C     C_R   0.584695 0.483635 0.852453 -0.111950
C29   C     C_R   0.455427 0.466966 0.892737 0.043456
C30   C     C_R   0.334971 0.457390 0.852674 -0.117057
C31   C     C_R   0.768561 0.093944 0.476193 0.049625
C32   C     C_R   0.857368 0.046615 0.412691 -0.123263
C33   C     C_R   0.002069 0.052006 0.414323 -0.115359
C34   C     C_R   0.412875 0.468067 0.227565 -0.154810
C35   C     C_R   0.059363 0.111995 0.476847 -0.084060
C36   C     C_R   0.972185 0.164958 0.538408 -0.108129
C37   C     C_R   0.828065 0.152584 0.539362 -0.058997
C38   C     C_R   0.775319 0.592016 0.255252 0.042420
C39   C     C_R   0.774822 0.686291 0.313931 -0.049895
C40   C     C_R   0.900022 0.719926 0.344299 -0.109078
C41   C     C_R   0.026698 0.664896 0.313639 -0.101418
C42   C     C_R   0.028395 0.575342 0.252986 -0.106413
C43   C     C_R   0.903691 0.538020 0.224426 -0.102639
C44   C     C_R   0.644549 0.553363 0.222014 -0.020553
C45   C     C_R   0.638778 0.559216 0.142052 -0.119655
C46   C     C_R   0.522386 0.519984 0.105170 0.031502
C47   C     C_2   0.444816 0.459117 0.976642 -0.136677
C48   C     C_2   0.523944 0.527875 0.021159 -0.135165
Cu1   Cu    Cu3+1 0.359340 0.500010 0.500010 0.897802
Cu2   Cu    Cu3+1 0.640660 0.499990 0.499990 0.918102
H1    H     H_    0.693552 0.508365 0.743707 0.120014
H2    H     H_    0.908582 0.236710 0.283772 0.112298
H3    H     H_    0.324759 0.430160 0.258951 0.119542
H4    H     H_    0.164186 0.234691 0.283796 0.106845
H5    H     H_    0.272017 0.331466 0.388441 0.180813
H6    H     H_    0.111478 0.626516 0.595613 0.102856
H7    H     H_    0.596515 0.590553 0.994657 0.115350
H8    H     H_    0.234895 0.442981 0.883082 0.097441
H9    H     H_    0.315665 0.446314 0.122603 0.096305
H10   H     H_    0.248099 0.462177 0.743245 0.116355
H11   H     H_    0.369792 0.397042 0.001117 0.112299
H12   H     H_    0.726469 0.594177 0.108042 0.097642
H13   H     H_    0.680067 0.486647 0.881849 0.099200
H14   H     H_    0.814724 0.000245 0.363474 0.092887
H15   H     H_    0.069665 0.012013 0.366282 0.107775
H16   H     H_    0.171125 0.119647 0.476514 0.136716
H17   H     H_    0.015981 0.214000 0.586094 0.110600
H18   H     H_    0.763331 0.185601 0.590390 0.119776
H19   H     H_    0.677509 0.731825 0.336738 0.106173
H20   H     H_    0.899772 0.788548 0.391540 0.108133
H21   H     H_    0.123449 0.691796 0.336746 0.128656
H22   H     H_    0.125985 0.533995 0.228199 0.109779
H23   H     H_    0.690415 0.871106 0.448714 0.127076
H24   H     H_    0.907230 0.466606 0.178291 0.097730
H25   H     H_    0.281633 0.791662 0.611074 0.132464
H26   H     H_    0.121020 0.920004 0.696931 0.104854
H27   H     H_    0.139931 0.146120 0.705479 0.102611
H28   H     H_    0.315818 0.244880 0.625322 0.145984
H29   H     H_    0.853769 0.627006 0.595458 0.115740
H30   H     H_    0.767915 0.332609 0.390187 0.181463
N1    N     N_R   0.852190 0.498790 0.499250 -0.248186
N2    N     N_R   0.148060 0.498710 0.499220 -0.247760
O1    O     O_R   0.381190 0.680360 0.500010 -0.503538
O2    O     O_R   0.618760 0.680340 0.500000 -0.504459
O3    O     O_R   0.367440 0.500030 0.613600 -0.522745
O4    O     O_R   0.605010 0.500010 0.613590 -0.511320
O5    O     O_R   0.381240 0.319660 0.500000 -0.531840
O6    O     O_R   0.618810 0.319640 0.499990 -0.518064
O7    O     O_R   0.394990 0.499990 0.386410 -0.522470
O8    O     O_R   0.632560 0.499970 0.386400 -0.513923

loop_
_geom_bond_atom_site_label_1
_geom_bond_atom_site_label_2
_ccdc_geom_bond_type
C20   N2    A    
C41   C42   A    
Cu1   O5    S    
C19   C20   A    
C36   H17   S    
Cu2   O2    S    
C48   H7    S    
C45   C46   A    
C1    O2    A    
C23   H9    S    
C26   C27   A    
C40   H20   S    
C29   C47   S    
C28   C29   A    
C22   H29   S    
C5    C6    A    
C4    O4    A    
C37   H18   S    
C45   H12   S    
C18   C19   A    
C24   N2    A    
Cu2   O8    S    
C15   H30   S    
C2    C44   A    
C8    C9    A    
C16   O5    A    
C3    H25   S    
C9    C10   A    
Cu2   O6    S    
C41   H21   S    
C2    C34   A    
C43   H24   S    
C23   C46   A    
C13   C14   A    
C17   H2    S    
C27   H1    S    
C46   C48   S    
C33   H15   S    
C22   N1    A    
Cu1   O3    S    
C7    C8    A    
C32   H14   S    
C11   H23   S    
C39   C40   A    
C18   H4    S    
C6    H27   S    
C4    O3    A    
C35   H16   S    
C31   C37   A    
C12   C26   A    
C35   C36   A    
Cu1   N2    S    
C38   C44   S    
C29   C30   A    
C3    C9    A    
C31   C32   A    
C23   C34   A    
C42   H22   S    
C17   C18   A    
C39   H19   S    
C7    H28   S    
C40   C41   A    
C21   N1    A    
C14   C16   S    
C24   H6    S    
C42   C43   A    
C44   C45   A    
C19   H5    S    
C15   C17   A    
C36   C37   A    
C8    C14   A    
C12   C30   A    
C47   C48   D    
C13   C31   S    
C25   O8    A    
C1    C10   S    
Cu1   O7    S    
C3    C5    A    
C47   H11   S    
C4    C26   S    
C6    C7    A    
C1    O1    A    
C25   O7    A    
C32   C33   A    
Cu1   O1    S    
C5    H26   S    
C38   C43   A    
C11   C13   A    
C38   C39   A    
C30   H8    S    
C33   C35   A    
C2    C25   S    
C22   C24   A    
C10   C11   A    
Cu2   O4    S    
C12   H10   S    
C28   H13   S    
C15   C21   A    
C20   C21   A    
C34   H3    S    
Cu1   Cu2   S    
C27   C28   A    
C16   O6    A    
Cu2   N1    S    
