data_mof_unit_24616.cif
_audit_creation_date              2012-12-10T17:16:45-0500
_audit_creation_method            fapswitch 2.2
_symmetry_space_group_name_H-M    P1
_symmetry_Int_Tables_number       1
_space_group_crystal_system       triclinic
_cell_length_a                    23.487084
_cell_length_b                    13.034289
_cell_length_c                    11.786259
_cell_angle_alpha                 98.713526
_cell_angle_beta                  92.289282
_cell_angle_gamma                 92.509644
_cell_volume                      3559.18305358

loop_
_atom_site_label
_atom_site_type_symbol
_atom_type_description
_atom_site_fract_x
_atom_site_fract_y
_atom_site_fract_z
_atom_type_partial_charge
C1    C     C_R   0.501662 0.299642 0.479484 0.864456
C2    C     C_R   0.499216 0.700042 0.520845 0.882441
C3    C     C_R   0.245017 0.576473 0.595117 0.311238
C4    C     C_R   0.758357 0.481300 0.390437 0.304317
C5    C     C_R   0.304477 0.574265 0.590411 -0.320800
C6    C     C_R   0.698816 0.482312 0.392217 -0.306438
C7    C     C_R   0.329267 0.507512 0.503676 -0.055731
C8    C     C_R   0.671620 0.499808 0.496791 -0.072292
C9    C     C_R   0.294457 0.447531 0.416964 -0.214022
C10   C     C_R   0.704848 0.516302 0.600347 -0.214418
C11   C     C_R   0.235407 0.450484 0.419745 -0.179373
C12   C     C_R   0.764049 0.515359 0.599196 -0.181608
C13   C     C_R   0.210285 0.513720 0.508961 0.328952
C14   C     C_R   0.791020 0.498138 0.494848 0.342708
C15   C     C_R   0.493738 0.812244 0.532444 -0.247903
C16   C     C_R   0.505579 0.186269 0.468742 -0.275581
C17   C     C_R   0.532501 0.020956 0.363840 0.288701
C18   C     C_R   0.451421 0.971354 0.617305 0.229832
C19   C     C_R   0.527448 0.128326 0.369571 0.098640
C20   C     C_R   0.456095 0.863099 0.610086 0.107843
C21   C     C_R   0.488212 0.134609 0.559505 0.389972
C22   C     C_R   0.524288 0.868061 0.460402 0.395018
C23   C     C_R   0.391341 0.502155 0.501418 0.821697
C24   C     C_R   0.608954 0.500163 0.498732 0.789581
C25   C     C_R   0.482225 0.025672 0.542049 -0.160386
C26   C     C_R   0.511940 0.970646 0.453077 -0.127710
C27   C     C_R   0.438561 0.415306 0.029993 -0.429616
C28   C     C_R   0.563561 0.575061 0.968477 -0.441356
C29   C     C_R   0.445768 0.419602 0.150634 0.619335
C30   C     C_R   0.554704 0.577875 0.849859 0.603846
C31   C     C_R   0.531470 0.522691 0.149548 0.354425
C32   C     C_R   0.469999 0.469655 0.847522 0.357131
C33   C     C_R   0.523968 0.523454 0.029284 -0.064460
C34   C     C_R   0.476392 0.470657 0.968824 -0.064785
C35   C     C_R   0.881402 0.587862 0.476243 0.593040
C36   C     C_R   0.119608 0.425721 0.529535 0.536634
C37   C     C_R   0.879466 0.414343 0.518696 0.535359
C38   C     C_R   0.121846 0.599668 0.488300 0.598035
C39   C     C_R   0.939472 0.413370 0.518405 -0.122756
C40   C     C_R   0.061691 0.599677 0.485047 -0.103814
C41   C     C_R   0.970407 0.504544 0.499766 -0.074616
C42   C     C_R   0.030689 0.508438 0.503218 -0.082030
C43   C     C_R   0.941156 0.592323 0.478845 -0.050903
C44   C     C_R   0.059900 0.421134 0.525810 -0.065928
C45   C     C_R   0.969536 0.324874 0.536524 0.479967
C46   C     C_R   0.031711 0.687034 0.462886 0.448245
C47   C     C_R   0.029100 0.330789 0.543377 -0.231609
C48   C     C_R   0.971973 0.682900 0.462058 -0.267466
Cu1   Cu    Cu3+1 0.504210 0.507730 0.615930 1.009519
Cu2   Cu    Cu3+1 0.495790 0.492270 0.384070 0.994765
H1    H     H_    0.403992 0.367080 0.984840 0.151421
H2    H     H_    0.601269 0.614180 0.012350 0.161860
H3    H     H_    0.051117 0.263386 0.561576 0.204673
H4    H     H_    0.949848 0.751751 0.449328 0.190479
H5    H     H_    0.331256 0.624524 0.654462 0.153335
H6    H     H_    0.674099 0.467614 0.311787 0.162317
H7    H     H_    0.312932 0.397603 0.347750 0.189787
H8    H     H_    0.685215 0.530208 0.682478 0.195360
H9    H     H_    0.208926 0.403116 0.352631 0.152458
H10   H     H_    0.789177 0.528690 0.679585 0.152100
N1    N     N_R   0.852076 0.499879 0.495744 -0.453932
N2    N     N_R   0.149185 0.513718 0.510489 -0.461669
N3    N     N_R   0.510550 0.519360 0.790130 -0.232680
N4    N     N_R   0.489450 0.480640 0.209870 -0.224821
O1    O     O_R   0.502990 0.354470 0.582000 -0.532916
O2    O     O_R   0.497010 0.645530 0.418000 -0.569235
O3    O     O_R   0.495870 0.341410 0.386200 -0.563770
O4    O     O_R   0.504130 0.658590 0.613800 -0.540864
O5    O     O_R   0.421440 0.506500 0.597920 -0.556344
O6    O     O_R   0.578560 0.493500 0.402080 -0.573643
O7    O     O_R   0.414320 0.493440 0.402120 -0.539202
O8    O     O_R   0.585680 0.506560 0.597880 -0.544542
O9    O     O_2   0.852688 0.670999 0.455259 -0.551639
O10   O     O_2   0.148099 0.342856 0.552263 -0.551854
O11   O     O_2   0.848442 0.331119 0.541928 -0.521506
O12   O     O_2   0.152973 0.683830 0.467904 -0.493535
O13   O     O_3   0.941526 0.233089 0.553195 -0.544072
C49   C     C_3   0.929286 0.169209 0.445771 0.138555
H11   H     H_    0.923819 0.213330 0.372171 0.111518
H12   H     H_    0.887956 0.125830 0.451052 0.191261
C50   C     C_3   0.974828 0.089974 0.420696 -0.860524
H13   H     H_    0.981421 0.047755 0.494872 0.276369
H14   H     H_    0.961072 0.032888 0.343663 0.213930
H15   H     H_    0.015723 0.129261 0.403386 0.237506
O14   O     O_3   0.060654 0.779640 0.452105 -0.531890
C51   C     C_3   0.054614 0.797456 0.337068 0.091252
H16   H     H_    0.009933 0.815232 0.315351 0.126428
H17   H     H_    0.067198 0.729045 0.276126 0.141126
C52   C     C_3   0.093309 0.890506 0.321683 -0.722492
H18   H     H_    0.138513 0.874460 0.340266 0.267665
H19   H     H_    0.088456 0.906215 0.231886 0.187356
H20   H     H_    0.081823 0.960303 0.381010 0.249390
N5    N     N_2   0.422322 0.415039 0.784116 -0.357343
H21   H     H_    0.419291 0.336828 0.789523 0.271041
C53   C     C_3   0.368462 0.464516 0.800359 -0.668630
H22   H     H_    0.350613 0.454868 0.883784 0.200742
H23   H     H_    0.336980 0.428456 0.731611 0.241646
H24   H     H_    0.374013 0.548986 0.797255 0.228024
N6    N     N_2   0.586424 0.548208 0.202787 -0.420492
H25   H     H_    0.618450 0.508636 0.160692 0.216501
C54   C     C_3   0.601251 0.656842 0.239902 -0.552933
H26   H     H_    0.637243 0.683013 0.191199 0.165342
H27   H     H_    0.615977 0.666513 0.331281 0.264941
H28   H     H_    0.564479 0.705568 0.227893 0.267000
O15   O     O_3   0.591419 0.634338 0.789958 -0.553014
C55   C     C_3   0.610083 0.731532 0.854174 0.041229
H29   H     H_    0.648249 0.721977 0.909755 0.146277
H30   H     H_    0.576101 0.767864 0.907886 0.125674
C56   C     C_3   0.627178 0.805555 0.772272 -0.821189
H31   H     H_    0.589699 0.817711 0.716448 0.235226
H32   H     H_    0.642726 0.881658 0.821701 0.201721
H33   H     H_    0.661738 0.772906 0.718358 0.248413
O16   O     O_3   0.408969 0.364358 0.211804 -0.553919
C57   C     C_3   0.395383 0.262018 0.154780 0.021146
H34   H     H_    0.432571 0.226486 0.110871 0.122913
H35   H     H_    0.359211 0.262370 0.091111 0.148771
C58   C     C_3   0.376576 0.193543 0.241573 -0.781443
H36   H     H_    0.337424 0.222487 0.282447 0.237408
H37   H     H_    0.367325 0.112667 0.197523 0.200047
H38   H     H_    0.410730 0.193072 0.309043 0.248679
N7    N     N_2   0.220387 0.642102 0.685737 -0.406053
H39   H     H_    0.244976 0.708968 0.715816 0.251234
C59   C     C_3   0.201860 0.589350 0.778300 -0.672893
H40   H     H_    0.181411 0.645079 0.843060 0.229436
H41   H     H_    0.238996 0.557853 0.820582 0.216903
H42   H     H_    0.170121 0.524999 0.745747 0.251543
N8    N     N_2   0.785313 0.465181 0.283749 -0.421157
H43   H     H_    0.764733 0.498336 0.220418 0.250002
C60   C     C_3   0.797011 0.357993 0.244235 -0.697301
H44   H     H_    0.819815 0.352749 0.162995 0.230508
H45   H     H_    0.756475 0.309654 0.228002 0.218967
H46   H     H_    0.824504 0.327061 0.308542 0.248470
O17   O     O_3   0.571519 0.827082 0.408296 -0.576043
C61   C     C_3   0.620381 0.851960 0.483909 0.036402
H47   H     H_    0.632234 0.780625 0.518167 0.153433
H48   H     H_    0.614549 0.914048 0.558525 0.125551
C62   C     C_3   0.670038 0.888539 0.418467 -0.761502
H49   H     H_    0.660335 0.962491 0.387636 0.241265
H50   H     H_    0.709048 0.902015 0.476188 0.213742
H51   H     H_    0.678411 0.829272 0.343875 0.245406
O18   O     O_3   0.483744 0.189744 0.668888 -0.538877
C63   C     C_3   0.532887 0.172428 0.736296 0.118484
H52   H     H_    0.572831 0.192570 0.694601 0.126152
H53   H     H_    0.533420 0.089913 0.750214 0.134378
C64   C     C_3   0.533306 0.238827 0.853871 -0.801584
H54   H     H_    0.566210 0.212668 0.911936 0.195566
H55   H     H_    0.544414 0.320725 0.845855 0.242775
H56   H     H_    0.491057 0.232143 0.891907 0.244519
N9    N     N_2   0.421756 0.804831 0.677282 -0.423535
H57   H     H_    0.379109 0.820581 0.676209 0.246781
C65   C     C_3   0.445548 0.795180 0.790425 -0.654447
H58   H     H_    0.441644 0.712565 0.802975 0.240880
H59   H     H_    0.421712 0.841726 0.857920 0.188285
H60   H     H_    0.491320 0.821739 0.801432 0.230416
N10   N     N_2   0.547716 0.176590 0.277275 -0.423700
H61   H     H_    0.518351 0.210747 0.229704 0.277330
C66   C     C_3   0.604709 0.225128 0.292134 -0.694685
H62   H     H_    0.602574 0.310382 0.296606 0.245368
H63   H     H_    0.629594 0.195324 0.217147 0.217628
H64   H     H_    0.627396 0.208379 0.371453 0.223877
N11   N     N_2   0.555070 0.962424 0.264829 -0.362015
H65   H     H_    0.587108 0.000374 0.227642 0.266884
C67   C     C_3   0.512317 0.910540 0.181418 -0.668746
H66   H     H_    0.533490 0.862641 0.110752 0.207073
H67   H     H_    0.486952 0.968724 0.144705 0.212386
H68   H     H_    0.483411 0.858290 0.221768 0.237929
N12   N     N_2   0.414817 0.025360 0.697158 -0.388334
H69   H     H_    0.410085 0.995084 0.772188 0.251357
C68   C     C_3   0.361335 0.052255 0.646977 -0.627393
H70   H     H_    0.337339 0.098997 0.714013 0.220625
H71   H     H_    0.335139 0.980701 0.611436 0.207565
H72   H     H_    0.368926 0.099424 0.577545 0.240260

loop_
_geom_bond_atom_site_label_1
_geom_bond_atom_site_label_2
_ccdc_geom_bond_type
N5    H21   S    
Cu1   N3    S    
Cu1   O4    S    
N10   C66   S    
C19   N10   S    
C41   C42   A    
C23   O5    A    
C53   H22   S    
C64   H56   S    
C61   C62   S    
C64   H54   S    
C53   H24   S    
C24   O6    A    
C59   H40   S    
C39   C41   A    
C38   O12   S    
O13   C49   S    
C48   H4    S    
C62   H50   S    
C16   C21   A    
Cu1   O1    S    
C17   C26   A    
C67   H67   S    
C60   H44   S    
C2    O4    A    
C56   H32   S    
C49   H12   S    
C59   H41   S    
C27   C29   A    
C55   H29   S    
Cu2   N4    S    
C20   N9    S    
C68   H70   S    
C65   H60   S    
C21   C25   A    
N11   C67   S    
N9    H57   S    
C15   C22   A    
C35   O9    S    
C13   N2    S    
C67   H66   S    
Cu1   O8    S    
C1    O1    A    
C65   H58   S    
C31   C33   A    
C31   N6    S    
C52   H19   S    
C35   C43   A    
C43   C48   A    
C41   C43   A    
C18   C20   A    
C3    C13   A    
C44   C47   A    
C62   H49   S    
C39   C45   A    
C60   H46   S    
C40   C42   A    
C32   N5    S    
C37   O11   S    
C29   N4    A    
N5    C53   S    
Cu1   O5    S    
C30   N3    A    
C66   H62   S    
C68   H71   S    
C63   C64   S    
C18   C25   A    
C42   C44   A    
C36   N2    A    
C10   C12   A    
C50   H14   S    
C27   H1    S    
C50   H13   S    
C45   C47   A    
C27   C34   A    
C15   C20   A    
C62   H51   S    
C46   C48   A    
C64   H55   S    
C22   O17   S    
C54   H26   S    
C23   O7    A    
C67   H68   S    
C4    C6    A    
C56   H33   S    
N12   H69   S    
C5    C7    A    
C51   H16   S    
C59   H42   S    
C6    C8    A    
C3    C5    A    
C25   C26   A    
O14   C51   S    
C14   N1    S    
C1    O3    A    
N12   C68   S    
C57   H35   S    
C32   C34   A    
C40   C46   A    
Cu2   O7    S    
N8    C60   S    
C9    C11   A    
C37   N1    A    
N6    H25   S    
C33   C34   A    
C35   N1    A    
C1    C16   S    
C52   H20   S    
C2    C15   S    
Cu2   O2    S    
N7    H39   S    
C17   N11   S    
C8    C10   A    
N6    C54   S    
C12   C14   A    
C28   C33   A    
C66   H64   S    
C30   O15   S    
O17   C61   S    
C68   H72   S    
N9    C65   S    
C58   H38   S    
N8    H43   S    
C50   H15   S    
C24   O8    A    
O16   C57   S    
Cu2   O3    S    
C7    C9    A    
C29   O16   S    
C36   O10   S    
C4    N8    S    
C10   H8    S    
C49   H11   S    
C31   N4    A    
C5    H5    S    
C11   H9    S    
C32   N3    A    
C6    H6    S    
C2    O2    A    
C51   C52   S    
C61   H48   S    
C18   N12   S    
C53   H23   S    
C57   H34   S    
C61   H47   S    
C28   H2    S    
C54   H28   S    
O15   C55   S    
C54   H27   S    
C47   H3    S    
C46   O14   S    
C58   H37   S    
Cu2   O6    S    
C21   O18   S    
C37   C39   A    
N11   H65   S    
O18   C63   S    
C38   C40   A    
C11   C13   A    
C49   C50   S    
C55   H30   S    
C16   C19   A    
C7    C23   S    
C51   H17   S    
C28   C30   A    
C17   C19   A    
C9    H7    S    
C65   H59   S    
C4    C14   A    
N7    C59   S    
C57   C58   S    
C36   C44   A    
C12   H10   S    
C8    C24   S    
C66   H63   S    
Cu1   Cu2   S    
C22   C26   A    
C56   H31   S    
N10   H61   S    
C63   H52   S    
C45   O13   S    
C60   H45   S    
C52   H18   S    
C58   H36   S    
C63   H53   S    
C3    N7    S    
C38   N2    A    
C55   C56   S    
