data_mof_unit_19442.cif
_audit_creation_date              2013-03-05T15:46:32-0500
_audit_creation_method            fapswitch 2.2
_symmetry_space_group_name_H-M    P1
_symmetry_Int_Tables_number       1
_space_group_crystal_system       triclinic
_cell_length_a                    10.1519
_cell_length_b                    10.641685
_cell_length_c                    10.637705
_cell_angle_alpha                 90.604798
_cell_angle_beta                  94.174885
_cell_angle_gamma                 79.949538
_cell_volume                      1128.58567909

loop_
_atom_site_label
_atom_site_type_symbol
_atom_site_description
_atom_site_fract_x
_atom_site_fract_y
_atom_site_fract_z
_atom_type_partial_charge
O1    O     O_R   0.568940 0.489660 0.307530 -0.606139
O2    O     O_R   0.431060 0.510340 0.692470 -0.575203
O3    O     O_R   0.348880 0.522640 0.340350 -0.566587
O4    O     O_R   0.651120 0.477360 0.659650 -0.558761
C1    C     C_R   0.445882 0.500772 0.266385 0.949473
C2    C     C_R   0.554266 0.485195 0.733862 0.959485
O5    O     O_R   0.610030 0.300280 0.483580 -0.613479
O6    O     O_R   0.389970 0.699720 0.516420 -0.630957
O7    O     O_R   0.389970 0.333270 0.516400 -0.584664
O8    O     O_R   0.610030 0.666730 0.483600 -0.570908
C3    C     C_R   0.504399 0.257656 0.509763 0.915580
C4    C     C_R   0.492185 0.738693 0.477315 0.878969
Zn1   Zn    Zn3+2 0.646940 0.477980 0.478080 1.038637
Zn2   Zn    Zn3+2 0.353060 0.522020 0.521920 1.042172
H1    H     H_    0.098584 0.159427 0.688187 0.170701
H2    H     H_    0.869107 0.827478 0.247068 0.156655
C5    C     C_R   0.745608 0.065013 0.444044 -0.053835
C6    C     C_R   0.237583 0.927996 0.493263 -0.091727
C7    C     C_R   0.835057 0.991244 0.367565 -0.105898
C8    C     C_R   0.141196 0.999965 0.563686 -0.166097
C9    C     C_R   0.800467 0.884045 0.307492 -0.072698
C10   C     C_R   0.171656 0.105061 0.630391 -0.075920
C11   C     C_R   0.679761 0.846554 0.329922 -0.071684
C12   C     C_R   0.295112 0.142565 0.619647 -0.020824
C13   C     C_R   0.590006 0.918953 0.409894 0.098851
C14   C     C_R   0.391604 0.074650 0.542456 0.070130
C15   C     C_R   0.615201 0.036748 0.456329 0.121653
C16   C     C_R   0.368186 0.958267 0.492273 0.104709
C17   C     C_R   0.477300 0.873761 0.447020 -0.250459
C18   C     C_R   0.509816 0.119549 0.513756 -0.223023
H3    H     H_    0.783822 0.139872 0.496324 0.153119
H4    H     H_    0.208850 0.848961 0.439487 0.158166
H5    H     H_    0.931730 0.017201 0.355203 0.154480
H6    H     H_    0.043979 0.972609 0.568677 0.160800
H7    H     H_    0.656279 0.760922 0.284178 0.134532
H8    H     H_    0.313836 0.224772 0.672849 0.202950
C19   C     C_2   0.420696 0.480496 0.132816 -0.389217
C20   C     C_2   0.580461 0.461116 0.868102 -0.441723
C21   C     C_2   0.512520 0.403327 0.068782 0.270667
C22   C     C_2   0.495622 0.406779 0.933044 0.257041
H9    H     H_    0.667371 0.492127 0.916224 0.197832
H10   H     H_    0.332314 0.536641 0.084105 0.183804
N1    N     N_2   0.157300 0.551390 0.551120 -0.225407
N2    N     N_2   0.842700 0.448610 0.448880 -0.239719
C23   C     C_2   0.071583 0.497167 0.482147 0.217829
C24   C     C_2   0.925703 0.512139 0.510208 0.228079
H11   H     H_    0.879693 0.386109 0.380220 0.209112
H12   H     H_    0.123405 0.602894 0.628319 0.215994
N3    N     N_R   0.387181 0.351442 0.875141 0.193943
O9    O     O_R   0.385918 0.231995 0.898888 -0.380709
O10   O     O_R   0.273575 0.425302 0.843552 -0.369378
N4    N     N_R   0.619306 0.311787 0.128943 0.235921
O11   O     O_R   0.593503 0.239724 0.218732 -0.365755
O12   O     O_R   0.732425 0.281156 0.076643 -0.361333
N5    N     N_R   0.877882 0.599257 0.606837 0.228434
O13   O     O_R   0.888841 0.559077 0.722795 -0.357737
O14   O     O_R   0.862377 0.721266 0.585543 -0.414770
N6    N     N_R   0.115257 0.424415 0.374342 0.226968
O15   O     O_R   0.148838 0.301111 0.383875 -0.384458
O16   O     O_R   0.086731 0.475559 0.262996 -0.367616

loop_
_geom_bond_atom_site_label_1
_geom_bond_atom_site_label_2
_geom_bond_distance
_ccdc_geom_bond_type
C24   N5    1.430816 S    
O5    C3    1.284206 A    
O7    Zn2   1.978994 S    
C2    C20   1.450590 S    
H2    C9    1.082469 S    
C1    C19   1.445923 S    
C4    C17   1.455867 S    
C13   C15   1.400436 A    
N1    C23   1.304559 D    
N1    H12   1.029092 S    
C14   C16   1.394906 A    
N2    H11   1.029263 S    
O6    C4    1.280051 A    
C8    H6    1.081597 S    
N5    O13   1.300515 A    
C11   C13   1.414771 A    
C21   N4    1.441283 S    
C6    C16   1.418802 A    
C19   C21   1.349375 D    
C12   H8    1.074088 S    
C23   C24   1.512858 S    
Zn1   N2    2.003674 S    
C15   C18   1.431420 A    
C20   C22   1.349924 D    
O7    C3    1.298627 A    
O2    C2    1.278830 A    
O3    Zn2   1.928918 S    
O8    C4    1.300707 A    
O1    C1    1.279123 A    
C16   C17   1.410061 A    
C5    C7    1.395718 A    
C5    H3    1.077724 S    
N4    O12   1.301181 A    
C14   C18   1.420645 A    
C6    C8    1.392224 A    
N5    O14   1.300598 A    
C9    C11   1.390284 A    
C13   C17   1.399380 A    
O2    Zn2   1.922304 S    
C11   H7    1.083329 S    
C10   C12   1.392682 A    
C23   N6    1.430596 S    
C6    H4    1.082082 S    
C8    C10   1.386347 A    
C21   C22   1.441734 S    
N6    O16   1.300645 A    
C22   N3    1.434579 S    
C5    C15   1.423097 A    
O3    C1    1.293032 A    
O5    Zn1   1.993153 S    
O1    Zn1   1.922302 S    
N4    O11   1.300389 A    
C20   H9    1.087065 S    
O4    C2    1.296140 A    
N3    O9    1.301020 A    
C7    H5    1.082103 S    
C19   H10   1.087317 S    
O6    Zn2   1.993154 S    
O4    Zn1   1.928919 S    
C7    C9    1.387373 A    
N6    O15   1.299965 A    
H1    C10   1.082632 S    
C12   C14   1.419031 A    
C3    C18   1.462056 S    
N2    C24   1.304675 D    
Zn2   N1    2.003675 S    
N3    O10   1.301386 A    
O8    Zn1   1.978995 S    
