data_mof_unit_38267.cif
_audit_creation_date              2012-12-11T15:54:06-0500
_audit_creation_method            fapswitch 2.2
_symmetry_space_group_name_H-M    P1
_symmetry_Int_Tables_number       1
_space_group_crystal_system       triclinic
_cell_length_a                    10.687928
_cell_length_b                    10.689709
_cell_length_c                    16.995093
_cell_angle_alpha                 80.544342
_cell_angle_beta                  99.495865
_cell_angle_gamma                 119.052581
_cell_volume                      1666.13278789

loop_
_atom_site_label
_atom_site_type_symbol
_atom_type_description
_atom_site_fract_x
_atom_site_fract_y
_atom_site_fract_z
_atom_type_partial_charge
C1    C     C_R   0.384763 0.284401 0.631928 0.562092
C2    C     C_1   0.333541 0.186698 0.781563 -0.055434
C3    C     C_1   0.369242 0.636386 0.274839 -0.045823
C4    C     C_R   0.369490 0.655107 0.585968 0.552514
C5    C     C_1   0.342474 0.654726 0.204260 -0.019709
C6    C     C_R   0.851917 0.675527 0.164455 -0.007445
C7    C     C_R   0.873269 0.572232 0.218315 0.086990
C8    C     C_R   0.870699 0.568549 0.298758 0.010548
C9    C     C_R   0.842488 0.783593 0.276352 -0.158406
C10   C     C_R   0.846452 0.787532 0.194405 -0.159701
C11   C     C_3   0.794039 0.411095 0.219241 -0.089150
C12   C     C_R   0.394674 0.831263 0.674392 -0.136474
C13   C     C_3   0.796046 0.406370 0.309554 -0.140359
C14   C     C_R   0.842839 0.666711 0.328074 0.003531
C15   C     C_R   0.301033 0.121820 0.171151 0.012751
C16   C     C_R   0.781668 0.621449 0.626077 0.549081
C17   C     C_R   0.184890 0.113398 0.202642 0.025075
C18   C     C_R   0.188946 0.122471 0.282125 0.012526
C19   C     C_R   0.415473 0.117973 0.306270 -0.158195
C20   C     C_R   0.410475 0.108617 0.224632 -0.160325
C21   C     C_3   0.103851 0.195688 0.175826 -0.231937
C22   C     C_3   0.106805 0.206736 0.263539 -0.243072
C23   C     C_R   0.377635 0.853085 0.750102 -0.150811
C24   C     C_R   0.312936 0.142940 0.333199 0.017796
C25   C     C_R   0.948181 0.725414 0.851689 0.534704
C26   C     C_R   0.281937 0.750967 0.882590 0.545874
C27   C     C_R   0.286479 0.118468 0.858413 0.534973
C28   C     C_R   0.348706 0.221828 0.401745 0.545988
C29   C     C_R   0.888422 0.691420 0.084515 0.555987
C30   C     C_R   0.316195 0.697252 0.122738 0.570235
C31   C     C_R   0.282060 0.100735 0.087769 0.547775
C32   C     C_R   0.403096 0.625034 0.358833 0.568155
C33   C     C_R   0.775193 0.624016 0.401168 0.540435
C34   C     C_3   0.126037 0.458067 0.792045 -0.245798
C35   C     C_R   0.280207 0.737840 0.798164 -0.000270
C36   C     C_R   0.180417 0.613178 0.761949 0.009832
C37   C     C_R   0.197719 0.591098 0.687421 0.011605
C38   C     C_3   0.890753 0.350051 0.366777 -0.234498
C39   C     C_3   0.804776 0.188991 0.392703 -0.333839
C40   C     C_3   0.895632 0.133660 0.451220 -0.420084
C41   C     C_2   0.873109 0.343325 0.193166 0.227438
C42   C     C_3   0.145351 0.433986 0.710263 -0.253245
C43   C     C_R   0.315013 0.693505 0.646645 0.013742
C44   C     C_1   0.851542 0.670043 0.702488 -0.035137
C45   C     C_1   0.898753 0.704434 0.769245 -0.037299
C46   C     C_1   0.365092 0.233541 0.714343 -0.055758
Cr1   Cr    Cr6+3 0.608440 0.389080 0.519680 0.995875
Cr2   Cr    Cr6+3 0.288640 0.400090 0.490760 0.980419
Cr3   Cr    Cr6+3 0.602940 0.710800 0.489510 0.993296
Cr4   Cr    Cr6+3 0.052530 0.947560 0.964210 1.020452
Cr5   Cr    Cr6+3 0.059970 0.626800 0.992920 1.053675
Cr6   Cr    Cr6+3 0.373320 0.938440 0.995370 1.008733
H1    H     H_    0.480687 0.917460 0.642083 0.146950
H2    H     H_    0.448779 0.955749 0.773484 0.143208
H3    H     H_    0.011488 0.405623 0.804307 0.151997
H4    H     H_    0.199767 0.439385 0.841099 0.159624
H5    H     H_    0.230546 0.402310 0.712335 0.149514
H6    H     H_    0.042084 0.367214 0.675460 0.146098
H7    H     H_    0.825209 0.863609 0.297641 0.131518
H8    H     H_    0.841423 0.875276 0.154499 0.133557
H9    H     H_    0.987255 0.146188 0.422535 0.177852
H10   H     H_    0.937223 0.193267 0.505416 0.152488
H11   H     H_    0.828678 0.017690 0.469906 0.157131
H12   H     H_    0.684371 0.373706 0.187083 0.073537
H13   H     H_    0.712839 0.170368 0.423814 0.168560
H14   H     H_    0.762926 0.127144 0.339351 0.149751
H15   H     H_    0.988362 0.372929 0.339742 0.185951
H16   H     H_    0.929467 0.408060 0.421577 0.175530
H17   H     H_    0.819314 0.228033 0.189857 0.075987
H18   H     H_    0.685067 0.360021 0.326441 0.160657
H19   H     H_    0.505605 0.119704 0.346136 0.121426
H20   H     H_    0.494274 0.097266 0.203426 0.131687
H21   H     H_    0.994195 0.129121 0.147178 0.140920
H22   H     H_    0.168258 0.300786 0.141761 0.164719
H23   H     H_    0.169869 0.319749 0.278667 0.183625
H24   H     H_    0.998165 0.146058 0.285010 0.121842
O1    O     O_R   0.754020 0.497590 0.609930 -0.511817
O2    O     O_R   0.406180 0.826930 0.920660 -0.505946
O3    O     O_R   0.358620 0.062870 0.901950 -0.516737
O4    O     O_R   0.481420 0.271390 0.600630 -0.486614
O5    O     O_R   0.163910 0.085460 0.050210 -0.516190
O6    O     O_R   0.935200 0.815170 0.045770 -0.499870
O7    O     O_R   0.916120 0.596690 0.069430 -0.469254
O8    O     O_R   0.192310 0.631200 0.086170 -0.438247
O9    O     O_R   0.406770 0.819480 0.096420 -0.523442
O10   O     O_R   0.359170 0.055960 0.064880 -0.503968
O11   O     O_3   0.161940 0.837600 0.984160 -0.295133
O12   O     O_R   0.295080 0.533620 0.397890 -0.502774
O13   O     O_R   0.263810 0.254550 0.589590 -0.514311
O14   O     O_R   0.300820 0.531200 0.560890 -0.510575
O15   O     O_R   0.491480 0.744020 0.564270 -0.516037
O16   O     O_R   0.726290 0.693800 0.583010 -0.497031
O17   O     O_R   0.747830 0.500190 0.434090 -0.531004
O18   O     O_R   0.475680 0.273800 0.437630 -0.509204
O19   O     O_R   0.257620 0.257160 0.413750 -0.541988
O20   O     O_2   0.996905 0.415259 0.176697 -0.501413
O21   O     O_R   0.485280 0.746620 0.388440 -0.509929
O22   O     O_R   0.720550 0.696220 0.420010 -0.523363
O23   O     O_3   0.500010 0.499990 0.499980 -0.276123
O24   O     O_R   0.163320 0.092900 0.874450 -0.512199
O25   O     O_R   0.934650 0.822080 0.882840 -0.481630
O26   O     O_R   0.915520 0.604140 0.893670 -0.512966
O27   O     O_R   0.191760 0.638110 0.923230 -0.515688

loop_
_geom_bond_atom_site_label_1
_geom_bond_atom_site_label_2
_ccdc_geom_bond_type
C34   H4    S    
C8    C13   S    
Cr2   O19   S    
Cr5   O7    S    
C19   H19   S    
C19   C20   A    
C34   C42   S    
C22   H24   S    
C42   H6    S    
C14   C33   S    
Cr1   O23   S    
C7    C8    A    
C2    C46   T    
Cr5   O26   S    
C7    C11   S    
C12   C23   A    
C26   O2    A    
C40   H11   S    
C28   O19   A    
C18   C24   A    
Cr1   O4    S    
C36   C37   A    
C29   O7    A    
C12   C43   A    
C27   O3    A    
C38   C39   S    
C25   O26   A    
C41   O20   D    
C13   H18   S    
Cr5   O27   S    
C32   O12   A    
C21   H21   S    
C40   H10   S    
C32   O21   A    
C28   O18   A    
C33   O22   A    
C37   C42   S    
Cr3   O22   S    
C35   C36   A    
C1    O13   A    
Cr2   O12   S    
C2    C27   S    
Cr6   O3    S    
C9    C10   A    
C16   C44   S    
C12   H1    S    
C4    O15   A    
C34   H3    S    
C31   O10   A    
Cr2   O14   S    
C21   C22   S    
C39   H13   S    
C22   H23   S    
Cr3   O15   S    
Cr6   O2    S    
C42   H5    S    
C4    O14   A    
C15   C20   A    
C27   O24   A    
C11   H12   S    
Cr5   O11   S    
C39   C40   S    
C21   H22   S    
C17   C21   S    
C40   H9    S    
C9    H7    S    
C37   C43   A    
C10   H8    S    
C9    C14   A    
C26   O27   A    
Cr3   O23   S    
C17   C18   A    
Cr1   O17   S    
C30   O9    A    
C13   C38   S    
Cr4   O11   S    
C38   H16   S    
C16   O16   A    
C23   C35   A    
Cr2   O13   S    
C39   H14   S    
Cr1   O1    S    
Cr3   O16   S    
C25   C45   S    
C44   C45   T    
Cr4   O6    S    
C23   H2    S    
C41   H17   S    
C5    C30   S    
C15   C17   A    
Cr2   O23   S    
Cr6   O9    S    
C8    C14   A    
C18   C22   S    
Cr6   O11   S    
C20   H20   S    
C24   C28   S    
C3    C5    T    
C33   O17   A    
C6    C10   A    
C15   C31   S    
C6    C7    A    
C4    C43   S    
Cr4   O24   S    
C31   O5    A    
Cr6   O10   S    
C19   C24   A    
C29   O6    A    
C11   C13   S    
C25   O25   A    
Cr1   O18   S    
C11   C41   S    
C34   C36   S    
C30   O8    A    
C3    C32   S    
C1    C46   S    
Cr3   O21   S    
C26   C35   S    
C6    C29   S    
C38   H15   S    
Cr4   O25   S    
C1    O4    A    
C16   O1    A    
Cr5   O8    S    
Cr4   O5    S    
