data_mof_unit_11577.cif
_audit_creation_date              2012-12-10T20:39:58-0500
_audit_creation_method            fapswitch 2.2
_symmetry_space_group_name_H-M    P1
_symmetry_Int_Tables_number       1
_space_group_crystal_system       triclinic
_cell_length_a                    23.224044
_cell_length_b                    10.733959
_cell_length_c                    10.038339
_cell_angle_alpha                 89.26274
_cell_angle_beta                  89.521574
_cell_angle_gamma                 89.380106
_cell_volume                      2501.97875511

loop_
_atom_site_label
_atom_site_type_symbol
_atom_type_description
_atom_site_fract_x
_atom_site_fract_y
_atom_site_fract_z
_atom_type_partial_charge
C1    C     C_R   0.504116 0.260423 0.499997 0.977024
C2    C     C_R   0.966107 0.374152 0.767277 0.155252
C3    C     C_R   0.026345 0.372541 0.766072 -0.121429
C4    C     C_R   0.057481 0.456521 0.686830 -0.033947
C5    C     C_R   0.028625 0.552355 0.616076 -0.044173
C6    C     C_R   0.060054 0.640471 0.539387 -0.203291
C7    C     C_R   0.031514 0.750031 0.489660 0.349016
C8    C     C_R   0.970289 0.754015 0.493629 0.070533
C9    C     C_R   0.117134 0.444521 0.673303 0.555954
C10   C     C_R   0.118704 0.612874 0.515472 0.656050
C11   C     C_R   0.242186 0.591273 0.621880 0.017359
C12   C     C_R   0.388813 0.497930 0.500477 1.128621
C13   C     C_R   0.298299 0.603611 0.572802 0.323398
C14   C     C_R   0.324746 0.503252 0.504320 -0.377753
C15   C     C_R   0.289272 0.405061 0.456316 0.270371
C16   C     C_R   0.228408 0.413861 0.475440 0.296652
C17   C     C_R   0.206398 0.502767 0.565520 0.067640
C18   C     C_R   0.767377 0.414998 0.511461 -0.106780
C19   C     C_R   0.708140 0.403947 0.492690 0.084886
C20   C     C_R   0.672648 0.511519 0.502173 0.048318
C21   C     C_R   0.696942 0.627856 0.533593 0.125768
C22   C     C_R   0.755567 0.634343 0.558895 -0.084383
C23   C     C_R   0.504447 0.738634 0.499480 0.963996
C24   C     C_R   0.790882 0.529018 0.547603 0.215467
C25   C     C_R   0.512988 0.059933 0.618168 0.041723
C26   C     C_R   0.514426 0.127922 0.498293 -0.223308
C27   C     C_R   0.529031 0.062954 0.378732 0.335035
C28   C     C_R   0.526498 0.933452 0.380580 -0.263901
C29   C     C_R   0.515181 0.869359 0.499500 -0.129686
C30   C     C_R   0.516738 0.933036 0.618616 0.006155
C31   C     C_3   0.483154 0.916999 0.744429 -0.411907
C32   C     C_3   0.476563 0.058535 0.743735 0.448668
C33   C     C_R   0.451682 0.532942 0.070970 -0.007344
C34   C     C_R   0.610313 0.500626 0.499797 0.856341
C35   C     C_R   0.549997 0.499763 0.068882 0.431260
C36   C     C_R   0.548747 0.473560 0.930466 0.329049
C37   C     C_R   0.450762 0.526403 0.929219 0.088350
C38   C     C_3   0.397250 0.446758 0.942674 -0.182712
C39   C     C_3   0.393671 0.481325 0.089631 0.294881
C40   C     C_R   0.882309 0.626063 0.505554 0.536189
C41   C     C_R   0.875965 0.463005 0.668523 0.528466
C42   C     C_R   0.936276 0.463079 0.685904 -0.009228
C43   C     C_R   0.968229 0.555310 0.615407 -0.071788
C44   C     C_R   0.939904 0.647068 0.538213 -0.063789
H1    H     H_    0.774105 0.722134 0.587847 0.161754
H2    H     H_    0.530659 0.883383 0.288212 0.244322
H3    H     H_    0.442744 0.865247 0.729803 0.287860
H4    H     H_    0.510564 0.877907 0.825543 0.195271
H5    H     H_    0.049089 0.301708 0.823531 0.202879
H6    H     H_    0.408112 0.346046 0.932372 0.206879
H7    H     H_    0.394134 0.400557 0.158907 0.164898
H8    H     H_    0.795178 0.333711 0.502630 0.171252
N1    N     N_R   0.851209 0.538766 0.574041 -0.343541
N2    N     N_R   0.145677 0.518547 0.584269 -0.321083
N3    N     N_R   0.499610 0.499140 0.142800 -0.180052
N4    N     N_R   0.499610 0.499180 0.857150 -0.197641
O1    O     O_R   0.500010 0.316790 0.614690 -0.566515
O2    O     O_2   0.842071 0.387760 0.742765 -0.558712
O3    O     O_2   0.146344 0.357900 0.745117 -0.521296
O4    O     O_2   0.148436 0.673818 0.419554 -0.422770
O5    O     O_R   0.500000 0.316760 0.385350 -0.547457
O6    O     O_R   0.416160 0.499980 0.614700 -0.608570
O7    O     O_R   0.416150 0.499940 0.385360 -0.560707
O8    O     O_R   0.500000 0.683240 0.614650 -0.615164
O9    O     O_R   0.499990 0.683210 0.385310 -0.562731
O10   O     O_R   0.583850 0.500060 0.614640 -0.551014
O11   O     O_R   0.583840 0.500020 0.385300 -0.543215
O12   O     O_2   0.858334 0.686712 0.400853 -0.534327
Zn1   Zn    Zn3+2 0.500000 0.500020 0.653130 1.068420
Zn2   Zn    Zn3+2 0.500000 0.499980 0.346870 1.127551
C45   C     C_3   0.936229 0.276402 0.851689 -0.717104
H9    H     H_    0.911137 0.213805 0.787469 0.258164
H10   H     H_    0.967252 0.216795 0.907888 0.221778
H11   H     H_    0.907722 0.321818 0.926386 0.277646
C46   C     C_3   0.684833 0.275424 0.470220 -0.718828
H12   H     H_    0.637209 0.272913 0.471124 0.234627
H13   H     H_    0.700856 0.240153 0.373117 0.272702
H14   H     H_    0.699839 0.211365 0.550790 0.234831
C47   C     C_3   0.662138 0.746468 0.545700 -0.830911
H15   H     H_    0.618177 0.736733 0.507354 0.212431
H16   H     H_    0.659643 0.774388 0.651727 0.272614
H17   H     H_    0.682841 0.822046 0.486490 0.243511
S1    S     S_3+6 0.547622 0.134345 0.223489 0.035532
O13   O     O_2   0.592381 0.231874 0.244276 -0.233482
O14   O     O_2   0.571506 0.039379 0.128515 -0.286581
O15   O     O_3   0.488876 0.202587 0.156603 -0.572814
H18   H     H_    0.457404 0.142441 0.171927 0.347967
S2    S     S_3+6 0.402681 0.105170 0.724969 0.055523
O16   O     O_2   0.370008 0.070977 0.849882 -0.232893
O17   O     O_2   0.397932 0.242736 0.701602 -0.307798
O18   O     O_3   0.373964 0.032580 0.595346 -0.501197
H19   H     H_    0.332001 0.038566 0.611973 0.450126
C48   C     C_3   0.504635 0.116979 0.863961 -0.620073
H20   H     H_    0.551552 0.095901 0.866301 0.266440
H21   H     H_    0.497436 0.219217 0.863551 0.252856
H22   H     H_    0.484436 0.076454 0.954527 0.257650
S3    S     S_3+6 0.611651 0.583070 0.120619 0.106675
O19   O     O_2   0.655650 0.494446 0.178302 -0.224165
O20   O     O_2   0.638049 0.648941 0.002453 -0.257773
O21   O     O_3   0.594156 0.693030 0.231423 -0.569962
H23   H     H_    0.630424 0.737987 0.247415 0.378072
S4    S     S_3+6 0.609067 0.386744 0.868245 0.098080
O22   O     O_2   0.633759 0.309258 0.980140 -0.205945
O23   O     O_2   0.592851 0.300271 0.759104 -0.339499
O24   O     O_3   0.660668 0.483252 0.812125 -0.492328
H24   H     H_    0.695039 0.429362 0.798297 0.388295
C49   C     C_3   0.345270 0.482964 0.857052 -0.560727
H25   H     H_    0.304361 0.471392 0.913374 0.276520
H26   H     H_    0.349105 0.579265 0.819052 0.269300
H27   H     H_    0.341891 0.420420 0.771370 0.244251
S5    S     S_3+6 0.342772 0.605205 0.130728 0.078423
O25   O     O_2   0.361995 0.671959 0.252050 -0.248787
O26   O     O_2   0.338220 0.700316 0.020074 -0.244388
O27   O     O_3   0.277557 0.543474 0.160048 -0.505952
H28   H     H_    0.256492 0.606003 0.214043 0.407043
S6    S     S_3+6 0.072331 0.881625 0.429698 0.107786
O28   O     O_2   0.090737 0.857358 0.288424 -0.148158
O29   O     O_2   0.040084 0.003602 0.431194 -0.299939
O30   O     O_3   0.131398 0.898278 0.523454 -0.438066
H29   H     H_    0.116505 0.910918 0.615095 0.336280
C50   C     C_3   0.937840 0.874926 0.466440 -0.657403
H30   H     H_    0.891300 0.870834 0.490059 0.235173
H31   H     H_    0.953033 0.947349 0.535104 0.234842
H32   H     H_    0.943491 0.904422 0.360778 0.276906
C51   C     C_3   0.218896 0.678075 0.728288 -0.611821
H33   H     H_    0.209839 0.771943 0.685893 0.287063
H34   H     H_    0.178667 0.643469 0.775232 0.205805
H35   H     H_    0.250327 0.685169 0.810299 0.271294
S7    S     S_3+6 0.328554 0.754500 0.576580 0.059035
O31   O     O_2   0.284604 0.844410 0.520596 -0.209425
O32   O     O_2   0.341228 0.790123 0.717365 -0.279105
O33   O     O_3   0.388542 0.765521 0.484535 -0.552355
H36   H     H_    0.385304 0.845595 0.434916 0.412797
S8    S     S_3+6 0.318892 0.270780 0.376783 0.109276
O34   O     O_2   0.286910 0.156925 0.422317 -0.171094
O35   O     O_2   0.312516 0.283915 0.228612 -0.233329
O36   O     O_3   0.388419 0.247929 0.411106 -0.567988
H37   H     H_    0.398278 0.166768 0.370540 0.381366
S9    S     S_3+6 0.178782 0.314093 0.392164 0.164606
O37   O     O_2   0.120679 0.375084 0.375524 -0.313691
O38   O     O_2   0.199974 0.280746 0.255444 -0.110931
O39   O     O_3   0.170797 0.182165 0.482574 -0.406954
H38   H     H_    0.135280 0.194707 0.536223 0.384881

loop_
_geom_bond_atom_site_label_1
_geom_bond_atom_site_label_2
_ccdc_geom_bond_type
O5    Zn2   S    
C33   N3    A    
C39   H7    S    
C48   H20   S    
S9    O38   D    
C41   C42   A    
C35   C36   A    
C46   H12   S    
C34   O10   A    
S8    O36   S    
O27   H28   S    
C3    H5    S    
C18   H8    S    
C7    C8    A    
C15   S8    S    
C28   H2    S    
C26   C27   A    
C33   C39   S    
C51   H33   S    
C18   C24   A    
C23   C29   S    
C28   C29   A    
C11   C51   S    
C37   C38   S    
C41   O2    S    
C30   C31   S    
S9    O39   S    
C8    C50   S    
O10   Zn1   S    
O9    Zn2   S    
C32   S2    S    
S6    O28   D    
S4    O24   S    
C36   S4    S    
C18   C19   A    
C38   C49   S    
C50   H32   S    
C37   N4    A    
C19   C20   A    
O33   H36   S    
C51   H35   S    
C49   H25   S    
O7    Zn2   S    
S7    O33   S    
C20   C34   S    
C25   C32   S    
C39   S5    S    
C32   C48   S    
C5    C43   A    
C48   H21   S    
C31   H3    S    
C13   C14   A    
C49   H26   S    
S3    O20   D    
S3    O19   D    
C38   C39   S    
C15   C16   A    
C35   N3    A    
O18   H19   S    
C45   H10   S    
C12   O7    A    
O15   H18   S    
C16   C17   A    
S8    O35   D    
C24   N1    S    
C33   C37   A    
O6    Zn1   S    
C9    O3    S    
C7    S6    S    
C10   O4    S    
C43   C44   A    
C29   C30   A    
C36   N4    A    
C1    O1    A    
C45   H11   S    
C12   O6    A    
S1    O13   D    
S2    O18   S    
S9    O37   D    
C21   C47   S    
S1    O15   S    
S5    O26   D    
O8    Zn1   S    
C20   C21   A    
S4    O23   D    
C46   H13   S    
C41   N1    A    
C50   H30   S    
S8    O34   D    
C23   O8    A    
S1    O14   D    
C12   C14   S    
N4    Zn1   S    
C48   H22   S    
C31   H4    S    
C1    C26   S    
C49   H27   S    
C22   C24   A    
C16   S9    S    
C42   C43   A    
C2    C45   S    
S3    O21   S    
C47   H16   S    
S7    O31   D    
O36   H37   S    
C25   C30   A    
C11   C17   A    
S5    O25   D    
O39   H38   S    
C31   C32   S    
C8    C44   A    
S2    O17   D    
C4    C5    A    
C1    O5    A    
C34   O11   A    
C6    C10   A    
C47   H17   S    
O30   H29   S    
C6    C7    A    
C38   H6    S    
O24   H24   S    
S6    O30   S    
O11   Zn2   S    
C23   O9    A    
C27   S1    S    
C2    C3    A    
C25   C26   A    
C45   H9    S    
C35   S3    S    
C11   C13   A    
C5    C6    A    
C2    C42   A    
C19   C46   S    
O21   H23   S    
S6    O29   D    
S5    O27   S    
S4    O22   D    
C10   N2    A    
C46   H14   S    
C50   H31   S    
N3    Zn2   S    
C47   H15   S    
C40   C44   A    
C22   H1    S    
S2    O16   D    
C40   N1    A    
C40   O12   S    
C27   C28   A    
C51   H34   S    
C13   S7    S    
C14   C15   A    
C9    N2    A    
O1    Zn1   S    
C4    C9    A    
C21   C22   A    
C17   N2    S    
C3    C4    A    
S7    O32   D    
