data_mof_unit_31923.cif
_audit_creation_date              2012-12-10T18:38:35-0500
_audit_creation_method            fapswitch 2.2
_symmetry_space_group_name_H-M    P1
_symmetry_Int_Tables_number       1
_space_group_crystal_system       triclinic
_cell_length_a                    15.870482
_cell_length_b                    15.11744
_cell_length_c                    13.920186
_cell_angle_alpha                 89.205128
_cell_angle_beta                  90.025057
_cell_angle_gamma                 90.972581
_cell_volume                      3338.94321685

loop_
_atom_site_label
_atom_site_type_symbol
_atom_type_description
_atom_site_fract_x
_atom_site_fract_y
_atom_site_fract_z
_atom_type_partial_charge
C1    C     C_R   0.498586 0.330149 0.500514 0.880112
C2    C     C_R   0.498521 0.670231 0.499070 0.866132
C3    C     C_R   0.436806 0.187588 0.560244 0.388743
C4    C     C_R   0.463659 0.812388 0.414151 0.374274
C5    C     C_R   0.494817 0.233820 0.501182 -0.217041
C6    C     C_R   0.494883 0.767233 0.496068 -0.216194
C7    C     C_R   0.547408 0.188732 0.439106 -0.380410
C8    C     C_R   0.522204 0.814572 0.576126 -0.384750
C9    C     C_R   0.546423 0.096946 0.438145 0.432194
C10   C     C_R   0.521877 0.906714 0.575219 0.419994
C11   C     C_R   0.489098 0.049226 0.497059 -0.110699
C12   C     C_R   0.489463 0.952208 0.495112 -0.116122
C13   C     C_R   0.566973 0.535107 0.106475 -0.369614
C14   C     C_R   0.460251 0.433766 0.894034 -0.397495
C15   C     C_R   0.565206 0.538578 0.207605 0.535895
C16   C     C_R   0.455479 0.436909 0.792828 0.536547
C17   C     C_R   0.433693 0.462052 0.209334 0.468664
C18   C     C_R   0.543667 0.564966 0.789884 0.457215
C19   C     C_R   0.427556 0.470988 0.108209 0.279538
C20   C     C_R   0.535925 0.572430 0.890998 0.252649
C21   C     C_R   0.497314 0.503216 0.054368 -0.024286
C22   C     C_R   0.498219 0.503083 0.945372 -0.017711
C23   C     C_R   0.339963 0.499755 0.499981 0.821978
C24   C     C_R   0.660051 0.500343 0.500059 0.790072
C25   C     C_3   0.970762 0.436543 0.558248 0.360019
C26   C     C_3   0.029352 0.564855 0.444436 0.366944
C27   C     C_3   0.026043 0.420557 0.468680 -0.408696
C28   C     C_3   0.974042 0.580855 0.534013 -0.409149
C29   C     C_1   0.250521 0.499411 0.500084 -0.165256
C30   C     C_1   0.749526 0.501183 0.500390 -0.167371
C31   C     C_3   0.028450 0.513070 0.589549 0.359879
C32   C     C_3   0.971711 0.488330 0.413142 0.364919
C33   C     C_3   0.083717 0.498919 0.500710 0.018784
C34   C     C_3   0.916379 0.502459 0.501927 0.017161
C35   C     C_1   0.175131 0.499137 0.500425 0.084217
C36   C     C_1   0.824935 0.501898 0.501130 0.084646
C37   C     C_R   0.432858 0.094357 0.557825 0.326006
C38   C     C_R   0.459548 0.905531 0.414022 0.323402
Cu1   Cu    Cu3+1 0.500000 0.499990 0.596430 1.004411
Cu2   Cu    Cu3+1 0.500000 0.500010 0.403570 1.013238
H1    H     H_    0.046875 0.355551 0.442204 0.179691
H2    H     H_    0.953132 0.645797 0.560608 0.174213
H3    H     H_    0.590716 0.224940 0.392235 0.194203
H4    H     H_    0.545045 0.780223 0.639521 0.220448
H5    H     H_    0.623332 0.557602 0.069335 0.214724
H6    H     H_    0.433172 0.377399 0.932031 0.214313
N1    N     N_R   0.500000 0.500020 0.258690 -0.270114
N2    N     N_R   0.500000 0.499980 0.741310 -0.270207
O1    O     O_R   0.500010 0.371450 0.581430 -0.497954
O2    O     O_R   0.499990 0.628550 0.418570 -0.544318
O3    O     O_R   0.500010 0.371460 0.418560 -0.618803
O4    O     O_R   0.499990 0.628540 0.581440 -0.553620
O5    O     O_R   0.379080 0.499990 0.581420 -0.589210
O6    O     O_R   0.620920 0.500010 0.418580 -0.521326
O7    O     O_R   0.379080 0.500000 0.418550 -0.524073
O8    O     O_R   0.620920 0.500000 0.581450 -0.597944
O9    O     O_3   0.368531 0.419725 0.258272 -0.580699
C39   C     C_3   0.383391 0.327629 0.265253 0.125623
H7    H     H_    0.367982 0.306443 0.340029 0.170645
H8    H     H_    0.450240 0.309025 0.251975 0.121862
C40   C     C_3   0.325127 0.276013 0.197702 -0.370621
H9    H     H_    0.259308 0.298662 0.206213 0.236814
H10   H     H_    0.344964 0.287747 0.122133 0.250142
C41   C     C_3   0.328193 0.176742 0.218995 -0.900401
H11   H     H_    0.393476 0.152629 0.210439 0.268998
H12   H     H_    0.286391 0.140862 0.168175 0.268710
H13   H     H_    0.306349 0.162062 0.293434 0.256387
O10   O     O_3   0.590152 0.628520 0.739848 -0.600334
C42   C     C_3   0.676561 0.605984 0.738985 0.108826
H14   H     H_    0.702054 0.627731 0.668011 0.163475
H15   H     H_    0.687589 0.533340 0.745361 0.134033
C43   C     C_3   0.726362 0.654355 0.817293 -0.362847
H16   H     H_    0.716081 0.620267 0.887547 0.242010
H17   H     H_    0.704501 0.723404 0.822642 0.248847
C44   C     C_3   0.820764 0.655522 0.796036 -0.931543
H18   H     H_    0.844022 0.586898 0.790151 0.264464
H19   H     H_    0.855132 0.688984 0.855176 0.267713
H20   H     H_    0.834092 0.692233 0.727882 0.252362
O11   O     O_3   0.353770 0.444382 0.063296 -0.627504
C45   C     C_3   0.304564 0.518988 0.040359 0.049076
H21   H     H_    0.267775 0.503048 0.974729 0.166008
H22   H     H_    0.342807 0.579643 0.022505 0.121963
C46   C     C_3   0.242969 0.537603 0.122095 -0.303226
H23   H     H_    0.206527 0.476220 0.140415 0.234152
H24   H     H_    0.278612 0.558701 0.186781 0.244627
C47   C     C_3   0.181887 0.610384 0.094022 -0.893266
H25   H     H_    0.217031 0.672746 0.076662 0.256751
H26   H     H_    0.138551 0.622545 0.154874 0.281749
H27   H     H_    0.143837 0.590264 0.030731 0.254279
O12   O     O_3   0.567261 0.646692 0.936504 -0.627405
C48   C     C_3   0.508543 0.715303 0.927054 0.073859
H28   H     H_    0.444451 0.692809 0.950791 0.126612
H29   H     H_    0.505610 0.738954 0.851022 0.171796
C49   C     C_3   0.536795 0.792000 0.990345 -0.361063
H30   H     H_    0.536535 0.769545 0.066676 0.226538
H31   H     H_    0.602112 0.812994 0.970811 0.226826
C50   C     C_3   0.478657 0.870806 0.979193 -0.882622
H32   H     H_    0.478511 0.895070 0.903497 0.266671
H33   H     H_    0.501167 0.925265 0.025910 0.267184
H34   H     H_    0.413391 0.851716 0.000763 0.260553
O13   O     O_3   0.938346 0.370601 0.619875 -0.713890
H35   H     H_    0.988221 0.339587 0.645629 0.330936
O14   O     O_3   0.061894 0.630735 0.382803 -0.709282
H36   H     H_    0.012108 0.662066 0.357309 0.331853
O15   O     O_3   0.940284 0.477565 0.320138 -0.704345
H37   H     H_    0.990566 0.470133 0.279004 0.331797
O16   O     O_3   0.060011 0.523782 0.682508 -0.726844
H38   H     H_    0.009834 0.531854 0.723637 0.332229
O17   O     O_3   0.373260 0.050417 0.614269 -0.725803
H39   H     H_    0.367521 0.987915 0.595039 0.343049
O18   O     O_3   0.424920 0.947876 0.334822 -0.728832
H40   H     H_    0.413230 0.010292 0.349348 0.337522
O19   O     O_3   0.382129 0.235752 0.615417 -0.705660
H41   H     H_    0.344110 0.195542 0.652423 0.365716
O20   O     O_3   0.434143 0.763569 0.337300 -0.726020
H42   H     H_    0.418369 0.803101 0.283237 0.366476
O21   O     O_3   0.598313 0.054771 0.374212 -0.583049
C51   C     C_3   0.673442 0.030243 0.421397 0.063390
H43   H     H_    0.664571 0.962960 0.453355 0.137457
H44   H     H_    0.692821 0.076921 0.479292 0.128379
C52   C     C_3   0.744618 0.028337 0.347687 -0.321886
H45   H     H_    0.724892 0.987389 0.285748 0.236552
H46   H     H_    0.757888 0.096703 0.320680 0.225578
C53   C     C_3   0.824800 0.990591 0.391345 -0.919925
H47   H     H_    0.846306 0.031430 0.452691 0.262920
H48   H     H_    0.875321 0.990725 0.336189 0.266325
H49   H     H_    0.813334 0.921416 0.416680 0.249544
O22   O     O_3   0.546736 0.953087 0.655856 -0.579502
C54   C     C_3   0.634507 0.945368 0.671559 0.054046
H50   H     H_    0.664666 0.011083 0.657072 0.154269
H51   H     H_    0.666317 0.896771 0.624515 0.114233
C55   C     C_3   0.649502 0.919176 0.776460 -0.326166
H52   H     H_    0.620430 0.968558 0.824104 0.238750
H53   H     H_    0.618960 0.853750 0.791089 0.217171
C56   C     C_3   0.743366 0.913891 0.799155 -0.927668
H54   H     H_    0.773839 0.864814 0.752387 0.260183
H55   H     H_    0.751860 0.893007 0.875295 0.257922
H56   H     H_    0.774473 0.979601 0.787999 0.265284
O23   O     O_3   0.633084 0.575964 0.254893 -0.573960
C57   C     C_3   0.627319 0.669364 0.253664 0.114862
H57   H     H_    0.637194 0.692101 0.328462 0.169162
H58   H     H_    0.564760 0.694841 0.230202 0.144729
C58   C     C_3   0.696932 0.710179 0.190326 -0.397041
H59   H     H_    0.758521 0.681272 0.210480 0.249845
H60   H     H_    0.684127 0.695256 0.113778 0.225932
C59   C     C_3   0.702462 0.810285 0.201991 -0.918316
H61   H     H_    0.641462 0.841002 0.183075 0.267367
H62   H     H_    0.752202 0.838387 0.153912 0.262103
H63   H     H_    0.718832 0.826416 0.277399 0.259329
O24   O     O_3   0.407658 0.373878 0.745778 -0.537994
C60   C     C_3   0.320838 0.394273 0.752383 0.150372
H64   H     H_    0.292703 0.384604 0.680156 0.192453
H65   H     H_    0.308399 0.464382 0.771930 0.104575
C61   C     C_3   0.275127 0.330970 0.822557 -0.414638
H66   H     H_    0.288642 0.261473 0.803708 0.245456
H67   H     H_    0.297304 0.342417 0.896928 0.230209
C62   C     C_3   0.180029 0.344458 0.819582 -0.856119
H68   H     H_    0.164994 0.413258 0.839803 0.268431
H69   H     H_    0.148559 0.298070 0.871243 0.257601
H70   H     H_    0.155071 0.331400 0.746453 0.262047

loop_
_geom_bond_atom_site_label_1
_geom_bond_atom_site_label_2
_ccdc_geom_bond_type
C25   C31   S    
Cu2   N1    S    
C24   O6    A    
C26   C32   S    
O13   H35   S    
C56   H56   S    
C9    O21   S    
C4    O20   S    
O18   H40   S    
C57   C58   S    
C15   N1    A    
O22   C54   S    
C16   N2    A    
C51   H44   S    
C50   H32   S    
O12   C48   S    
C56   H54   S    
C14   H6    S    
C27   C33   S    
C62   H68   S    
C1    C5    S    
C23   C29   S    
C19   C21   A    
C57   H58   S    
C54   H50   S    
C42   H14   S    
C45   C46   S    
C59   H62   S    
C47   H26   S    
C18   O10   S    
C58   H59   S    
C58   H60   S    
C40   H10   S    
C60   C61   S    
C11   C37   A    
C51   H43   S    
C52   C53   S    
C2    O2    A    
C17   C19   A    
C46   H23   S    
O10   C42   S    
C60   H64   S    
C31   C33   S    
C7    H3    S    
C61   H67   S    
C25   C34   S    
C54   C55   S    
C39   C40   S    
Cu1   O4    S    
C28   C34   S    
C62   H69   S    
C21   C22   S    
C2    C6    S    
C43   C44   S    
C10   O22   S    
C34   C36   S    
C50   H33   S    
C23   O5    A    
C15   O23   S    
C37   O17   S    
O23   C57   S    
C42   H15   S    
C59   H61   S    
C41   H13   S    
C17   N1    A    
C57   H57   S    
C61   C62   S    
C43   H17   S    
C3    O19   S    
C58   C59   S    
Cu1   Cu2   S    
C5    C7    A    
C47   H25   S    
C45   H21   S    
C6    C8    A    
C49   C50   S    
C39   H7    S    
C20   O12   S    
C55   H53   S    
C51   C52   S    
C32   C34   S    
C40   C41   S    
C19   O11   S    
C44   H18   S    
C2    O4    A    
C26   O14   S    
C48   H29   S    
C59   H63   S    
C9    C11   A    
C27   H1    S    
C26   C33   S    
Cu1   O8    S    
O16   H38   S    
Cu2   O7    S    
C61   H66   S    
C13   C21   A    
C49   H30   S    
C49   H31   S    
C1    O3    A    
C52   H45   S    
C10   C12   A    
C53   H49   S    
C4    C6    A    
C46   H24   S    
C4    C38   A    
C62   H70   S    
Cu2   O6    S    
C32   O15   S    
C13   C15   A    
C14   C16   A    
C24   O8    A    
C48   H28   S    
C42   C43   S    
C53   H48   S    
O19   H41   S    
C56   H55   S    
C50   H34   S    
Cu1   O1    S    
C27   C32   S    
C31   O16   S    
C28   C31   S    
C8    H4    S    
C20   C22   A    
C43   H16   S    
C3    C5    A    
C47   H27   S    
C18   N2    A    
C11   C12   S    
C23   O7    A    
C25   C27   S    
Cu2   O3    S    
O15   H37   S    
C29   C35   T    
C26   C28   S    
C30   C36   T    
C41   H11   S    
C14   C22   A    
O17   H39   S    
C48   C49   S    
C13   H5    S    
C25   O13   S    
O9    C39   S    
Cu1   O5    S    
C1    O1    A    
C55   C56   S    
Cu2   O2    S    
C28   H2    S    
C33   C35   S    
C45   H22   S    
C55   H52   S    
C18   C20   A    
C60   H65   S    
C12   C38   A    
C40   H9    S    
C44   H20   S    
C24   C30   S    
C52   H46   S    
O11   C45   S    
C7    C9    A    
C46   C47   S    
C3    C37   A    
C8    C10   A    
C44   H19   S    
C17   O9    S    
O14   H36   S    
O24   C60   S    
C53   H47   S    
C16   O24   S    
C38   O18   S    
O21   C51   S    
C39   H8    S    
O20   H42   S    
C41   H12   S    
Cu1   N2    S    
C54   H51   S    
