data_mof_unit_18212.cif
_audit_creation_date              2013-03-05T15:49:12-0500
_audit_creation_method            fapswitch 2.2
_symmetry_space_group_name_H-M    P1
_symmetry_Int_Tables_number       1
_space_group_crystal_system       triclinic
_cell_length_a                    17.707508
_cell_length_b                    24.711879
_cell_length_c                    15.001749
_cell_angle_alpha                 90.121877
_cell_angle_beta                  126.325627
_cell_angle_gamma                 89.749648
_cell_volume                      5288.7681989

loop_
_atom_site_label
_atom_site_type_symbol
_atom_site_description
_atom_site_fract_x
_atom_site_fract_y
_atom_site_fract_z
_atom_type_partial_charge
C1    C     C_R   0.340812 0.147583 0.907738 -0.002822
C2    C     C_R   0.348111 0.849945 0.908637 0.025074
C3    C     C_R   0.840817 0.647585 0.907741 -0.002884
C4    C     C_R   0.848137 0.349936 0.908636 0.024727
H1    H     H_    0.289295 0.157793 0.821984 0.177109
H2    H     H_    0.301543 0.838525 0.823014 0.156650
H3    H     H_    0.789310 0.657799 0.821987 0.177084
H4    H     H_    0.801571 0.338522 0.823013 0.156883
N1    N     N_R   0.392450 0.103580 0.942190 -0.062403
N2    N     N_R   0.392450 0.896420 0.942190 -0.062148
N3    N     N_R   0.892450 0.603580 0.942190 -0.062394
N4    N     N_R   0.892450 0.396420 0.942190 -0.062152
C5    C     C_R   0.443128 0.849248 0.093411 -0.138025
C6    C     C_R   0.438519 0.149608 0.093534 -0.135015
C7    C     C_R   0.943156 0.349241 0.093409 -0.138355
C8    C     C_R   0.938516 0.649606 0.093537 -0.135181
N5    N     N_R   0.450490 0.896000 0.057360 -0.054939
N6    N     N_R   0.450490 0.104000 0.057360 -0.083250
N7    N     N_R   0.950490 0.396000 0.057360 -0.054953
N8    N     N_R   0.950490 0.604000 0.057360 -0.083256
C9    C     C_R   0.535847 0.045792 0.297208 -0.018286
C10   C     C_R   0.532519 0.955218 0.296139 -0.018736
C11   C     C_R   0.035823 0.545793 0.297192 -0.018482
C12   C     C_R   0.032491 0.455218 0.296122 -0.018804
H5    H     H_    0.547605 0.087333 0.323154 0.147823
H6    H     H_    0.539933 0.914022 0.322373 0.132832
H7    H     H_    0.047586 0.587334 0.323142 0.147729
H8    H     H_    0.039893 0.414023 0.322356 0.132797
N9    N     N_R   0.525490 0.028390 0.207550 -0.063738
N10   N     N_R   0.525490 0.971610 0.207550 -0.050599
N11   N     N_R   0.025490 0.528390 0.207550 -0.063716
N12   N     N_R   0.025490 0.471610 0.207550 -0.050576
C13   C     C_R   0.243086 0.954607 0.694364 0.009327
C14   C     C_R   0.242703 0.045396 0.694291 -0.005186
C15   C     C_R   0.743084 0.454606 0.694367 0.009228
C16   C     C_R   0.742699 0.545396 0.694294 -0.005156
N13   N     N_R   0.317450 0.971190 0.792000 -0.063614
N14   N     N_R   0.317450 0.028810 0.792000 -0.064265
N15   N     N_R   0.817450 0.471190 0.792000 -0.063620
N16   N     N_R   0.817450 0.528810 0.792000 -0.064264
C17   C     C_R   0.365066 0.176669 0.000256 0.037082
C18   C     C_R   0.375052 0.819761 0.001182 0.031611
C19   C     C_R   0.865065 0.676669 0.000260 0.037190
C20   C     C_R   0.875094 0.319744 0.001176 0.031233
C21   C     C_R   0.539729 0.000789 0.353693 0.030502
C22   C     C_R   0.039692 0.500790 0.353668 0.030617
C23   C     C_R   0.192215 0.999994 0.636892 0.017614
C24   C     C_R   0.692210 0.499993 0.636898 0.017668
C25   C     C_R   0.521592 0.045397 0.755848 -0.034987
C26   C     C_R   0.522139 0.954649 0.755775 -0.041043
C27   C     C_R   0.021593 0.545400 0.755854 -0.034969
C28   C     C_R   0.022139 0.454652 0.755772 -0.041025
H9    H     H_    0.526157 0.087103 0.739760 0.151812
H10   H     H_    0.526195 0.913089 0.737218 0.143328
H11   H     H_    0.026172 0.587109 0.739793 0.151779
H12   H     H_    0.026194 0.413093 0.737206 0.143368
N17   N     N_R   0.473900 0.028390 0.792280 -0.056919
N18   N     N_R   0.473900 0.971610 0.792280 -0.057782
N19   N     N_R   0.973900 0.528390 0.792280 -0.056917
N20   N     N_R   0.973900 0.471610 0.792280 -0.057774
C29   C     C_R   0.767994 0.953851 0.248478 -0.023943
C30   C     C_R   0.768658 0.045219 0.250323 -0.028012
C31   C     C_R   0.267995 0.453852 0.248474 -0.024002
C32   C     C_R   0.268654 0.545221 0.250309 -0.027901
H13   H     H_    0.791023 0.912146 0.265282 0.110782
H14   H     H_    0.793631 0.086242 0.272101 0.112211
H15   H     H_    0.291027 0.412148 0.265283 0.110799
H16   H     H_    0.293619 0.586247 0.272066 0.112209
N21   N     N_R   0.682310 0.971180 0.208170 -0.040059
N22   N     N_R   0.682310 0.028820 0.208170 -0.059323
N23   N     N_R   0.182310 0.471180 0.208170 -0.040038
N24   N     N_R   0.182310 0.528820 0.208170 -0.059335
C33   C     C_R   0.662506 0.145907 0.090654 -0.149707
C34   C     C_R   0.647179 0.848106 0.089134 -0.097781
C35   C     C_R   0.162460 0.645930 0.090645 -0.149624
C36   C     C_R   0.147190 0.348110 0.089142 -0.097627
H17   H     H_    0.713200 0.158145 0.175507 0.105462
H18   H     H_    0.693601 0.835488 0.174490 0.160086
H19   H     H_    0.213154 0.658169 0.175499 0.105450
H20   H     H_    0.193613 0.335494 0.174499 0.160133
N25   N     N_R   0.606470 0.103570 0.057210 -0.057239
N26   N     N_R   0.606470 0.896430 0.057210 -0.051832
N27   N     N_R   0.106470 0.603570 0.057210 -0.057213
N28   N     N_R   0.106470 0.396430 0.057210 -0.051822
C37   C     C_R   0.554540 0.849222 0.906086 0.021974
C38   C     C_R   0.563407 0.147739 0.906200 -0.002251
C39   C     C_R   0.054552 0.349223 0.906092 0.021943
C40   C     C_R   0.063364 0.647755 0.906196 -0.002218
H21   H     H_    0.515435 0.841132 0.819319 0.172739
H22   H     H_    0.517612 0.161614 0.822010 0.157176
H23   H     H_    0.015465 0.341132 0.819326 0.172774
H24   H     H_    0.017553 0.661629 0.822005 0.157181
N29   N     N_R   0.549740 0.896000 0.943240 -0.064195
N30   N     N_R   0.549740 0.104000 0.943240 -0.044799
N31   N     N_R   0.049740 0.396000 0.943240 -0.064168
N32   N     N_R   0.049740 0.604000 0.943240 -0.044782
Ni1   Ni    Ni4+2 0.433780 0.065390 0.868430 0.301278
Ni2   Ni    Ni4+2 0.433780 0.934610 0.868430 0.306150
Ni3   Ni    Ni4+2 0.933780 0.565390 0.868430 0.301271
Ni4   Ni    Ni4+2 0.933780 0.434610 0.868430 0.306131
Ni5   Ni    Ni4+2 0.565800 0.934190 0.131570 0.308205
Ni6   Ni    Ni4+2 0.565800 0.065810 0.131570 0.240059
Ni7   Ni    Ni4+2 0.065800 0.434190 0.131570 0.308208
Ni8   Ni    Ni4+2 0.065800 0.565810 0.131570 0.240041
C41   C     C_R   0.551264 0.000147 0.729582 0.086854
C42   C     C_R   0.051255 0.500152 0.729573 0.086833
C43   C     C_R   0.822207 0.999336 0.274522 0.162290
C44   C     C_R   0.322206 0.499339 0.274513 0.162337
C45   C     C_R   0.640025 0.171569 0.995845 0.080171
C46   C     C_R   0.617362 0.817829 0.995275 0.077201
C47   C     C_R   0.139956 0.671601 0.995833 0.080097
C48   C     C_R   0.117380 0.317833 0.995288 0.076655
C49   C     C_3   0.025330 0.955947 0.508518 0.213770
C50   C     C_3   0.024158 0.043496 0.507045 0.199692
C51   C     C_3   0.525325 0.455941 0.508502 0.213785
C52   C     C_3   0.524151 0.543491 0.507060 0.199661
C53   C     C_3   0.954222 0.999646 0.481848 0.249424
C54   C     C_3   0.454215 0.499638 0.481843 0.249405
C55   C     C_3   0.920736 0.999125 0.361133 -0.105227
C56   C     C_3   0.420734 0.499130 0.361129 -0.105222
C57   C     C_3   0.991773 0.953983 0.386999 -0.310502
C58   C     C_3   0.990609 0.044428 0.385523 -0.290652
C59   C     C_3   0.491773 0.453992 0.386984 -0.310488
C60   C     C_3   0.490608 0.544436 0.385541 -0.290599
C61   C     C_3   0.063012 0.999288 0.415137 0.362378
C62   C     C_3   0.563013 0.499300 0.415142 0.362355
C63   C     C_3   0.097600 0.999828 0.536016 -0.302975
C64   C     C_3   0.597596 0.499827 0.536020 -0.302990
H25   H     H_    0.977628 0.917430 0.336187 0.195040
H26   H     H_    0.975621 0.080614 0.333625 0.209207
H27   H     H_    0.477631 0.417444 0.336159 0.195045
H28   H     H_    0.475625 0.580630 0.333664 0.209290
C65   C     C_3   0.288127 0.794701 0.077553 -0.314401
C66   C     C_3   0.289942 0.200572 0.094143 -0.362139
C67   C     C_3   0.788213 0.294674 0.077617 -0.315121
C68   C     C_3   0.789902 0.700558 0.094107 -0.362166
H29   H     H_    0.349375 0.788352 0.164235 0.091667
H30   H     H_    0.358583 0.200565 0.175373 0.201385
H31   H     H_    0.849475 0.288314 0.164282 0.091708
H32   H     H_    0.858532 0.700550 0.175351 0.201280
C69   C     C_3   0.711713 0.257971 0.060957 -0.447541
C70   C     C_3   0.731659 0.745004 0.100208 -0.457853
C71   C     C_3   0.211606 0.758012 0.060870 -0.447810
C72   C     C_3   0.231716 0.245027 0.100256 -0.458014
H33   H     H_    0.143007 0.779457 0.019096 0.240910
H34   H     H_    0.182064 0.228526 0.115625 0.278260
H35   H     H_    0.643116 0.279410 0.019235 0.241016
H36   H     H_    0.681983 0.728492 0.115529 0.278291
H37   H     H_    0.731518 0.246409 0.144002 0.188691
H38   H     H_    0.780783 0.770836 0.173165 0.170310
H39   H     H_    0.231370 0.746470 0.143906 0.188710
H40   H     H_    0.280854 0.270870 0.173187 0.170370
H41   H     H_    0.830893 0.182134 0.137440 0.036171
H42   H     H_    0.787942 0.839981 0.067496 0.064474
H43   H     H_    0.330857 0.682253 0.137494 0.036028
H44   H     H_    0.287939 0.339996 0.067434 0.064501
C73   C     C_3   0.865386 0.218517 0.032931 0.050639
C74   C     C_3   0.834082 0.775890 0.009409 0.102688
C75   C     C_3   0.365335 0.718522 0.032900 0.050223
C76   C     C_3   0.334071 0.275890 0.009367 0.102684
C77   C     C_3   0.222230 0.772680 0.878416 -0.375537
C78   C     C_3   0.198564 0.209003 0.886323 -0.453726
C79   C     C_3   0.722167 0.272729 0.878452 -0.375022
C80   C     C_3   0.698572 0.709016 0.886300 -0.453758
C81   C     C_3   0.315940 0.776818 0.998937 -0.008044
C82   C     C_3   0.299643 0.215188 0.998221 -0.028519
C83   C     C_3   0.815965 0.276812 0.998930 -0.007469
C84   C     C_3   0.799639 0.715188 0.998221 -0.028390
H45   H     H_    0.235434 0.763227 0.816486 0.231066
H46   H     H_    0.197137 0.226570 0.817653 0.274613
H47   H     H_    0.735124 0.263405 0.816284 0.231413
H48   H     H_    0.697179 0.726584 0.817655 0.274575
H49   H     H_    0.184634 0.812176 0.851627 0.214398
H50   H     H_    0.178362 0.165711 0.865143 0.180980
H51   H     H_    0.684574 0.312226 0.851886 0.214174
H52   H     H_    0.678360 0.665725 0.865101 0.181049
C85   C     C_3   0.700989 0.208231 0.991144 -0.013454
C86   C     C_3   0.678295 0.779015 0.991750 -0.066561
C87   C     C_3   0.200925 0.708257 0.991122 -0.013357
C88   C     C_3   0.178314 0.279017 0.991772 -0.066406
C89   C     C_3   0.801145 0.181661 0.047856 0.111978
C90   C     C_3   0.754836 0.813108 0.993417 0.084830
C91   C     C_3   0.301103 0.681697 0.047910 0.112367
C92   C     C_3   0.254826 0.313108 0.993377 0.084930
C93   C     C_3   0.657099 0.230279 0.871415 0.181498
C94   C     C_3   0.625376 0.736029 0.895069 0.245519
C95   C     C_3   0.157075 0.730289 0.871387 0.181746
C96   C     C_3   0.125386 0.236012 0.895131 0.245346
H53   H     H_    0.090406 0.751466 0.842767 0.134769
H54   H     H_    0.099463 0.203937 0.922832 0.168986
H55   H     H_    0.590388 0.251404 0.842789 0.134667
H56   H     H_    0.599412 0.703954 0.922717 0.169303
C97   C     C_3   0.594476 0.054335 0.625454 -0.269827
C98   C     C_3   0.614916 0.953448 0.639230 -0.267888
C99   C     C_3   0.094381 0.554359 0.625379 -0.269770
C100  C     C_3   0.114932 0.453474 0.639235 -0.267853
H57   H     H_    0.551400 0.089422 0.616811 0.229441
H58   H     H_    0.589525 0.913625 0.645323 0.217713
H59   H     H_    0.051282 0.589432 0.616745 0.229353
H60   H     H_    0.089539 0.413644 0.645292 0.217789
H61   H     H_    0.667173 0.060556 0.701030 0.237402
H62   H     H_    0.688884 0.957850 0.713314 0.230561
H63   H     H_    0.167086 0.560596 0.700928 0.237490
H64   H     H_    0.188885 0.457881 0.713349 0.230549
C101  C     C_3   0.593560 0.053745 0.522917 -0.390484
C102  C     C_3   0.609952 0.953776 0.533595 -0.362822
C103  C     C_3   0.093408 0.553781 0.522807 -0.390678
C104  C     C_3   0.110030 0.453825 0.533641 -0.362568
H65   H     H_    0.666667 0.056189 0.548350 0.223483
H66   H     H_    0.681910 0.958906 0.556500 0.223607
H67   H     H_    0.166489 0.556292 0.548193 0.223433
H68   H     H_    0.181990 0.459034 0.556593 0.223610
H69   H     H_    0.556786 0.090855 0.474313 0.220909
H70   H     H_    0.586955 0.913410 0.494620 0.218398
H71   H     H_    0.056524 0.590862 0.474153 0.220951
H72   H     H_    0.087177 0.413442 0.494715 0.218396
H73   H     H_    0.403452 0.021038 0.532717 0.230676
H74   H     H_    0.426763 0.952027 0.535137 0.212095
H75   H     H_    0.903435 0.521038 0.532676 0.230689
H76   H     H_    0.926741 0.452019 0.535191 0.212066
C105  C     C_3   0.451280 0.992672 0.530703 -0.478323
C106  C     C_3   0.951257 0.492652 0.530695 -0.478239
C107  C     C_3   0.554429 0.000371 0.634180 0.104479
C108  C     C_3   0.054402 0.500379 0.634157 0.104389
C109  C     C_3   0.545360 0.001058 0.455132 0.026076
C110  C     C_3   0.045326 0.501057 0.455106 0.026041
C111  C     C_3   0.442482 0.997969 0.422420 0.556876
C112  C     C_3   0.942455 0.497890 0.422400 0.556879
N33   N     N_R   0.040457 0.908328 0.574695 0.240661
O1    O     O_R   0.021085 0.860391 0.530509 -0.365330
O2    O     O_R   0.069894 0.913680 0.676854 -0.318660
N34   N     N_R   0.038057 0.091682 0.571493 0.243853
O3    O     O_R   0.017538 0.139256 0.525622 -0.362097
O4    O     O_R   0.067647 0.087204 0.673836 -0.338815
N35   N     N_R   0.540450 0.408315 0.574659 0.240665
O5    O     O_R   0.521069 0.360383 0.530452 -0.365291
O6    O     O_R   0.569887 0.413656 0.676821 -0.318792
N36   N     N_R   0.538049 0.591669 0.571527 0.243851
O7    O     O_R   0.517532 0.639247 0.525675 -0.362119
O8    O     O_R   0.567637 0.587179 0.673867 -0.338786
N37   N     N_R   0.122717 0.999152 0.378132 0.262987
O9    O     O_R   0.085025 0.998992 0.272873 -0.246895
O10   O     O_R   0.213485 0.999181 0.449452 -0.406024
N38   N     N_R   0.622721 0.499175 0.378143 0.262993
O11   O     O_R   0.585033 0.499027 0.272885 -0.246852
O12   O     O_R   0.713489 0.499200 0.449467 -0.406026
C113  C     C_2   0.260472 0.853805 0.069047 0.690457
H77   H     H_    0.307256 0.881032 0.136740 0.058634
O13   O     O_2   0.187682 0.871661 0.986861 -0.506257
C114  C     C_2   0.251851 0.143616 0.082072 0.763050
H78   H     H_    0.283877 0.109730 0.069870 0.038267
O14   O     O_2   0.186374 0.134509 0.086450 -0.471243
C115  C     C_2   0.760586 0.353781 0.069185 0.691171
H79   H     H_    0.807562 0.381034 0.136742 0.058098
O15   O     O_2   0.687630 0.371617 0.987189 -0.506174
C116  C     C_2   0.751824 0.643597 0.082014 0.762773
H80   H     H_    0.784022 0.609705 0.070099 0.038498
O16   O     O_2   0.686159 0.634492 0.086032 -0.471443
C117  C     C_2   0.962838 0.218406 0.142375 0.551518
H81   H     H_    0.971439 0.219937 0.220206 -0.013911
O17   O     O_2   0.033245 0.215667 0.145340 -0.485201
C118  C     C_2   0.924234 0.785651 0.125299 0.496989
H82   H     H_    0.923260 0.785621 0.196875 0.040788
O18   O     O_2   0.998765 0.794519 0.140114 -0.500694
C119  C     C_2   0.462830 0.718361 0.142267 0.552776
H83   H     H_    0.471505 0.719968 0.220137 -0.014474
O19   O     O_2   0.533178 0.715457 0.145131 -0.484771
C120  C     C_2   0.424235 0.285663 0.125242 0.496931
H84   H     H_    0.423280 0.285644 0.196832 0.040766
O20   O     O_2   0.498756 0.294527 0.140028 -0.500643
C121  C     C_2   0.513266 0.831113 0.207990 0.525426
H85   H     H_    0.493788 0.809717 0.254032 0.001631
O21   O     O_2   0.595878 0.841757 0.254675 -0.561180
C122  C     C_2   0.519215 0.175346 0.194020 0.520851
H86   H     H_    0.581469 0.183988 0.198798 0.055908
O22   O     O_2   0.519182 0.185244 0.273654 -0.579218
C123  C     C_2   0.013302 0.331129 0.208005 0.526150
H87   H     H_    0.993841 0.309737 0.254068 0.001578
O23   O     O_2   0.095908 0.341789 0.254684 -0.561151
C124  C     C_2   0.019204 0.675335 0.194046 0.520918
H88   H     H_    0.081491 0.683948 0.198878 0.055861
O24   O     O_2   0.019131 0.685252 0.273646 -0.579341
N39   N     N_R   0.633698 0.189698 0.786388 0.233033
O25   O     O_R   0.699017 0.163616 0.789373 -0.323269
O26   O     O_R   0.550153 0.190605 0.693079 -0.375228
N40   N     N_R   0.541243 0.753267 0.786639 0.241725
O27   O     O_R   0.542289 0.758800 0.701100 -0.285757
O28   O     O_R   0.459931 0.747482 0.767884 -0.295566
N41   N     N_R   0.133578 0.689694 0.786351 0.232861
O29   O     O_R   0.198826 0.663495 0.789388 -0.323650
O30   O     O_R   0.050048 0.690662 0.693021 -0.375196
N42   N     N_R   0.041218 0.253232 0.786718 0.241745
O31   O     O_R   0.042198 0.258739 0.701129 -0.285621
O32   O     O_R   0.959937 0.247469 0.768052 -0.295532
N43   N     N_R   0.875829 0.197552 0.947714 0.302707
O33   O     O_R   0.891546 0.231178 0.893838 -0.333500
O34   O     O_R   0.900816 0.147478 0.951673 -0.208738
N44   N     N_R   0.853572 0.790881 0.928700 0.292627
O35   O     O_R   0.885268 0.839033 0.932840 -0.243377
O36   O     O_R   0.842551 0.757445 0.854871 -0.367125
N45   N     N_R   0.375626 0.697643 0.947510 0.302320
O37   O     O_R   0.392931 0.731333 0.895133 -0.333916
O38   O     O_R   0.399328 0.647360 0.950357 -0.208449
N46   N     N_R   0.353534 0.290871 0.928630 0.292627
O39   O     O_R   0.385224 0.339021 0.932742 -0.243317
O40   O     O_R   0.342477 0.257431 0.854786 -0.367075
N47   N     N_R   0.803523 0.123776 0.025049 0.285901
O41   O     O_R   0.730442 0.098340 0.943853 -0.349297
O42   O     O_R   0.877658 0.095464 0.097040 -0.326034
N48   N     N_R   0.713846 0.850126 0.898372 0.254979
O43   O     O_R   0.673970 0.832133 0.798512 -0.350002
O44   O     O_R   0.724653 0.902097 0.915455 -0.377771
N49   N     N_R   0.303523 0.623784 0.025340 0.285889
O45   O     O_R   0.230501 0.598305 0.944153 -0.348900
O46   O     O_R   0.377725 0.595526 0.097362 -0.326372
N50   N     N_R   0.213803 0.350106 0.898295 0.254967
O47   O     O_R   0.173893 0.332091 0.798444 -0.349988
O48   O     O_R   0.224608 0.402079 0.915333 -0.377807
N51   N     N_R   0.389948 0.048071 0.362190 0.243990
O49   O     O_R   0.383729 0.088907 0.412622 -0.351213
O50   O     O_R   0.355768 0.053989 0.258486 -0.370682
N52   N     N_R   0.390195 0.950334 0.352022 0.211977
O51   O     O_R   0.303683 0.955504 0.265131 -0.282869
O52   O     O_R   0.422395 0.901533 0.386346 -0.447716
N53   N     N_R   0.889781 0.547929 0.361995 0.243974
O53   O     O_R   0.883513 0.588808 0.412302 -0.351335
O54   O     O_R   0.855554 0.553759 0.258259 -0.370614
N54   N     N_R   0.890304 0.450187 0.352162 0.211911
O55   O     O_R   0.803747 0.455255 0.265327 -0.282912
O56   O     O_R   0.922657 0.401424 0.386644 -0.447589
C125  C     C_2   0.242727 0.904625 0.640045 0.564420
H89   H     H_    0.181522 0.893692 0.558566 0.076987
O57   O     O_2   0.313346 0.876935 0.682506 -0.582909
C126  C     C_2   0.241256 0.095569 0.640068 0.579592
H90   H     H_    0.180529 0.105873 0.557647 0.074485
O58   O     O_2   0.310481 0.124277 0.684033 -0.580900
C127  C     C_2   0.742729 0.404627 0.640042 0.564489
H91   H     H_    0.681524 0.393694 0.558564 0.076997
O59   O     O_2   0.813351 0.376941 0.682497 -0.582842
C128  C     C_2   0.741244 0.595569 0.640069 0.579543
H92   H     H_    0.680509 0.605877 0.557656 0.074471
O60   O     O_2   0.810470 0.624276 0.684023 -0.580936
N55   N     N_R   0.898910 0.999767 0.525391 0.267266
O61   O     O_R   0.941297 0.000522 0.631741 -0.244781
O62   O     O_R   0.807881 0.998719 0.459802 -0.407877
N56   N     N_R   0.398900 0.499748 0.525381 0.267269
O63   O     O_R   0.441284 0.500487 0.631731 -0.244760
O64   O     O_R   0.307870 0.498716 0.459788 -0.407873

loop_
_geom_bond_atom_site_label_1
_geom_bond_atom_site_label_2
_geom_bond_distance
_ccdc_geom_bond_type
N52   O52   1.301293 A    
C65   H29   1.104693 S    
C39   H23   1.070541 S    
C44   C56   1.430548 S    
C68   H32   1.098885 S    
C127  H91   1.083203 S    
N45   O37   1.301797 A    
C67   H31   1.104648 S    
C7    C20   1.387831 A    
C80   C94   1.528703 S    
C53   C55   1.535922 S    
C99   H63   1.112675 S    
C46   C86   1.464680 S    
C114  O14   1.221390 D    
C121  H85   1.077494 S    
N32   Ni3   1.915344 S    
C97   H61   1.112675 S    
N38   O11   1.300119 A    
C30   N22   1.326945 A    
C122  H86   1.083658 S    
N36   O7    1.300455 A    
C76   C82   1.592480 S    
C4    N4    1.313812 A    
C78   H50   1.113876 S    
C9    C21   1.376174 A    
C112  N53   1.487807 S    
C102  H70   1.105320 S    
C71   H39   1.113431 S    
N19   N20   1.403138 A    
C11   C22   1.376180 A    
C47   C87   1.445777 S    
C73   C83   1.601420 S    
C33   N25   1.322085 A    
C5    C18   1.387735 A    
C96   N42   1.474155 S    
H73   C105  1.111127 S    
N36   O8    1.300441 A    
N3    N8    1.392039 A    
C51   C59   1.547659 S    
C80   C84   1.576859 S    
C128  H92   1.083373 S    
C37   C46   1.364932 A    
C38   H22   1.075326 S    
C59   C62   1.549961 S    
C39   C48   1.364961 A    
N30   Ni1   1.915344 S    
C117  O17   1.222487 D    
C19   C84   1.482465 S    
C9    N9    1.316677 A    
N50   O47   1.298916 A    
C11   N11   1.316659 A    
C54   N56   1.464220 S    
C12   N12   1.323511 A    
N33   O1    1.300462 A    
C8    N8    1.319580 A    
C51   C54   1.518170 S    
N17   Ni1   1.896617 S    
N34   O4    1.300441 A    
C15   C127  1.476263 S    
C21   C109  1.464904 S    
C86   C90   1.586545 S    
C1    C17   1.385528 A    
C31   N23   1.326492 A    
C62   N38   1.456425 S    
C13   C23   1.374026 A    
C1    H1    1.076947 S    
N44   O35   1.303447 A    
C66   C114  1.526847 S    
C115  O15   1.221048 D    
N20   Ni4   1.901945 S    
C34   C46   1.392614 A    
N21   Ni5   1.901500 S    
C105  C111  1.543085 S    
C12   C22   1.377128 A    
N42   O32   1.301674 A    
C70   C86   1.556924 S    
C8    C124  1.473329 S    
N40   O28   1.301697 A    
C70   H38   1.111757 S    
C25   H9    1.073256 S    
C52   C54   1.518586 S    
N9    Ni6   1.907350 S    
C27   H11   1.073259 S    
N21   N22   1.424393 A    
C29   C43   1.378709 A    
C54   C56   1.535927 S    
C3    N3    1.311281 A    
C69   H35   1.114876 S    
C86   C94   1.581800 S    
C29   H13   1.080565 S    
C10   C21   1.377150 A    
N33   O2    1.300484 A    
C61   C63   1.532272 S    
C33   H17   1.079169 S    
N37   O10   1.300286 A    
C35   H19   1.079179 S    
C77   C81   1.574537 S    
C88   C92   1.586552 S    
N51   O50   1.301022 A    
N18   Ni2   1.901945 S    
C79   H51   1.111878 S    
N43   O34   1.301882 A    
C32   H16   1.077676 S    
C115  H79   1.084354 S    
H43   C91   1.115799 S    
N49   O46   1.301805 A    
C25   N17   1.318884 A    
C60   H28   1.110083 S    
N3    Ni3   1.897267 S    
N37   O9    1.300120 A    
N6    Ni6   1.895712 S    
N53   O54   1.301021 A    
C6    C122  1.473325 S    
C28   N20   1.324904 A    
C104  C110  1.567802 S    
C40   C47   1.355672 A    
C37   N29   1.306392 A    
C72   C88   1.556912 S    
C74   C118  1.530553 S    
C116  O16   1.221338 D    
C26   C41   1.389800 A    
C71   C87   1.550643 S    
C18   C81   1.480114 S    
C48   C88   1.464664 S    
C77   H45   1.108308 S    
N46   O40   1.299598 A    
C123  H87   1.077499 S    
C14   C126  1.476108 S    
C103  H67   1.113662 S    
C16   C128  1.476107 S    
N13   Ni2   1.888112 S    
C32   C44   1.378787 A    
C99   H59   1.108157 S    
C55   C57   1.545506 S    
C97   C101  1.528709 S    
C30   H14   1.077667 S    
C124  H88   1.083657 S    
N15   N16   1.423901 A    
C126  H90   1.083373 S    
C51   C64   1.539021 S    
C75   C81   1.601273 S    
N28   N31   1.377554 A    
C100  C104  1.534314 S    
C57   C61   1.549961 S    
N9    N10   1.403138 A    
C125  O57   1.219970 D    
C102  H66   1.113659 S    
C103  C110  1.560000 S    
N56   O64   1.299334 A    
N11   N12   1.403138 A    
C17   C82   1.482452 S    
N41   O29   1.298992 A    
C106  C108  1.557119 S    
C119  O19   1.222526 D    
C6    C17   1.391812 A    
C49   C53   1.518168 S    
C76   C120  1.530561 S    
N55   O62   1.299335 A    
C34   H18   1.079352 S    
C80   H48   1.105118 S    
C100  H64   1.112958 S    
C121  O21   1.220008 D    
H74   C105  1.113569 S    
C60   C62   1.549266 S    
C9    H5    1.073708 S    
C62   C64   1.532270 S    
C10   N10   1.323509 A    
C36   H20   1.079353 S    
N54   O55   1.302059 A    
C49   N33   1.459182 S    
C118  H82   1.084072 S    
C5    N5    1.315983 A    
N11   Ni8   1.907350 S    
C58   C61   1.549266 S    
N23   N24   1.424393 A    
C72   H40   1.111757 S    
H75   C106  1.111122 S    
N25   N30   1.377542 A    
N17   N18   1.403138 A    
C98   H58   1.109897 S    
C2    C18   1.388531 A    
C85   C89   1.582683 S    
N27   N32   1.377542 A    
C109  C111  1.583400 S    
N38   O12   1.300287 A    
C16   C24   1.375564 A    
C122  O22   1.219259 D    
C50   C53   1.518590 S    
C66   C72   1.542704 S    
N1    N6    1.392039 A    
C67   C69   1.526052 S    
C49   C57   1.547659 S    
N39   O25   1.299016 A    
C67   C83   1.585208 S    
C31   C44   1.378725 A    
C98   C107  1.546250 S    
C40   N32   1.303773 A    
C36   N28   1.326993 A    
C51   N35   1.459182 S    
H44   C92   1.117183 S    
C74   C84   1.592487 S    
C7    N7    1.315936 A    
C26   H10   1.076692 S    
C73   C89   1.576498 S    
C69   C85   1.550722 S    
C128  O60   1.220117 D    
C3    H3    1.076945 S    
C5    C121  1.472104 S    
C99   C108  1.554783 S    
C87   C95   1.572851 S    
C98   H62   1.112959 S    
C85   C93   1.572774 S    
N50   O48   1.301667 A    
C74   N44   1.490100 S    
C68   C70   1.542686 S    
C88   C96   1.581781 S    
C78   C82   1.576866 S    
N35   O5    1.300455 A    
C66   C82   1.589424 S    
C101  C109  1.559996 S    
C79   H47   1.108003 S    
C56   C59   1.545506 S    
C100  H60   1.109911 S    
N45   O38   1.302484 A    
N52   O51   1.302098 A    
C101  H69   1.109848 S    
N26   N29   1.377554 A    
C111  N51   1.487800 S    
N44   O36   1.299592 A    
C34   N26   1.327012 A    
C15   C24   1.374024 A    
C43   C55   1.430540 S    
C127  O59   1.219971 D    
N4    N7    1.392026 A    
C93   H55   1.116664 S    
N48   O44   1.301672 A    
C113  O13   1.220962 D    
N47   O41   1.299933 A    
C26   N18   1.324893 A    
C12   H8    1.071365 S    
C7    C123  1.472131 S    
C38   C45   1.355724 A    
C1    N1    1.311279 A    
C72   H34   1.111816 S    
N43   O33   1.300994 A    
C37   H21   1.070523 S    
N31   Ni4   1.908771 S    
C25   C41   1.385625 A    
C30   C43   1.378788 A    
N24   Ni8   1.895173 S    
C114  H78   1.083766 S    
C41   C107  1.465128 S    
C13   N13   1.328299 A    
C20   C83   1.480109 S    
C15   N15   1.328297 A    
C125  H89   1.083204 S    
C65   C81   1.585184 S    
C24   C64   1.446829 S    
C77   H49   1.111911 S    
C78   H46   1.105122 S    
C106  C112  1.543102 S    
C102  C109  1.567818 S    
C103  H71   1.109866 S    
N12   Ni7   1.901967 S    
C23   C63   1.446828 S    
C93   N39   1.475261 S    
C8    C19   1.391813 A    
C65   C113  1.519844 S    
N8    Ni8   1.895712 S    
C112  N54   1.484633 S    
H41   C89   1.115789 S    
C94   N40   1.474188 S    
N48   O43   1.298919 A    
N1    Ni1   1.897267 S    
C52   C60   1.547215 S    
C59   H27   1.110235 S    
C13   C125  1.476260 S    
C92   N50   1.473204 S    
C57   H25   1.110234 S    
N22   Ni6   1.895172 S    
C33   C45   1.383611 A    
C4    C20   1.388509 A    
C35   C47   1.383645 A    
C73   N43   1.487735 S    
C77   C95   1.518400 S    
C78   C96   1.528708 S    
C50   C63   1.537774 S    
C35   N27   1.322113 A    
N49   O45   1.299932 A    
N10   Ni5   1.901967 S    
N34   O3    1.300455 A    
C80   H52   1.113875 S    
N53   O53   1.302847 A    
N4    Ni4   1.902781 S    
N51   O49   1.302845 A    
C45   C85   1.445749 S    
C97   C107  1.554791 S    
C99   C103  1.528654 S    
C120  H84   1.084070 S    
C10   H6    1.071369 S    
C14   C23   1.375556 A    
N55   O61   1.300145 A    
N39   O26   1.301897 A    
N19   Ni3   1.896617 S    
C6    N6    1.319581 A    
C4    H4    1.074745 S    
N16   Ni3   1.894385 S    
H76   C106  1.113572 S    
N15   Ni4   1.888112 S    
C69   H37   1.113411 S    
C73   C117  1.522113 S    
C3    C19   1.385544 A    
N13   N14   1.423901 A    
C96   H54   1.114564 S    
N42   O31   1.301761 A    
C124  O24   1.219259 D    
C50   N34   1.459104 S    
N40   O27   1.301792 A    
C126  O58   1.220118 D    
N2    N5    1.392026 A    
C52   N36   1.459106 S    
H42   C90   1.117182 S    
C75   N45   1.487724 S    
N2    Ni2   1.902781 S    
N5    Ni5   1.902225 S    
C38   N30   1.303755 A    
N7    Ni7   1.902225 S    
C42   C108  1.465130 S    
C40   H24   1.075338 S    
C90   N48   1.473202 S    
C61   N37   1.456428 S    
C11   H7    1.073708 S    
C119  H83   1.084939 S    
C104  H68   1.113670 S    
C91   N49   1.476239 S    
C28   C42   1.389815 A    
C104  H72   1.105332 S    
N35   O6    1.300483 A    
C2    H2    1.074775 S    
N14   Ni1   1.894385 S    
C87   C91   1.582740 S    
N25   Ni6   1.896271 S    
C98   C102  1.534316 S    
C31   H15   1.080561 S    
C65   C71   1.525978 S    
N27   Ni8   1.896271 S    
C70   H36   1.111819 S    
C16   N16   1.329557 A    
N54   O56   1.301304 A    
C53   N55   1.464220 S    
C118  O18   1.222291 D    
C68   C84   1.589392 S    
C39   N31   1.306405 A    
N47   O42   1.301801 A    
C79   C83   1.574689 S    
C95   N41   1.475212 S    
C76   N46   1.490099 S    
C111  N52   1.484613 S    
C101  H65   1.113765 S    
C36   C48   1.392574 A    
C116  H80   1.083695 S    
C22   C110  1.464871 S    
C100  C108  1.546262 S    
C67   C115  1.519878 S    
C74   C90   1.569520 S    
N46   O39   1.303449 A    
C110  C112  1.583415 S    
C123  O23   1.220009 D    
C27   N19   1.318857 A    
C117  H81   1.084939 S    
C2    N2    1.313791 A    
C55   C58   1.546629 S    
C29   N21   1.326487 A    
C71   H33   1.114898 S    
C14   N14   1.329557 A    
C68   C116  1.526844 S    
C120  O20   1.222293 D    
C66   H30   1.098885 S    
C113  H77   1.084210 S    
C49   C63   1.539024 S    
C75   C119  1.522009 S    
C79   C93   1.518271 S    
C105  C107  1.557137 S    
N56   O63   1.300145 A    
C27   C42   1.385603 A    
C97   H57   1.108141 S    
C89   N47   1.476286 S    
N41   O30   1.301906 A    
N26   Ni5   1.890831 S    
C58   H26   1.110092 S    
C32   N24   1.326940 A    
C94   H56   1.114543 S    
C95   H53   1.116668 S    
C50   C58   1.547218 S    
C56   C60   1.546630 S    
C52   C64   1.537771 S    
N28   Ni7   1.890831 S    
C75   C91   1.576652 S    
N23   Ni7   1.901499 S    
N29   Ni2   1.908771 S    
C76   C92   1.569508 S    
C28   H12   1.076699 S    
