data_mof_unit_47349.cif
_audit_creation_date              2013-03-05T16:11:16-0500
_audit_creation_method            fapswitch 2.2
_symmetry_space_group_name_H-M    P1
_symmetry_Int_Tables_number       1
_space_group_crystal_system       triclinic
_cell_length_a                    6.951992
_cell_length_b                    20.547067
_cell_length_c                    24.429906
_cell_angle_alpha                 90.242054
_cell_angle_beta                  90.331156
_cell_angle_gamma                 89.356861
_cell_volume                      3489.33385285

loop_
_atom_site_label
_atom_site_type_symbol
_atom_site_description
_atom_site_fract_x
_atom_site_fract_y
_atom_site_fract_z
_atom_type_partial_charge
O1    O     O_R   0.507280 0.423750 0.460310 -0.597060
O2    O     O_R   0.171030 0.555650 0.437630 -0.589976
O3    O     O_R   0.004080 0.576250 0.539690 -0.587202
C1    C     C_R   0.339086 0.575635 0.421755 0.974711
O4    O     O_R   0.177330 0.422980 0.453960 -0.582634
O5    O     O_R   0.010420 0.442640 0.556140 -0.566634
C2    C     C_R   0.346403 0.399093 0.443160 0.939714
O6    O     O_R   0.500930 0.557360 0.443860 -0.595210
O7    O     O_3   0.340310 0.506600 0.533500 -0.260142
V1    V     V_3+5 0.064140 0.498780 0.493780 1.203196
O8    O     O_R   0.680890 0.444350 0.562370 -0.597206
C3    C     C_R   0.850619 0.424471 0.578174 1.023418
O9    O     O_R   0.674590 0.577020 0.546040 -0.586792
C4    C     C_R   0.842200 0.600667 0.557313 1.002036
V2    V     V_3+5 0.564550 0.501220 0.506220 1.192443
O10   O     O_3   0.838250 0.493400 0.466500 -0.276864
C5    C     C_R   0.974888 0.837409 0.911867 -0.146587
C6    C     C_R   0.841024 0.660582 0.591360 -0.201493
C7    C     C_R   0.039084 0.720960 0.908088 -0.042715
C8    C     C_R   0.037828 0.780219 0.936746 -0.131021
C9    C     C_R   0.919043 0.836205 0.856778 -0.131507
C10   C     C_R   0.900018 0.776658 0.827542 0.151705
C11   C     C_R   0.955698 0.717725 0.854496 -0.002848
C12   C     C_R   0.837061 0.774294 0.771311 -0.012547
C13   C     C_R   0.871373 0.716070 0.740386 0.063514
C14   C     C_R   0.894699 0.658075 0.770041 -0.147862
C15   C     C_R   0.925574 0.657917 0.826627 -0.152050
C16   C     C_R   0.734270 0.826039 0.745105 -0.094912
C17   C     C_R   0.705889 0.824400 0.688487 -0.263824
C18   C     C_R   0.761525 0.770648 0.656999 0.175214
C19   C     C_R   0.850392 0.715617 0.681718 0.059352
C20   C     C_R   0.714593 0.770196 0.601200 -0.142055
C21   C     C_R   0.746426 0.714978 0.569566 -0.155067
C22   C     C_R   0.907546 0.662208 0.646539 -0.164269
H1    H     H_    0.695774 0.714532 0.527517 0.111806
H2    H     H_    0.626913 0.863949 0.669000 0.168438
H3    H     H_    0.095361 0.782728 0.978055 0.149469
H4    H     H_    0.898359 0.882647 0.837023 0.094905
H5    H     H_    0.868596 0.611891 0.750243 0.156067
H6    H     H_    0.642707 0.811659 0.582496 0.118962
H7    H     H_    0.644525 0.236507 0.813144 0.131550
C23   C     C_R   0.752162 0.287281 0.743053 -0.102094
H8    H     H_    0.619665 0.314837 0.737656 0.140691
C24   C     C_R   0.906479 0.296379 0.707089 0.073072
C25   C     C_R   0.079123 0.259728 0.715060 -0.087400
C26   C     C_R   0.089914 0.214569 0.758615 -0.215130
H9    H     H_    0.220749 0.186450 0.765364 0.164004
C27   C     C_R   0.934699 0.205834 0.794145 0.151888
C28   C     C_R   0.765996 0.242528 0.786111 -0.135382
C29   C     C_1   0.881483 0.342024 0.661878 0.081789
C30   C     C_1   0.949411 0.159534 0.839017 0.013844
C31   C     C_1   0.961394 0.121074 0.876609 -0.236226
C32   C     C_1   0.864173 0.379792 0.623931 -0.232552
H10   H     H_    0.699127 0.702439 0.296368 0.121829
C33   C     C_R   0.596792 0.767346 0.233270 -0.167696
H11   H     H_    0.740710 0.780342 0.220927 0.119491
C34   C     C_R   0.436083 0.794750 0.206475 0.179992
C35   C     C_R   0.251247 0.776794 0.223451 -0.163954
H12   H     H_    0.125122 0.797214 0.203391 0.121842
C36   C     C_R   0.227457 0.732297 0.266483 -0.170471
H13   H     H_    0.083540 0.719312 0.278834 0.119461
C37   C     C_R   0.388165 0.704922 0.293299 0.178579
C38   C     C_R   0.573002 0.722849 0.276302 -0.171713
C39   C     C_1   0.459824 0.840825 0.161618 -0.016753
C40   C     C_1   0.364426 0.658975 0.338248 -0.023615
C41   C     C_1   0.349055 0.620838 0.376045 -0.280485
C42   C     C_1   0.475205 0.879089 0.123911 -0.277076
C43   C     C_R   0.469097 0.163521 0.087066 -0.198506
C44   C     C_R   0.351693 0.338490 0.410618 -0.125830
C45   C     C_R   0.492677 0.280981 0.091791 -0.190103
C46   C     C_R   0.504403 0.223468 0.060858 -0.095354
C47   C     C_R   0.428464 0.162588 0.143472 -0.245382
C48   C     C_R   0.418000 0.220816 0.175179 0.126096
C49   C     C_R   0.447220 0.280242 0.147694 0.172448
C50   C     C_R   0.379719 0.222296 0.232945 0.047080
C51   C     C_R   0.368287 0.283520 0.261712 0.035135
C52   C     C_R   0.365509 0.341605 0.229933 -0.049234
C53   C     C_R   0.419742 0.339315 0.175046 -0.304899
C54   C     C_R   0.349321 0.164619 0.262769 -0.184659
C55   C     C_R   0.313180 0.166012 0.318555 -0.227724
C56   C     C_R   0.318543 0.224227 0.347869 0.168702
C57   C     C_R   0.355909 0.283550 0.320630 0.123976
C58   C     C_R   0.289323 0.223207 0.404675 -0.166053
C59   C     C_R   0.300294 0.280219 0.435446 -0.163841
C60   C     C_R   0.387031 0.339555 0.353977 -0.143432
H14   H     H_    0.425939 0.384340 0.152049 0.141578
H15   H     H_    0.439005 0.384399 0.337006 0.108223
H16   H     H_    0.270645 0.278780 0.478921 0.122155
H17   H     H_    0.286658 0.120487 0.339343 0.133680
H18   H     H_    0.514387 0.327336 0.071816 0.172806
H19   H     H_    0.405973 0.115378 0.161149 0.099292
H20   H     H_    0.349652 0.117100 0.244106 0.128714
H21   H     H_    0.255981 0.178158 0.425315 0.125480
O11   O     O_R   0.323320 0.942780 0.056240 -0.595211
O12   O     O_R   0.647300 0.077050 0.046060 -0.593465
O13   O     O_R   0.813840 0.057330 0.943840 -0.568163
C61   C     C_R   0.478125 0.101176 0.056660 1.008320
O14   O     O_R   0.653250 0.944380 0.062400 -0.595414
O15   O     O_R   0.819830 0.923720 0.960300 -0.581035
C62   C     C_R   0.485178 0.924411 0.078283 0.967343
O16   O     O_R   0.317330 0.076390 0.039790 -0.583725
O17   O     O_3   0.483830 0.993470 0.966560 -0.252654
V3    V     V_3+5 0.760140 0.001210 0.006210 1.199218
O18   O     O_R   0.149290 0.922840 0.953850 -0.586691
C63   C     C_R   0.981233 0.899003 0.943063 0.934596
O19   O     O_R   0.143340 0.055500 0.937510 -0.577918
C64   C     C_R   0.973702 0.075633 0.921883 0.987417
V4    V     V_3+5 0.259690 0.998600 0.993650 1.211134
O20   O     O_3   0.986130 0.006520 0.033440 -0.285318
C65   C     C_2   0.900801 0.595148 0.855619 0.984407
O21   O     O_2   0.956457 0.544224 0.834598 -0.615985
O22   O     O_R   0.807248 0.594059 0.906142 -0.783586
H22   H     H_    0.797564 0.548497 0.921584 0.342424
C66   C     C_2   0.250195 0.267244 0.679196 0.975585
O23   O     O_2   0.370914 0.223572 0.676521 -0.645492
O24   O     O_R   0.276767 0.324310 0.649308 -0.804403
H23   H     H_    0.399550 0.323297 0.627094 0.320111
C67   C     C_2   0.051464 0.612463 0.664142 0.986228
O25   O     O_2   0.199678 0.629572 0.686972 -0.617080
O26   O     O_R   0.017529 0.546342 0.655097 -0.813844
H24   H     H_    0.126417 0.517494 0.668970 0.341950
C68   C     C_2   0.550202 0.228554 0.001373 0.980418
O27   O     O_2   0.513947 0.184086 0.969670 -0.652128
O28   O     O_R   0.633229 0.285332 0.981300 -0.791629
H25   H     H_    0.657413 0.283210 0.940428 0.329922
C69   C     C_2   0.276851 0.403923 0.248171 0.492716
H26   H     H_    0.329688 0.449692 0.232476 0.022819
O29   O     O_2   0.136302 0.404585 0.277946 -0.578262
C70   C     C_2   0.150847 0.666056 0.932472 0.621991
H27   H     H_    0.212248 0.628325 0.906566 0.006636
O30   O     O_2   0.179330 0.663057 0.981794 -0.559995
C71   C     C_2   0.618861 0.875634 0.775226 0.989067
O31   O     O_2   0.531510 0.860484 0.816520 -0.636320
O32   O     O_R   0.603745 0.939101 0.755060 -0.797067
H28   H     H_    0.519760 0.968210 0.778800 0.328773

loop_
_geom_bond_atom_site_label_1
_geom_bond_atom_site_label_2
_geom_bond_distance
_ccdc_geom_bond_type
C7    C70   1.487220 S    
O15   V3    1.985113 S    
C33   H11   1.083242 S    
C13   C19   1.439821 A    
C69   H26   1.085724 S    
C48   C49   1.413196 A    
C4    C6    1.482774 S    
C46   C68   1.493809 S    
O2    C1    1.304365 A    
C7    C8    1.401939 A    
C1    O6    1.297600 A    
C56   C57   1.418455 A    
C52   C53   1.395424 A    
V4    O20   2.145059 S    
C17   H2    1.085655 S    
O11   V4    1.960817 S    
C14   C15   1.397733 A    
C37   C38   1.406189 A    
C16   C17   1.396375 A    
O5    C3    1.296617 A    
C18   C19   1.417989 A    
C14   H5    1.079969 S    
H10   C38   1.083285 S    
C35   C36   1.407820 A    
V2    O10   2.145008 S    
C58   H21   1.083905 S    
C5    C8    1.390362 A    
O24   H23   1.014107 S    
C36   C37   1.405101 A    
C55   H17   1.084357 S    
C65   O21   1.223487 D    
O18   C63   1.297120 A    
C43   C61   1.478972 S    
O8    V2    1.969959 S    
C25   C66   1.491036 S    
C27   C30   1.456876 S    
C9    H4    1.078969 S    
C15   C65   1.486199 S    
C71   O31   1.223655 D    
C33   C38   1.407817 A    
C45   C49   1.403755 A    
O17   V4    1.698466 S    
C45   C46   1.401855 A    
O1    V2    1.986000 S    
C11   C15   1.419365 A    
O7    V1    2.153513 S    
C3    C32   1.451458 S    
C53   H14   1.085787 S    
O16   V4    1.994950 S    
O9    C4    1.295202 A    
C67   O25   1.223175 D    
C48   C50   1.437728 A    
C45   H18   1.084471 S    
C23   C24   1.405210 A    
H7    C28   1.083536 S    
O22   H22   1.013869 S    
C56   C58   1.404010 A    
O12   V3    1.989970 S    
C66   O23   1.223531 D    
C65   O22   1.398844 S    
C60   H15   1.078832 S    
O15   C63   1.298133 A    
C26   C27   1.402311 A    
C29   C32   1.216068 T    
C30   C31   1.215970 T    
C39   C42   1.219533 T    
C59   H16   1.083658 S    
C12   C13   1.430714 A    
C31   C64   1.451979 S    
C51   C57   1.442435 A    
O4    C2    1.296766 A    
C47   H19   1.076862 S    
C55   C56   1.392285 A    
C35   H12   1.083284 S    
C25   C26   1.415865 A    
C22   C67   1.485412 S    
C5    C9    1.398744 A    
C36   H13   1.083243 S    
C16   C71   1.485176 S    
C7    C11   1.430372 A    
C50   C51   1.440016 A    
C2    C44   1.474738 S    
C17   C18   1.395630 A    
C5    C63   1.475512 S    
C58   C59   1.391787 A    
O11   C62   1.297602 A    
C43   C47   1.408500 A    
C19   C22   1.444617 A    
C51   C52   1.426414 A    
C6    C22   1.422999 A    
C54   H20   1.075825 S    
O3    C4    1.301792 A    
C42   C62   1.457973 S    
C27   C28   1.400437 A    
O13   C64   1.297025 A    
O6    V2    1.960283 S    
O14   C62   1.304407 A    
O9    V2    1.990631 S    
C49   C53   1.394863 A    
C10   C12   1.440134 A    
C23   H8    1.083492 S    
C68   O28   1.399238 S    
O2    V1    1.960640 S    
O18   V4    1.990725 S    
C44   C60   1.407075 A    
O26   H24   1.013853 S    
C34   C39   1.462451 S    
C70   H27   1.084134 S    
C24   C29   1.460319 S    
C26   H9    1.084237 S    
C69   O29   1.221407 D    
C37   C40   1.462430 S    
O1    C2    1.299451 A    
C24   C25   1.422613 A    
C12   C16   1.426311 A    
C47   C48   1.423928 A    
O5    V1    1.955006 S    
C66   O24   1.398495 S    
O8    C3    1.301319 A    
O12   C61   1.298220 A    
O32   H28   1.013970 S    
C57   C60   1.424881 A    
V3    O20   1.707009 S    
C20   C21   1.386513 A    
C33   C34   1.405104 A    
C13   C14   1.404524 A    
O4    V1    1.989918 S    
O3    V1    1.985308 S    
V1    O10   1.706945 S    
C18   C20   1.399845 A    
C8    H3    1.084635 S    
C34   C35   1.406197 A    
O19   V4    1.970180 S    
C43   C46   1.415151 A    
C21   H1    1.084053 S    
C20   H6    1.084172 S    
O7    V2    1.701208 S    
O17   V3    2.153482 S    
C6    C21   1.396295 A    
C67   O26   1.397972 S    
C23   C28   1.402259 A    
C54   C55   1.387376 A    
C1    C41   1.457932 S    
C71   O32   1.398594 S    
C40   C41   1.219513 T    
O19   C64   1.301095 A    
O13   V3    1.954927 S    
C44   C59   1.395476 A    
C10   C11   1.429316 A    
C68   O27   1.222770 D    
C9    C10   1.421193 A    
C50   C54   1.412310 A    
C61   O16   1.297876 A    
C52   C69   1.482763 S    
O14   V3    1.960830 S    
O28   H25   1.014184 S    
C70   O30   1.221664 D    
