data_mof_unit_56355.cif
_audit_creation_date              2012-12-10T21:11:34-0500
_audit_creation_method            fapswitch 2.2
_symmetry_space_group_name_H-M    P1
_symmetry_Int_Tables_number       1
_space_group_crystal_system       triclinic
_cell_length_a                    17.477457
_cell_length_b                    16.654784
_cell_length_c                    10.741525
_cell_angle_alpha                 89.708289
_cell_angle_beta                  89.802545
_cell_angle_gamma                 89.885252
_cell_volume                      3126.61298268

loop_
_atom_site_label
_atom_site_type_symbol
_atom_type_description
_atom_site_fract_x
_atom_site_fract_y
_atom_site_fract_z
_atom_type_partial_charge
C1    C     C_R   0.352797 0.500022 0.502650 0.890683
C2    C     C_R   0.647124 0.499912 0.502667 0.887380
C3    C     C_R   0.884593 0.496616 0.575009 0.063427
C4    C     C_R   0.114532 0.498436 0.572701 0.063178
C5    C     C_1   0.965582 0.497081 0.585321 -0.095045
C6    C     C_1   0.033561 0.497563 0.584525 -0.094979
C7    C     C_R   0.448302 0.832076 0.575284 -0.294815
C8    C     C_R   0.565751 0.167182 0.534636 -0.293642
C9    C     C_R   0.552318 0.832684 0.427351 -0.294577
C10   C     C_R   0.434313 0.167378 0.467859 -0.293090
C11   C     C_R   0.449080 0.747659 0.573144 -0.009653
C12   C     C_R   0.564435 0.251670 0.533755 -0.034338
C13   C     C_R   0.551217 0.748249 0.427893 -0.018278
C14   C     C_R   0.435545 0.251863 0.467263 -0.033890
C15   C     C_R   0.500337 0.875472 0.501609 0.177019
C16   C     C_R   0.500059 0.124125 0.501568 0.199034
C17   C     C_1   0.500260 0.963178 0.501911 -0.061216
C18   C     C_1   0.500166 0.036359 0.501908 -0.066295
C19   C     C_R   0.490459 0.500159 0.259089 0.895186
C20   C     C_R   0.512176 0.499621 0.739467 0.896102
C21   C     C_R   0.469089 0.649088 0.106815 -0.213212
C22   C     C_R   0.539925 0.350479 0.886401 -0.204190
C23   C     C_R   0.550344 0.644450 0.885231 -0.208383
C24   C     C_R   0.463518 0.351772 0.112624 -0.205904
C25   C     C_R   0.490359 0.721685 0.049318 0.116924
C26   C     C_R   0.520175 0.277308 0.942346 0.122649
C27   C     C_R   0.534155 0.719174 0.938557 0.124111
C28   C     C_R   0.482449 0.277943 0.058497 0.121206
C29   C     C_R   0.522937 0.572173 0.938276 0.057045
C30   C     C_R   0.487437 0.425698 0.059361 0.057527
C31   C     C_R   0.491199 0.573782 0.057497 0.057650
C32   C     C_R   0.518274 0.424922 0.939194 0.059213
C33   C     C_R   0.525418 0.498551 0.873966 -0.223229
C34   C     C_R   0.482335 0.500149 0.123213 -0.222688
C35   C     C_R   0.844076 0.569718 0.586974 0.113981
C36   C     C_R   0.154266 0.424617 0.565991 0.112417
C37   C     C_R   0.152021 0.572951 0.556816 0.115234
C38   C     C_R   0.847872 0.424414 0.541185 0.115290
C39   C     C_R   0.765999 0.569903 0.559490 -0.227640
C40   C     C_R   0.232510 0.426632 0.539606 -0.219310
C41   C     C_R   0.230442 0.572259 0.530840 -0.222935
C42   C     C_R   0.769721 0.427240 0.515004 -0.224421
C43   C     C_R   0.729330 0.499441 0.522788 -0.113067
C44   C     C_R   0.270261 0.499695 0.521518 -0.112706
H1    H     H_    0.432783 0.652202 0.188422 0.165091
H2    H     H_    0.573511 0.348589 0.801691 0.155753
H3    H     H_    0.585446 0.643063 0.801929 0.157750
H4    H     H_    0.428976 0.350529 0.196273 0.156887
H5    H     H_    0.732768 0.624406 0.567171 0.154782
H6    H     H_    0.264985 0.371588 0.533339 0.150769
H7    H     H_    0.261348 0.627779 0.517759 0.153631
H8    H     H_    0.739467 0.373719 0.487613 0.149810
H9    H     H_    0.407550 0.863122 0.634162 0.138896
H10   H     H_    0.617490 0.135822 0.561622 0.140664
H11   H     H_    0.593162 0.864226 0.369013 0.140039
H12   H     H_    0.382604 0.136164 0.441412 0.140261
H13   H     H_    0.409063 0.714379 0.630445 0.132095
H14   H     H_    0.615144 0.284159 0.560775 0.122085
H15   H     H_    0.591196 0.715447 0.370160 0.135931
H16   H     H_    0.384758 0.284497 0.439943 0.121265
N1    N     N_R   0.500000 0.707230 0.500000 -0.089945
N2    N     N_R   0.500000 0.292770 0.500000 -0.079672
O1    O     O_R   0.389110 0.566570 0.499990 -0.627731
O2    O     O_R   0.610890 0.433430 0.500010 -0.633982
O3    O     O_R   0.610890 0.566570 0.500010 -0.630170
O4    O     O_R   0.389110 0.433430 0.499990 -0.634183
O5    O     O_R   0.499990 0.566540 0.316770 -0.620747
O6    O     O_R   0.500010 0.433460 0.683230 -0.613775
O7    O     O_R   0.500010 0.566540 0.683230 -0.620196
O8    O     O_R   0.499990 0.433460 0.316770 -0.612903
Zn1   Zn    Zn3+2 0.500000 0.588860 0.500000 0.926215
Zn2   Zn    Zn3+2 0.500000 0.411140 0.500000 0.929669
C45   C     C_3   0.467222 0.201092 0.130370 -0.430749
C46   C     C_3   0.541571 0.167793 0.187511 -0.301340
C47   C     C_3   0.539207 0.076425 0.199572 -0.896120
H17   H     H_    0.485465 0.056982 0.245932 0.273636
H18   H     H_    0.542227 0.048505 0.106023 0.248512
H19   H     H_    0.588802 0.055151 0.255098 0.252919
H20   H     H_    0.592816 0.184378 0.131760 0.207429
H21   H     H_    0.550115 0.195180 0.279984 0.239125
H22   H     H_    0.425200 0.211658 0.206349 0.180103
H23   H     H_    0.440068 0.155975 0.069593 0.218062
C48   C     C_3   0.563014 0.793855 0.872516 -0.442874
C49   C     C_3   0.644557 0.813990 0.913547 -0.343118
C50   C     C_3   0.674289 0.888519 0.845913 -0.887596
H24   H     H_    0.675380 0.878358 0.743759 0.264792
H25   H     H_    0.637293 0.941149 0.866686 0.260302
H26   H     H_    0.733359 0.901772 0.877362 0.247340
H27   H     H_    0.645559 0.824936 0.015528 0.217598
H28   H     H_    0.683243 0.762641 0.892808 0.219851
H29   H     H_    0.562698 0.783831 0.770238 0.214833
H30   H     H_    0.524838 0.846014 0.888714 0.210146
C51   C     C_3   0.535533 0.199851 0.873120 -0.431843
C52   C     C_3   0.461426 0.166027 0.816947 -0.304020
C53   C     C_3   0.465006 0.074692 0.805958 -0.890426
H31   H     H_    0.518545 0.055912 0.758368 0.270551
H32   H     H_    0.463454 0.046643 0.899911 0.250022
H33   H     H_    0.415133 0.052883 0.752139 0.252570
H34   H     H_    0.410163 0.182049 0.872895 0.207442
H35   H     H_    0.452275 0.193466 0.724172 0.238930
H36   H     H_    0.577562 0.209717 0.796788 0.179873
H37   H     H_    0.562809 0.155264 0.935583 0.217908
C54   C     C_3   0.467264 0.799785 0.110557 -0.440635
C55   C     C_3   0.392593 0.832405 0.055285 -0.340244
C56   C     C_3   0.372441 0.914081 0.110341 -0.891061
H38   H     H_    0.366419 0.909484 0.213140 0.267026
H39   H     H_    0.417660 0.958502 0.087234 0.258486
H40   H     H_    0.317440 0.935589 0.070796 0.248340
H41   H     H_    0.397628 0.838679 0.952574 0.215629
H42   H     H_    0.345344 0.789667 0.075730 0.221490
H43   H     H_    0.458535 0.790016 0.212050 0.211985
H44   H     H_    0.513843 0.844765 0.102227 0.206911
C57   C     C_3   0.885881 0.645841 0.626773 -0.414577
C58   C     C_3   0.835154 0.719643 0.652019 -0.357691
C59   C     C_3   0.882555 0.790304 0.698072 -0.888110
H45   H     H_    0.912657 0.774091 0.785602 0.259881
H46   H     H_    0.925225 0.808233 0.626389 0.263520
H47   H     H_    0.844344 0.842260 0.716648 0.252198
H48   H     H_    0.805829 0.738477 0.564931 0.220430
H49   H     H_    0.791550 0.704716 0.724097 0.221765
H50   H     H_    0.918034 0.631988 0.713480 0.205559
H51   H     H_    0.928019 0.661759 0.553065 0.202513
C60   C     C_3   0.111472 0.345527 0.584831 -0.411426
C61   C     C_3   0.161308 0.269363 0.590903 -0.362897
C62   C     C_3   0.112840 0.194936 0.616372 -0.890057
H52   H     H_    0.080749 0.201412 0.705216 0.260559
H53   H     H_    0.071906 0.185479 0.539089 0.264122
H54   H     H_    0.150547 0.141377 0.623438 0.248841
H55   H     H_    0.191557 0.260677 0.500741 0.215291
H56   H     H_    0.204104 0.275156 0.666667 0.225187
H57   H     H_    0.078610 0.349493 0.673460 0.205569
H58   H     H_    0.070002 0.338830 0.507494 0.201789
C63   C     C_3   0.106491 0.651102 0.566183 -0.413160
C64   C     C_3   0.153119 0.729138 0.557918 -0.360437
C65   C     C_3   0.101804 0.802563 0.574830 -0.891703
H59   H     H_    0.057085 0.804328 0.501615 0.259727
H60   H     H_    0.073973 0.801060 0.667948 0.262856
H61   H     H_    0.136756 0.857998 0.567457 0.250146
H62   H     H_    0.197483 0.729580 0.631862 0.221112
H63   H     H_    0.181323 0.733634 0.465225 0.221701
H64   H     H_    0.063330 0.651803 0.490416 0.200856
H65   H     H_    0.075433 0.650832 0.656761 0.206577
C66   C     C_3   0.893815 0.346556 0.531436 -0.410938
C67   C     C_3   0.847292 0.269933 0.507268 -0.363272
C68   C     C_3   0.898644 0.195747 0.507232 -0.892467
H66   H     H_    0.942845 0.200991 0.433100 0.259575
H67   H     H_    0.926992 0.188491 0.599015 0.263927
H68   H     H_    0.863620 0.141516 0.489159 0.249574
H69   H     H_    0.803085 0.262293 0.581066 0.217982
H70   H     H_    0.818897 0.274236 0.415016 0.221315
H71   H     H_    0.936318 0.353758 0.455029 0.200504
H72   H     H_    0.925532 0.337933 0.620126 0.205835

loop_
_geom_bond_atom_site_label_1
_geom_bond_atom_site_label_2
_ccdc_geom_bond_type
C65   H61   S    
C30   C32   A    
C4    C36   A    
C51   C52   S    
C60   H58   S    
C45   C46   S    
C53   H31   S    
C2    O3    A    
C68   H66   S    
C53   H33   S    
C60   C61   S    
C50   H24   S    
C7    C11   A    
C48   H30   S    
C21   C31   A    
C63   H65   S    
C22   C32   A    
C23   C29   A    
C38   C42   A    
C64   H63   S    
C5    C6    T    
C59   H45   S    
C14   N2    A    
C29   C33   A    
C54   H43   S    
C38   C66   S    
O7    Zn1   S    
C9    C13   A    
C36   C40   A    
C67   H70   S    
C65   H60   S    
O4    Zn2   S    
C57   H51   S    
C3    C38   A    
C59   H46   S    
C62   H54   S    
C19   O5    A    
C9    H11   S    
C3    C35   A    
C10   H12   S    
C58   H48   S    
O6    Zn2   S    
C12   H14   S    
N1    Zn1   S    
C26   C51   S    
C66   H71   S    
C49   H27   S    
C8    C16   A    
C46   H21   S    
C49   H28   S    
C28   C45   S    
C1    O1    A    
C45   H22   S    
C55   C56   S    
C68   H67   S    
C2    O2    A    
C17   C18   T    
C21   H1    S    
C50   H25   S    
C56   H40   S    
C23   H3    S    
C46   C47   S    
C30   C34   A    
N2    Zn2   S    
C24   H4    S    
C65   H59   S    
C36   C60   S    
C49   C50   S    
C4    C6    S    
C10   C14   A    
C51   H36   S    
C64   H62   S    
C25   C54   S    
C39   C43   A    
C3    C5    S    
O3    Zn1   S    
C60   H57   S    
C54   H44   S    
C35   C39   A    
C47   H17   S    
C67   H69   S    
C56   H39   S    
C12   N2    A    
C1    C44   S    
C48   C49   S    
C52   H35   S    
C2    C43   S    
C8    C12   A    
C59   H47   S    
C1    O4    A    
C31   C34   A    
C61   H56   S    
C47   H18   S    
C20   C33   S    
C66   H72   S    
C39   H5    S    
O1    Zn1   S    
C23   C27   A    
C46   H20   S    
C63   C64   S    
C41   C44   A    
C37   C63   S    
C20   O7    A    
C42   C43   A    
C7    H9    S    
C8    H10   S    
C45   H23   S    
C68   H68   S    
C14   H16   S    
C57   C58   S    
C50   H26   S    
C15   C17   S    
C21   C25   A    
C22   H2    S    
C63   H64   S    
C20   O6    A    
C24   C28   A    
C67   C68   S    
C11   N1    A    
C19   C34   S    
C51   H37   S    
C53   H32   S    
C58   C59   S    
C64   C65   S    
C13   H15   S    
C25   C27   A    
C57   H50   S    
C48   H29   S    
C56   H38   S    
C26   C28   A    
C32   C33   A    
C27   C48   S    
C9    C15   A    
C29   C31   A    
C10   C16   A    
C55   H42   S    
C62   H52   S    
C52   H34   S    
C40   H6    S    
C7    C15   A    
C61   H55   S    
C35   C57   S    
O5    Zn1   S    
O2    Zn2   S    
C37   C41   A    
C52   C53   S    
C47   H19   S    
C24   C30   A    
C40   C44   A    
C13   N1    A    
C4    C37   A    
C16   C18   S    
C22   C26   A    
C54   C55   S    
C62   H53   S    
C55   H41   S    
C19   O8    A    
O8    Zn2   S    
C11   H13   S    
C41   H7    S    
C58   H49   S    
C66   C67   S    
C42   H8    S    
C61   C62   S    
