data_mof_unit_26825.cif
_audit_creation_date              2012-12-10T18:29:45-0500
_audit_creation_method            fapswitch 2.2
_symmetry_space_group_name_H-M    P1
_symmetry_Int_Tables_number       1
_space_group_crystal_system       triclinic
_cell_length_a                    11.556052
_cell_length_b                    14.931509
_cell_length_c                    15.508843
_cell_angle_alpha                 81.43972
_cell_angle_beta                  89.801006
_cell_angle_gamma                 104.330765
_cell_volume                      2561.61457633

loop_
_atom_site_label
_atom_site_type_symbol
_atom_type_description
_atom_site_fract_x
_atom_site_fract_y
_atom_site_fract_z
_atom_type_partial_charge
C1    C     C_R   0.482394 0.440916 0.662053 0.890746
C2    C     C_R   0.489651 0.672685 0.977830 0.200827
C3    C     C_R   0.720176 0.849721 0.604674 0.316506
C4    C     C_R   0.348339 0.170957 0.341246 0.297186
C5    C     C_R   0.664058 0.754881 0.601341 0.222209
C6    C     C_R   0.359778 0.252482 0.379940 0.219825
C7    C     C_R   0.513495 0.796339 0.511690 -0.087358
C8    C     C_R   0.491396 0.205030 0.484114 -0.066894
C9    C     C_R   0.563982 0.892608 0.511465 -0.037188
C10   C     C_R   0.484900 0.121924 0.449494 -0.042293
C11   C     C_R   0.664842 0.918579 0.562716 -0.062130
C12   C     C_R   0.517941 0.558996 0.337798 0.892652
C13   C     C_R   0.406903 0.102871 0.380369 -0.064857
C14   C     C_R   0.516269 0.963412 0.463018 0.039371
C15   C     C_R   0.551042 0.056407 0.483221 0.030099
C16   C     C_R   0.718011 0.500839 0.500271 0.897063
C17   C     C_R   0.281971 0.499107 0.499807 0.899929
C18   C     C_R   0.654718 0.081736 0.532144 0.146925
C19   C     C_R   0.440843 0.946427 0.391795 0.145376
C20   C     C_R   0.709408 0.013193 0.569982 -0.119676
C21   C     C_R   0.389223 0.016037 0.351798 -0.117521
C22   C     C_1   0.839029 0.502088 0.500717 -0.185000
C23   C     C_R   0.527998 0.360132 0.930291 -0.054000
C24   C     C_1   0.160886 0.497654 0.499535 -0.189169
C25   C     C_1   0.940887 0.500897 0.500476 0.014459
C26   C     C_1   0.058950 0.498609 0.499854 0.008762
C27   C     C_R   0.477802 0.403699 0.754746 -0.136488
C28   C     C_R   0.531296 0.596318 0.244718 -0.140765
C29   C     C_R   0.517701 0.291719 0.873059 0.440076
C30   C     C_R   0.542420 0.722163 0.123552 0.450932
C31   C     C_R   0.499996 0.317205 0.784635 -0.247384
C32   C     C_R   0.542150 0.690792 0.213371 -0.260530
C33   C     C_R   0.460443 0.460491 0.813546 -0.235020
C34   C     C_R   0.524905 0.655171 0.064679 -0.032741
C35   C     C_R   0.533724 0.534906 0.186544 -0.241837
C36   C     C_R   0.492543 0.444635 0.900217 0.031182
C37   C     C_R   0.535591 0.563331 0.096807 0.030255
C38   C     C_3   0.641556 0.241097 0.128738 -0.604851
C39   C     C_3   0.504172 0.804416 0.860355 -0.595140
C40   C     C_3   0.747960 0.208298 0.612754 -0.751077
C41   C     C_3   0.317327 0.811358 0.335047 -0.746445
C42   C     C_3   0.168142 0.291547 0.379444 -0.614664
C43   C     C_3   0.679310 0.663376 0.741381 -0.657829
C44   C     C_R   0.498246 0.514144 0.954947 0.076584
C45   C     C_R   0.537648 0.498177 0.039826 0.070336
C46   C     C_R   0.582750 0.419389 0.065790 -0.258845
C47   C     C_R   0.468375 0.600229 0.927386 -0.290232
C48   C     C_R   0.578424 0.350493 0.013198 0.227927
H1    H     H_    0.525475 0.462150 0.212207 0.172580
H2    H     H_    0.431414 0.770228 0.481186 0.195177
H3    H     H_    0.723662 0.293627 0.004412 0.244717
H4    H     H_    0.658110 0.170429 0.133618 0.260836
H5    H     H_    0.553714 0.234146 0.161794 0.267695
H6    H     H_    0.713432 0.285563 0.162247 0.186744
H7    H     H_    0.364641 0.749735 0.953864 0.240416
H8    H     H_    0.493370 0.876986 0.851681 0.256245
H9    H     H_    0.456243 0.768889 0.808026 0.178321
H10   H     H_    0.601065 0.807871 0.854035 0.268924
H11   H     H_    0.787560 0.199171 0.483541 0.244207
H12   H     H_    0.429742 0.520581 0.787008 0.157719
H13   H     H_    0.770031 0.285903 0.603641 0.243229
H14   H     H_    0.827141 0.185335 0.638603 0.257939
H15   H     H_    0.671144 0.180918 0.660841 0.265533
H16   H     H_    0.491473 0.883031 0.294050 0.284556
H17   H     H_    0.324843 0.742532 0.320070 0.241087
H18   H     H_    0.276568 0.845883 0.279009 0.269946
H19   H     H_    0.258422 0.798982 0.394688 0.252548
H20   H     H_    0.449234 0.042649 0.856767 0.395242
H21   H     H_    0.654196 0.967333 0.149933 0.395410
H22   H     H_    0.313486 0.354298 0.289282 0.269255
H23   H     H_    0.548833 0.739843 0.259039 0.210638
H24   H     H_    0.118599 0.232423 0.347822 0.274332
H25   H     H_    0.128042 0.351737 0.361500 0.215533
H26   H     H_    0.157966 0.270318 0.451395 0.234392
H27   H     H_    0.790420 0.677604 0.629417 0.282163
H28   H     H_    0.733362 0.719741 0.774208 0.276537
H29   H     H_    0.698495 0.596047 0.769652 0.232338
H30   H     H_    0.583563 0.658977 0.754175 0.212723
H31   H     H_    0.997902 0.824071 0.717361 0.399383
H32   H     H_    0.179671 0.229727 0.145023 0.404657
H33   H     H_    0.505092 0.270035 0.738817 0.202530
H34   H     H_    0.630517 0.414411 0.125298 0.154725
H35   H     H_    0.427043 0.614309 0.866853 0.147913
H36   H     H_    0.787778 0.036281 0.605888 0.233243
H37   H     H_    0.333431 0.999574 0.298130 0.237828
H38   H     H_    0.538224 0.220278 0.541967 0.191072
N1    N     N_R   0.566020 0.731700 0.552730 -0.140877
N2    N     N_R   0.433980 0.268300 0.447270 -0.140114
N3    N     N_2   0.642276 0.280788 0.037524 -0.243240
N4    N     N_2   0.455109 0.756267 0.945764 -0.243585
N5    N     N_2   0.717736 0.177269 0.529562 -0.330334
N6    N     N_2   0.435420 0.867542 0.348875 -0.329693
N7    N     N_2   0.293489 0.318890 0.351796 -0.244495
N8    N     N_2   0.706566 0.681363 0.648329 -0.238166
O1    O     O_R   0.466720 0.383110 0.605620 -0.613168
O2    O     O_2   0.456670 0.137698 0.995432 -0.196324
O3    O     O_3   0.443102 0.107106 0.835206 -0.553358
O4    O     O_2   0.656341 0.872608 0.009224 -0.235241
O5    O     O_2   0.462811 0.875426 0.073808 -0.275554
O6    O     O_3   0.648365 0.900052 0.169508 -0.570711
O7    O     O_2   0.945766 0.957154 0.593708 -0.288689
O8    O     O_2   0.838764 0.923966 0.735931 -0.294500
O9    O     O_3   0.926910 0.796047 0.685821 -0.581036
O10   O     O_2   0.337264 0.124079 0.179445 -0.270148
O11   O     O_2   0.152519 0.077684 0.270260 -0.282331
O12   O     O_R   0.533280 0.616890 0.394380 -0.604718
O13   O     O_3   0.225545 0.249841 0.195617 -0.587716
O14   O     O_R   0.509090 0.531900 0.639510 -0.593670
O15   O     O_R   0.490910 0.468100 0.360490 -0.619064
O16   O     O_R   0.644370 0.425610 0.483050 -0.608779
O17   O     O_R   0.355630 0.574390 0.516950 -0.615443
O18   O     O_R   0.686740 0.574390 0.516930 -0.600954
O19   O     O_R   0.313260 0.425610 0.483070 -0.586714
O20   O     O_2   0.643654 0.162600 0.908657 -0.292396
S1    S     S_3+6 0.517362 0.172546 0.906606 0.054530
S2    S     S_3+6 0.576574 0.845215 0.090504 0.045549
S3    S     S_3+6 0.860289 0.883358 0.656045 -0.006520
S4    S     S_3+6 0.264386 0.154100 0.244989 -0.008353
Zn1   Zn    Zn3+2 0.471710 0.400660 0.477370 0.961400
Zn2   Zn    Zn3+2 0.528290 0.599340 0.522630 0.966784

loop_
_geom_bond_atom_site_label_1
_geom_bond_atom_site_label_2
_ccdc_geom_bond_type
C15   C18   A    
C12   O12   A    
C34   C37   A    
O14   Zn2   S    
O6    S2    S    
C4    S4    S    
C43   N8    S    
C5    N8    S    
C16   O16   A    
C41   H19   S    
C30   S2    S    
C45   C46   A    
C27   C33   A    
C43   H30   S    
C38   N3    S    
C16   O18   A    
C40   H15   S    
C12   C28   S    
C18   N5    S    
C23   C29   A    
C19   C21   A    
C24   C26   T    
H7    N4    S    
C10   C15   A    
C38   H4    S    
C42   N7    S    
C33   C36   A    
C40   H14   S    
C4    C13   A    
C2    N4    S    
H20   O3    S    
C19   N6    S    
C3    S3    S    
O19   Zn1   S    
C7    N1    A    
C28   C35   A    
C22   C25   T    
C38   H6    S    
C35   H1    S    
O2    S1    D    
C47   H35   S    
O3    S1    S    
O13   S4    S    
C8    H38   S    
C44   C47   A    
O12   Zn2   S    
C2    C34   A    
C29   S1    S    
C46   H34   S    
H31   O9    S    
O9    S3    S    
C17   O17   A    
C12   O15   A    
O20   S1    D    
C32   H23   S    
O10   S4    D    
C21   H37   S    
C11   C20   A    
C42   H26   S    
C17   C24   S    
C30   C34   A    
C17   O19   A    
C28   C32   A    
H22   N7    S    
C4    C6    A    
O5    S2    D    
O18   Zn2   S    
C41   H17   S    
O1    Zn1   S    
C25   C26   S    
C39   H10   S    
C27   C31   A    
C40   H13   S    
O17   Zn2   S    
C8    N2    A    
C9    C14   A    
H21   O6    S    
O4    S2    D    
C39   H8    S    
H32   O13   S    
C1    O1    A    
C6    N7    S    
C42   H24   S    
C13   C21   A    
H11   N5    S    
N2    Zn1   S    
C9    C11   A    
O8    S3    D    
C33   H12   S    
C48   N3    S    
C20   H36   S    
O11   S4    D    
C36   C44   A    
H16   N6    S    
C37   C45   A    
C44   C45   A    
O15   Zn1   S    
C43   H28   S    
C7    C9    A    
C42   H25   S    
C16   C22   S    
C23   C48   A    
C39   N4    S    
C35   C37   A    
C14   C19   A    
C7    H2    S    
C3    C5    A    
C10   C13   A    
O16   Zn1   S    
C41   H18   S    
C2    C47   A    
C43   H29   S    
C31   H33   S    
O7    S3    D    
N1    Zn2   S    
C29   C31   A    
C6    N2    A    
H3    N3    S    
C30   C32   A    
C38   H5    S    
C18   C20   A    
C40   N5    S    
C3    C11   A    
C1    O14   A    
C5    N1    A    
C46   C48   A    
C41   N6    S    
C8    C10   A    
C23   C36   A    
C1    C27   S    
C14   C15   A    
H27   N8    S    
C39   H9    S    
