data_mof_unit_58632.cif
_audit_creation_date              2012-12-10T19:21:56-0500
_audit_creation_method            fapswitch 2.2
_symmetry_space_group_name_H-M    P1
_symmetry_Int_Tables_number       1
_space_group_crystal_system       triclinic
_cell_length_a                    8.727635
_cell_length_b                    17.725532
_cell_length_c                    16.458548
_cell_angle_alpha                 89.952153
_cell_angle_beta                  97.872677
_cell_angle_gamma                 90.043599
_cell_volume                      2522.17052034

loop_
_atom_site_label
_atom_site_type_symbol
_atom_type_description
_atom_site_fract_x
_atom_site_fract_y
_atom_site_fract_z
_atom_type_partial_charge
C1    C     C_R   0.499851 0.355227 0.500036 0.791690
C2    C     C_R   0.500273 0.644771 0.499991 0.791553
C3    C     C_1   0.500970 0.966168 0.500313 -0.067465
C4    C     C_1   0.500622 0.033819 0.500285 -0.067358
C5    C     C_R   0.608350 0.545676 0.835929 -0.074948
C6    C     C_R   0.379465 0.461198 0.163327 -0.076872
C7    C     C_R   0.602247 0.544792 0.749430 0.029083
C8    C     C_R   0.385496 0.462727 0.249873 0.024764
C9    C     C_R   0.399540 0.455473 0.736423 0.065109
C10   C     C_R   0.612781 0.536513 0.264138 0.064410
C11   C     C_R   0.399231 0.455117 0.822052 -0.294130
C12   C     C_R   0.613747 0.535825 0.178571 -0.302673
C13   C     C_R   0.503847 0.500261 0.873293 0.095849
C14   C     C_R   0.496935 0.498245 0.126646 0.092904
C15   C     C_1   0.500337 0.500188 0.962730 -0.036817
C16   C     C_1   0.498470 0.499763 0.037069 -0.044880
C17   C     C_R   0.203342 0.499982 0.479148 0.895612
C18   C     C_R   0.796656 0.500008 0.520846 0.895113
C19   C     C_2   0.037814 0.500000 0.467448 -0.375778
C20   C     C_2   0.962183 0.499971 0.532527 -0.371125
C21   C     C_R   0.503950 0.846262 0.574082 -0.160295
C22   C     C_R   0.499984 0.153630 0.426511 -0.158388
C23   C     C_R   0.503751 0.767617 0.574093 -0.195405
C24   C     C_R   0.499745 0.232275 0.426343 -0.193365
C25   C     C_R   0.500804 0.727720 0.500086 -0.033139
C26   C     C_R   0.499741 0.272272 0.500076 -0.034114
C27   C     C_R   0.498403 0.767847 0.426209 -0.196578
C28   C     C_R   0.499735 0.232239 0.573858 -0.197552
C29   C     C_R   0.498581 0.846491 0.426401 -0.159403
C30   C     C_R   0.499973 0.153594 0.573823 -0.160625
C31   C     C_R   0.501251 0.885586 0.500276 0.152268
C32   C     C_R   0.500175 0.114402 0.500207 0.151775
Cu1   Cu    Cu3+1 0.499990 0.499980 0.580420 0.935357
Cu2   Cu    Cu3+1 0.500010 0.500020 0.419580 0.933521
H1    H     H_    0.977971 0.500054 0.404979 0.167233
H2    H     H_    0.022042 0.499908 0.594990 0.172753
H3    H     H_    0.506119 0.876362 0.631509 0.127267
H4    H     H_    0.500076 0.123451 0.369285 0.129688
H5    H     H_    0.505929 0.738166 0.631931 0.146731
H6    H     H_    0.499633 0.261652 0.368607 0.152784
H7    H     H_    0.496216 0.738570 0.368329 0.151912
H8    H     H_    0.499616 0.261591 0.631538 0.148911
H9    H     H_    0.496529 0.876775 0.369040 0.129211
H10   H     H_    0.500057 0.123388 0.631099 0.127529
H11   H     H_    0.681784 0.579373 0.720605 0.127201
H12   H     H_    0.297859 0.433400 0.278278 0.129612
H13   H     H_    0.318643 0.420007 0.698064 0.121611
H14   H     H_    0.703100 0.566398 0.302806 0.122246
N1    N     N_R   0.499960 0.499970 0.701210 -0.173866
N2    N     N_R   0.500040 0.500030 0.298790 -0.173139
O1    O     O_R   0.499990 0.391240 0.567930 -0.589001
O2    O     O_R   0.500010 0.608760 0.432070 -0.585630
O3    O     O_R   0.500000 0.391270 0.432120 -0.585605
O4    O     O_R   0.500000 0.608730 0.567880 -0.589332
O5    O     O_R   0.274830 0.499990 0.552240 -0.579395
O6    O     O_R   0.725170 0.500010 0.447760 -0.583483
O7    O     O_R   0.274840 0.500020 0.416420 -0.597835
O8    O     O_R   0.725160 0.499980 0.583580 -0.591585
C33   C     C_R   0.725708 0.593544 0.885069 0.097756
C34   C     C_R   0.831619 0.561737 0.947751 -0.127048
C35   C     C_R   0.943922 0.606791 0.993082 -0.135610
C36   C     C_R   0.951919 0.683788 0.975923 -0.112631
C37   C     C_R   0.847950 0.715794 0.913222 -0.129168
C38   C     C_R   0.735505 0.670901 0.867706 -0.156112
H15   H     H_    0.828139 0.501980 0.960746 0.133415
H16   H     H_    0.025249 0.582002 0.041229 0.138518
H17   H     H_    0.039024 0.718590 0.010999 0.123369
H18   H     H_    0.854584 0.775402 0.899814 0.123975
H19   H     H_    0.655618 0.696472 0.819321 0.115771
C39   C     C_R   0.247945 0.422042 0.113802 0.104540
C40   C     C_R   0.273430 0.368087 0.054489 -0.128682
C41   C     C_R   0.148436 0.331606 0.008447 -0.143157
C42   C     C_R   0.997278 0.347781 0.021926 -0.112107
C43   C     C_R   0.970807 0.400292 0.081677 -0.146198
C44   C     C_R   0.095292 0.437366 0.127363 -0.173229
H20   H     H_    0.389841 0.353682 0.044334 0.120785
H21   H     H_    0.168866 0.290467 0.962580 0.120684
H22   H     H_    0.900695 0.319443 0.986281 0.120465
H23   H     H_    0.853685 0.412698 0.092226 0.132606
H24   H     H_    0.072439 0.478559 0.172771 0.116964
H25   H     H_    0.317391 0.419591 0.848137 0.145182
H26   H     H_    0.705216 0.565061 0.152996 0.146000

loop_
_geom_bond_atom_site_label_1
_geom_bond_atom_site_label_2
_ccdc_geom_bond_type
Cu1   O5    S    
Cu2   O6    S    
Cu1   O8    S    
C27   C29   A    
C42   C43   A    
C19   C20   D    
C11   H25   S    
C21   C31   A    
C33   C38   A    
C41   H21   S    
C22   C32   A    
C36   H17   S    
C7    H11   S    
C24   C26   A    
C40   H20   S    
Cu1   N1    S    
C15   C16   T    
C22   H4    S    
C1    O3    A    
C24   H6    S    
C35   H16   S    
C18   O8    A    
Cu2   O7    S    
C42   H22   S    
C39   C40   A    
C14   C16   S    
C44   H24   S    
C17   O5    A    
C5    C13   A    
C18   O6    A    
C33   C34   A    
C29   H9    S    
C30   H10   S    
C10   C12   A    
C21   C23   A    
Cu2   N2    S    
C43   C44   A    
C5    C33   S    
C9    N1    A    
C7    N1    A    
C2    O4    A    
C5    C7    A    
C6    C8    A    
C34   C35   A    
C36   C37   A    
C6    C14   A    
C1    O1    A    
C27   H7    S    
Cu1   Cu2   S    
C12   H26   S    
C38   H19   S    
C3    C31   S    
C9    C11   A    
C4    C32   S    
C2    O2    A    
C12   C14   A    
C34   H15   S    
C9    H13   S    
C43   H23   S    
C13   C15   S    
C10   H14   S    
C1    C26   S    
C22   C24   A    
C25   C27   A    
C3    C4    T    
C10   N2    A    
C8    N2    A    
Cu1   O4    S    
C6    C39   S    
C37   H18   S    
C26   C28   A    
C41   C42   A    
Cu1   O1    S    
Cu2   O2    S    
C28   C30   A    
C40   C41   A    
C29   C31   A    
C19   H1    S    
C30   C32   A    
C11   C13   A    
C23   H5    S    
C28   H8    S    
C17   C19   S    
C2    C25   S    
C18   C20   S    
C23   C25   A    
C35   C36   A    
C8    H12   S    
C37   C38   A    
C20   H2    S    
C21   H3    S    
Cu2   O3    S    
C39   C44   A    
C17   O7    A    
