data_mof_unit_19316.cif
_audit_creation_date              2013-03-05T15:42:54-0500
_audit_creation_method            fapswitch 2.2
_symmetry_space_group_name_H-M    P1
_symmetry_Int_Tables_number       1
_space_group_crystal_system       triclinic
_cell_length_a                    15.066974
_cell_length_b                    10.916871
_cell_length_c                    9.678513
_cell_angle_alpha                 90.456736
_cell_angle_beta                  90.013588
_cell_angle_gamma                 90.338176
_cell_volume                      1591.88420576

loop_
_atom_site_label
_atom_site_type_symbol
_atom_site_description
_atom_site_fract_x
_atom_site_fract_y
_atom_site_fract_z
_atom_type_partial_charge
O1    O     O_R   0.500020 0.321960 0.617040 -0.582803
O2    O     O_R   0.499980 0.321920 0.382900 -0.557570
C1    C     C_R   0.502411 0.265242 0.499135 0.842914
O3    O     O_R   0.370270 0.499990 0.617090 -0.578318
O4    O     O_R   0.370240 0.499950 0.382940 -0.580038
C2    C     C_R   0.328606 0.498905 0.500008 0.818071
Cu1   Cu    Cu3+1 0.500020 0.500020 0.638630 0.941279
Cu2   Cu    Cu3+1 0.499980 0.499980 0.361370 0.949980
O5    O     O_R   0.500020 0.678080 0.617100 -0.577321
O6    O     O_R   0.499980 0.678040 0.382960 -0.579368
O7    O     O_R   0.629760 0.500050 0.617060 -0.586985
O8    O     O_R   0.629730 0.500010 0.382910 -0.582049
C3    C     C_R   0.502864 0.734759 0.500676 0.868673
C4    C     C_R   0.671339 0.498936 0.499930 0.802254
C5    C     C_R   0.814883 0.526390 0.379731 -0.256843
C6    C     C_R   0.768067 0.495362 0.499594 -0.070519
C7    C     C_R   0.813783 0.459722 0.618642 -0.232746
C8    C     C_R   0.906263 0.455253 0.618797 0.081000
C9    C     C_R   0.953388 0.488151 0.499015 0.069641
C10   C     C_R   0.907297 0.523938 0.378877 0.098475
C11   C     C_R   0.951832 0.416948 0.736473 -0.261806
C12   C     C_R   0.044704 0.410862 0.737860 -0.015448
C13   C     C_R   0.092947 0.450391 0.619819 0.025586
C14   C     C_R   0.046475 0.486568 0.499496 0.051582
C15   C     C_R   0.092955 0.522736 0.379474 0.100550
C16   C     C_R   0.046581 0.557733 0.260813 -0.180047
C17   C     C_R   0.954240 0.557703 0.260232 -0.176747
C18   C     C_R   0.185925 0.458664 0.619045 -0.203480
C19   C     C_R   0.231731 0.494392 0.499817 -0.083228
C20   C     C_R   0.185206 0.524607 0.380024 -0.235275
H1    H     H_    0.779493 0.554066 0.287621 0.153591
H2    H     H_    0.777372 0.434114 0.710767 0.149356
H3    H     H_    0.914485 0.388456 0.826627 0.174073
H4    H     H_    0.223740 0.439052 0.710940 0.187683
H5    H     H_    0.220777 0.552375 0.287908 0.158530
H6    H     H_    0.081820 0.585645 0.168558 0.168237
H7    H     H_    0.919563 0.585121 0.167461 0.154178
C21   C     C_2   0.523649 0.931326 0.388550 -0.192784
C22   C     C_2   0.512922 0.866604 0.504390 -0.337973
H8    H     H_    0.527007 0.884578 0.289134 0.168481
H9    H     H_    0.516561 0.908972 0.605892 0.150524
C23   C     C_2   0.535407 0.065213 0.390636 0.028428
C24   C     C_2   0.502644 0.132515 0.496983 -0.365575
H10   H     H_    0.469486 0.090296 0.583851 0.144106
C25   C     C_2   0.448858 0.428871 0.921434 -0.066969
N1    N     N_2   0.499020 0.498660 0.846910 -0.286284
H11   H     H_    0.402588 0.367572 0.869382 0.164766
H12   H     H_    0.545288 0.553816 0.894494 0.191568
C26   C     C_2   0.451088 0.425923 0.077214 -0.040416
N2    N     N_2   0.499000 0.498630 0.153040 -0.282743
H13   H     H_    0.409103 0.359026 0.128101 0.158837
H14   H     H_    0.537007 0.564717 0.106577 0.189043
C27   C     C_R   0.582628 0.121242 0.271593 0.157289
C28   C     C_R   0.661410 0.188623 0.292648 -0.101189
C29   C     C_R   0.703941 0.244881 0.181286 -0.116868
C30   C     C_R   0.668641 0.233593 0.048195 -0.105970
C31   C     C_R   0.590997 0.165492 0.026129 -0.133800
C32   C     C_R   0.548134 0.109228 0.137241 -0.167778
H15   H     H_    0.689160 0.198669 0.395408 0.106498
H16   H     H_    0.764107 0.297554 0.198260 0.136843
H17   H     H_    0.701426 0.277616 0.962173 0.122593
H18   H     H_    0.563649 0.157060 0.923023 0.137032
H19   H     H_    0.487339 0.058207 0.118981 0.125512
C33   C     C_2   0.087163 0.358522 0.862728 0.822040
O9    O     O_2   0.151730 0.291789 0.852007 -0.614621
O10   O     O_R   0.049675 0.379936 0.992758 -0.782608
H20   H     H_    0.083152 0.337744 0.069636 0.336958

loop_
_geom_bond_atom_site_label_1
_geom_bond_atom_site_label_2
_geom_bond_distance
_ccdc_geom_bond_type
C7    C8    1.394535 A    
O4    Cu2   1.965953 S    
N2    H14   1.025219 S    
C13   C14   1.418674 A    
Cu1   N1    2.016072 S    
C5    H1    1.084593 S    
C19   C20   1.397457 A    
C30   H17   1.082545 S    
C10   C17   1.399572 A    
C6    C7    1.401201 A    
Cu2   O8    1.965973 S    
C8    C11   1.397868 A    
C9    C10   1.413149 A    
C25   C26   1.508683 S    
C27   C32   1.405106 A    
C33   O9    1.222749 D    
C11   H3    1.084996 S    
C29   C30   1.397742 A    
C9    C14   1.402753 A    
C16   C17   1.391302 A    
C18   H4    1.079687 S    
C31   H18   1.082575 S    
C22   H9    1.083725 S    
O1    Cu1   1.953400 S    
C29   H16   1.082445 S    
C14   C15   1.414269 A    
Cu1   O7    1.965955 S    
C1    C24   1.448966 S    
C31   C32   1.398935 A    
O4    C2    1.295329 A    
C20   H5    1.084705 S    
C17   H7    1.083834 S    
O3    Cu1   1.965972 S    
O3    C2    1.295253 A    
C18   C19   1.401583 A    
C21   H8    1.086890 S    
O8    C4    1.294553 A    
O10   H20   1.014020 S    
N1    H12   1.025240 S    
C28   H15   1.083292 S    
C25   H11   1.084703 S    
C24   H10   1.082848 S    
C5    C10   1.392828 A    
O7    C4    1.295363 A    
C4    C6    1.458151 S    
C23   C27   1.488049 S    
C3    C22   1.446564 S    
C13   C18   1.403305 A    
C23   C24   1.354766 D    
C12   C33   1.487027 S    
C5    C6    1.400700 A    
C21   C23   1.471265 S    
Cu2   N2    2.016311 S    
Cu1   Cu2   2.683462 S    
C2    C19   1.460148 S    
C21   C22   1.339292 D    
C30   C31   1.397854 A    
Cu2   O6    1.953400 S    
C26   N2    1.293610 D    
C16   H6    1.083823 S    
C15   C20   1.389978 A    
Cu1   O5    1.956645 S    
C7    H2    1.084675 S    
O5    C3    1.290436 A    
C28   C29   1.398482 A    
C8    C9    1.407533 A    
O2    C1    1.288845 A    
C26   H13   1.084670 S    
C15   C16   1.401042 A    
C11   C12   1.401343 A    
C12   C13   1.422787 A    
O2    Cu2   1.956645 S    
C32   H19   1.082983 S    
C27   C28   1.406699 A    
C25   N1    1.293894 D    
O1    C1    1.294575 A    
O6    C3    1.292957 A    
C33   O10   1.398109 S    
