data_mof_unit_24009.cif
_audit_creation_date              2012-10-26T20:03:19-0400
_audit_creation_method            fapswitch 2.2
_symmetry_space_group_name_H-M    P1
_symmetry_Int_Tables_number       1
_space_group_crystal_system       triclinic
_cell_length_a                    10.617801
_cell_length_b                    12.341449
_cell_length_c                    13.146075
_cell_angle_alpha                 116.377377
_cell_angle_beta                  77.793876
_cell_angle_gamma                 101.151046
_cell_volume                      1498.6479071

loop_
_atom_site_label
_atom_site_type_symbol
_atom_type_description
_atom_site_fract_x
_atom_site_fract_y
_atom_site_fract_z
_atom_type_partial_charge
C1    C     C_R   0.517268 0.855054 0.286442 0.587848
C2    C     C_R   0.558648 0.560812 0.024382 -0.033515
C3    C     C_R   0.492932 0.648927 0.122866 0.003609
C4    C     C_R   0.740134 0.999744 0.500414 0.554711
C5    C     C_R   0.505059 0.436070 0.985336 -0.038784
C6    C     C_R   0.409271 0.399408 0.061088 0.023633
C7    C     C_R   0.346450 0.488189 0.159893 0.265264
C8    C     C_R   0.376060 0.611387 0.179031 0.232291
C9    C     C_R   0.539516 0.348062 0.872658 0.166210
C10   C     C_R   0.403683 0.188097 0.920051 0.177620
C11   C     C_R   0.547301 0.772592 0.164937 -0.001999
C12   C     C_3   0.017899 0.010645 0.603446 -0.107395
C13   C     C_R   0.707226 0.346044 0.327972 -0.100483
C14   C     C_R   0.322277 0.757256 0.643743 0.427720
C15   C     C_R   0.284839 0.658335 0.673264 -0.136706
C16   C     C_R   0.486755 0.144957 0.713984 0.584807
C17   C     C_R   0.352068 0.556612 0.618664 -0.143572
C18   C     C_R   0.458662 0.550678 0.532763 -0.019703
C19   C     C_R   0.494235 0.653190 0.504952 0.106153
C20   C     C_R   0.530725 0.446904 0.473653 -0.029753
C21   C     C_R   0.636123 0.446963 0.386814 0.085006
C22   C     C_R   0.670108 0.547312 0.359539 0.202744
C23   C     C_3   0.933224 0.905114 0.519835 -0.141229
C24   C     C_R   0.600150 0.648167 0.418810 -0.099960
C25   C     C_R   0.503023 0.342028 0.496941 0.076391
C26   C     C_R   0.674958 0.246571 0.355114 0.034355
C27   C     C_R   0.259666 0.000650 0.500163 0.574685
C28   C     C_3   0.981936 0.990171 0.398173 -0.155286
C29   C     C_3   0.040525 0.896193 0.417211 -0.130974
C30   C     C_3   0.122915 0.001780 0.500457 0.004987
C31   C     C_3   0.066859 0.096119 0.481122 -0.099558
C32   C     C_3   0.960354 0.102071 0.581843 0.241396
C33   C     C_3   0.876589 0.998926 0.500578 0.074897
C34   C     C_R   0.374543 0.274405 0.034160 0.256867
C35   C     C_R   0.479600 0.226783 0.837860 0.008919
C36   C     C_R   0.655529 0.809741 0.101352 -0.150011
C37   C     C_R   0.722383 0.723433 0.005333 0.227706
C38   C     C_R   0.677981 0.600394 0.971875 0.012404
Cu1   Cu    Cu3+1 0.529830 0.098270 0.475420 0.976603
Cu2   Cu    Cu3+1 0.470170 0.901730 0.524580 1.047496
H1    H     H_    0.425052 0.334189 0.561397 0.129933
H2    H     H_    0.729730 0.169052 0.309794 0.122604
H3    H     H_    0.784558 0.622211 0.264843 0.316506
H4    H     H_    0.787884 0.343510 0.261200 0.175529
H5    H     H_    0.182481 0.845516 0.753117 0.304962
H6    H     H_    0.964100 0.980883 0.314283 0.123100
H7    H     H_    0.202911 0.659810 0.738728 0.116931
H8    H     H_    0.632378 0.721211 0.394391 0.160184
H9    H     H_    0.122989 0.175314 0.467094 0.139465
H10   H     H_    0.989436 0.258758 0.705702 0.323645
H11   H     H_    0.876381 0.826627 0.534708 0.147237
H12   H     H_    0.317762 0.483892 0.645361 0.115736
H13   H     H_    0.268290 0.062708 0.935075 0.335071
H14   H     H_    0.243735 0.521082 0.309376 0.330002
H15   H     H_    0.333088 0.157291 0.101045 0.327773
H16   H     H_    0.035286 0.020934 0.687815 0.140740
H17   H     H_    0.074881 0.810884 0.348352 0.158336
H18   H     H_    0.681198 0.323213 0.749297 0.367206
H19   H     H_    0.696357 0.904432 0.133286 0.111498
H20   H     H_    0.743258 0.537925 0.908581 0.206647
H21   H     H_    0.855438 0.845617 0.981393 0.324128
H22   H     H_    0.202289 0.651966 0.254402 0.328491
N1    N     N_R   0.575030 0.246270 0.438190 -0.234332
N2    N     N_R   0.425760 0.754330 0.561190 -0.205889
O1    O     O_R   0.537510 0.972500 0.318130 -0.517935
O2    O     O_3   0.836510 0.755645 0.947083 -0.694740
O3    O     O_3   0.290354 0.695467 0.248546 -0.701916
O4    O     O_3   0.773103 0.545441 0.274436 -0.711208
O5    O     O_3   0.255253 0.857933 0.696681 -0.621315
O6    O     O_3   0.913607 0.209009 0.667580 -0.701264
O7    O     O_3   0.351613 0.067726 0.885565 -0.657215
O8    O     O_3   0.249801 0.453142 0.231614 -0.628150
O9    O     O_3   0.310369 0.238791 0.119352 -0.631633
O10   O     O_R   0.487140 0.806530 0.359650 -0.495071
O11   O     O_R   0.708330 0.082950 0.479220 -0.492049
O12   O     O_R   0.657960 0.916980 0.520740 -0.550841
O13   O     O_R   0.512860 0.193470 0.640350 -0.490477
O14   O     O_R   0.462490 0.027500 0.681870 -0.395758
O15   O     O_R   0.342040 0.083020 0.479260 -0.522438
O16   O     O_R   0.291670 0.917050 0.520780 -0.431033
O17   O     O_3   0.618388 0.383933 0.792815 -0.687856

loop_
_geom_bond_atom_site_label_1
_geom_bond_atom_site_label_2
_ccdc_geom_bond_type
C1    C11   S    
C15   H7    S    
C36   H19   S    
C7    C8    A    
C12   C23   S    
C28   H6    S    
C37   C38   A    
H22   O3    S    
C1    O10   A    
C23   C29   S    
C11   C36   A    
C18   C19   A    
C27   O15   A    
C16   C35   S    
C5    C6    A    
C20   C25   A    
C16   O13   A    
C25   N1    A    
C4    O11   A    
H21   O2    S    
H3    O4    S    
C23   C33   S    
C1    O1    A    
Cu2   O16   S    
C10   C35   A    
Cu1   O11   S    
C18   C20   A    
C10   O7    S    
C21   C22   A    
C12   C32   S    
C27   C30   S    
Cu1   O1    S    
C31   H9    S    
C17   H12   S    
H5    O5    S    
C24   H8    S    
C3    C8    A    
H18   O17   S    
C25   H1    S    
C7    O8    S    
C32   O6    S    
Cu2   O12   S    
Cu1   O15   S    
C26   N1    A    
C5    C9    A    
C29   C30   S    
C2    C38   A    
C23   H11   S    
C31   C32   S    
C19   N2    A    
C14   N2    A    
C37   O2    S    
C17   C18   A    
C13   C21   A    
C10   C34   A    
C22   O4    S    
C12   H16   S    
C38   H20   S    
Cu2   O14   S    
C29   H17   S    
C28   C33   S    
C27   O16   A    
C14   O5    S    
C22   C24   A    
C13   C26   A    
C2    C5    A    
H13   O7    S    
Cu1   O13   S    
Cu1   Cu2   S    
C26   H2    S    
C15   C17   A    
C4    C33   S    
C28   C29   S    
C12   C30   S    
C28   C31   S    
C6    C7    A    
Cu1   N1    S    
Cu2   N2    S    
C32   C33   S    
C19   C24   A    
H10   O6    S    
C30   C31   S    
Cu2   O10   S    
C2    C3    A    
C16   O14   A    
C4    O12   A    
C3    C11   A    
C34   O9    S    
H15   O9    S    
C6    C34   A    
H14   O8    S    
C20   C21   A    
C8    O3    S    
C36   C37   A    
C9    C35   A    
C14   C15   A    
C13   H4    S    
C9    O17   S    
