data_mof_unit_53453.cif
_audit_creation_date              2012-12-10T17:41:46-0500
_audit_creation_method            fapswitch 2.2
_symmetry_space_group_name_H-M    P1
_symmetry_Int_Tables_number       1
_space_group_crystal_system       triclinic
_cell_length_a                    13.797157
_cell_length_b                    13.879311
_cell_length_c                    15.017295
_cell_angle_alpha                 88.34066
_cell_angle_beta                  88.903352
_cell_angle_gamma                 85.607879
_cell_volume                      2865.67670965

loop_
_atom_site_label
_atom_site_type_symbol
_atom_type_description
_atom_site_fract_x
_atom_site_fract_y
_atom_site_fract_z
_atom_type_partial_charge
C1    C     C_R   0.500766 0.501837 0.329051 0.861804
C2    C     C_R   0.527991 0.320048 0.961708 0.356075
C3    C     C_R   0.789929 0.563374 0.443935 0.098941
C4    C     C_R   0.209735 0.438863 0.557983 0.129674
C5    C     C_R   0.796926 0.436620 0.553855 0.070015
C6    C     C_R   0.203505 0.559881 0.442782 0.059562
C7    C     C_R   0.899520 0.434959 0.554922 -0.122045
C8    C     C_R   0.100916 0.561518 0.441564 -0.121756
C9    C     C_R   0.948433 0.498515 0.497702 -0.052598
C10   C     C_R   0.051948 0.497758 0.498452 -0.061195
C11   C     C_R   0.893821 0.562356 0.439501 -0.148074
C12   C     C_R   0.499483 0.498327 0.670977 0.864783
C13   C     C_R   0.106611 0.433255 0.555949 -0.146256
C14   C     C_R   0.953826 0.369602 0.611219 0.378991
C15   C     C_R   0.046906 0.624937 0.383433 0.387402
C16   C     C_R   0.515245 0.317239 0.499025 0.882836
C17   C     C_R   0.484710 0.682765 0.500857 0.884561
C18   C     C_R   0.056300 0.364743 0.608320 0.406201
C19   C     C_R   0.945243 0.621731 0.378393 0.399298
C20   C     C_1   0.475755 0.785593 0.500947 -0.082692
C21   C     C_1   0.523969 0.214420 0.498412 -0.113118
C22   C     C_2   0.458292 0.977072 0.500440 0.415824
C23   C     C_R   0.517742 0.496998 0.952804 -0.023336
C24   C     C_2   0.540882 0.022962 0.497777 0.419153
C25   C     C_1   0.532084 0.127779 0.498046 -0.046489
C26   C     C_1   0.467275 0.872240 0.500778 -0.024984
C27   C     C_R   0.499087 0.407332 0.816705 -0.034631
C28   C     C_R   0.502106 0.592366 0.183172 -0.057402
C29   C     C_R   0.500108 0.495128 0.767620 -0.093862
C30   C     C_R   0.504012 0.504527 0.232460 -0.118079
C31   C     C_R   0.510292 0.581522 0.809356 -0.197998
C32   C     C_R   0.512980 0.416465 0.190543 -0.202557
C33   C     C_R   0.519792 0.584358 0.901676 0.053601
C34   C     C_R   0.518691 0.499590 0.046627 -0.022747
C35   C     C_R   0.520571 0.412020 0.097778 0.053996
C36   C     C_3   0.710772 0.025033 0.491352 -0.214975
C37   C     C_3   0.288358 0.974913 0.503654 -0.333529
C38   C     C_2   0.476303 0.318315 0.771112 0.437816
C39   C     C_2   0.476037 0.685031 0.228440 0.398818
C40   C     C_2   0.547468 0.764032 0.893664 0.373449
C41   C     C_2   0.544410 0.227974 0.104802 0.372443
C42   C     C_3   0.650439 0.756941 0.094956 -0.259168
C43   C     C_3   0.644872 0.216377 0.901341 -0.276587
C44   C     C_2   0.730740 0.635926 0.390947 0.590810
C45   C     C_R   0.513304 0.407215 0.910124 -0.052724
C46   C     C_2   0.266495 0.384274 0.627392 0.542551
C47   C     C_3   0.893972 0.342194 0.750448 -0.264746
C48   C     C_3   0.094490 0.777067 0.365870 -0.284674
C49   C     C_3   0.120561 0.209608 0.605428 -0.293338
C50   C     C_3   0.899226 0.627670 0.234106 -0.298598
C51   C     C_R   0.515900 0.589956 0.089379 -0.049278
C52   C     C_R   0.531655 0.672414 0.943963 -0.087287
C53   C     C_R   0.529970 0.322160 0.055055 -0.084908
C54   C     C_R   0.531227 0.674637 0.037313 0.352669
Cu1   Cu    Cu3+1 0.597420 0.500010 0.499990 0.987013
Cu2   Cu    Cu3+1 0.402580 0.499990 0.500010 0.959044
H1    H     H_    0.508176 0.646784 0.768097 0.173627
H2    H     H_    0.220730 0.023564 0.504821 0.181766
H3    H     H_    0.424495 0.271589 0.801207 0.132176
H4    H     H_    0.426133 0.739441 0.197147 0.121188
H5    H     H_    0.514647 0.832131 0.917834 0.120608
H6    H     H_    0.509482 0.165783 0.082315 0.122906
H7    H     H_    0.695273 0.750701 0.032688 0.163662
H8    H     H_    0.672593 0.696764 0.142653 0.163317
H9    H     H_    0.665679 0.825459 0.126280 0.211161
H10   H     H_    0.688975 0.212983 0.962785 0.168739
H11   H     H_    0.669763 0.273184 0.854273 0.168199
H12   H     H_    0.510724 0.351677 0.232049 0.175293
H13   H     H_    0.658037 0.145934 0.868449 0.206073
H14   H     H_    0.697191 0.616052 0.330275 0.066675
H15   H     H_    0.313012 0.320652 0.611269 0.076269
H16   H     H_    0.855341 0.290387 0.793109 0.177800
H17   H     H_    0.848260 0.411892 0.748528 0.146257
H18   H     H_    0.964842 0.351732 0.781959 0.200959
H19   H     H_    0.133787 0.825988 0.320717 0.185507
H20   H     H_    0.133482 0.771242 0.430279 0.134248
H21   H     H_    0.019359 0.810677 0.375891 0.200428
H22   H     H_    0.163216 0.224909 0.543600 0.136779
H23   H     H_    0.758641 0.387543 0.596544 0.179445
H24   H     H_    0.050295 0.180921 0.588404 0.186542
H25   H     H_    0.163020 0.152285 0.644226 0.200408
H26   H     H_    0.863176 0.558881 0.243219 0.123249
H27   H     H_    0.974783 0.612850 0.208099 0.200672
H28   H     H_    0.858332 0.672562 0.183026 0.181413
H29   H     H_    0.242031 0.607089 0.398384 0.173743
H30   H     H_    0.713360 0.068959 0.551949 0.163243
H31   H     H_    0.709741 0.071748 0.429859 0.163726
H32   H     H_    0.778324 0.976322 0.489004 0.199022
H33   H     H_    0.287449 0.927255 0.564462 0.169518
H34   H     H_    0.287748 0.931955 0.442274 0.169401
N1    N     N_R   0.743820 0.499960 0.499930 -0.236468
N2    N     N_R   0.256180 0.500040 0.500070 -0.236282
O1    O     O_R   0.582280 0.500030 0.370250 -0.606219
O2    O     O_3   0.368728 0.032024 0.503053 -0.598289
O3    O     O_2   0.516788 0.295196 0.701179 -0.592621
O4    O     O_2   0.511332 0.702411 0.299495 -0.573601
O5    O     O_2   0.602044 0.765217 0.828742 -0.546327
O6    O     O_2   0.600109 0.217216 0.167126 -0.559247
O7    O     O_3   0.550188 0.760040 0.076865 -0.610144
O8    O     O_3   0.544585 0.231552 0.921533 -0.611132
O9    O     O_2   0.723600 0.720351 0.412585 -0.483083
O10   O     O_2   0.257817 0.408143 0.704937 -0.548302
O11   O     O_3   0.907282 0.303974 0.664717 -0.578723
O12   O     O_R   0.417720 0.499970 0.629750 -0.576049
O13   O     O_3   0.093965 0.686385 0.325945 -0.576928
O14   O     O_3   0.105790 0.292137 0.658153 -0.552612
O15   O     O_3   0.897491 0.679271 0.313786 -0.553283
O16   O     O_R   0.417740 0.500020 0.370270 -0.588443
O17   O     O_R   0.582260 0.499980 0.629730 -0.574430
O18   O     O_R   0.593900 0.362160 0.500010 -0.578726
O19   O     O_R   0.406100 0.637840 0.499990 -0.603682
O20   O     O_R   0.429360 0.362150 0.500030 -0.612122
O21   O     O_R   0.570640 0.637850 0.499970 -0.546225
O22   O     O_3   0.630391 0.967924 0.495198 -0.568778

loop_
_geom_bond_atom_site_label_1
_geom_bond_atom_site_label_2
_ccdc_geom_bond_type
Cu1   Cu2   S    
C24   O22   S    
C16   C21   S    
C23   C45   A    
C12   C29   S    
C27   C29   A    
C14   C18   A    
Cu1   O1    S    
C36   O22   S    
C16   O18   A    
C4    C46   S    
C36   H32   S    
C33   C52   A    
C15   C19   A    
C46   O10   D    
C11   C19   A    
C34   C51   A    
C6    H29   S    
C37   H34   S    
C12   O12   A    
C28   C51   A    
C35   C53   A    
C27   C38   S    
C17   C20   S    
C49   H22   S    
C3    N1    A    
C34   C35   A    
C49   H25   S    
C4    C13   A    
C48   H20   S    
Cu2   O16   S    
Cu1   N1    S    
C7    C14   A    
C23   C33   A    
C38   O3    D    
C42   H9    S    
C31   C33   A    
C44   H14   S    
C5    H23   S    
C9    C10   A    
Cu2   O19   S    
C37   H2    S    
C32   H12   S    
C27   C45   A    
C17   O21   A    
C2    O8    S    
C36   H31   S    
Cu1   O17   S    
C22   O2    S    
C48   H19   S    
C41   H6    S    
C17   O19   A    
C12   O17   A    
C52   C54   A    
C50   H27   S    
C2    C45   A    
C39   O4    D    
C3    C44   S    
C47   O11   S    
C50   H28   S    
C32   C35   A    
C24   C25   S    
Cu2   O12   S    
C40   O5    D    
C5    C7    A    
C6    C8    A    
Cu1   O21   S    
C28   C39   S    
C36   H30   S    
C47   H17   S    
C40   C52   S    
C2    C53   A    
C1    O1    A    
C40   H5    S    
C48   H21   S    
C18   O14   S    
C48   O13   S    
C16   O20   A    
C23   C34   A    
C43   O8    S    
C9    C11   A    
C41   C53   S    
C46   H15   S    
C5    N1    A    
C13   C18   A    
C8    C10   A    
C8    C15   A    
Cu1   O18   S    
C50   O15   S    
C22   C24   D    
C54   O7    S    
C42   H8    S    
C50   H26   S    
C7    C9    A    
C21   C25   T    
C47   H18   S    
C10   C13   A    
C44   O9    D    
C49   O14   S    
C49   H24   S    
C37   H33   S    
C51   C54   A    
C15   O13   S    
C28   C30   A    
C29   C31   A    
C42   O7    S    
C30   C32   A    
C31   H1    S    
C14   O11   S    
C20   C26   T    
C43   H10   S    
C6    N2    A    
C39   H4    S    
C1    C30   S    
C37   O2    S    
C47   H16   S    
C3    C11   A    
C1    O16   A    
C38   H3    S    
Cu2   N2    S    
C43   H11   S    
C22   C26   S    
C41   O6    D    
C43   H13   S    
C42   H7    S    
Cu2   O20   S    
C4    N2    A    
C19   O15   S    
