data_mof_unit_12972.cif
_audit_creation_date              2012-12-10T17:22:41-0500
_audit_creation_method            fapswitch 2.2
_symmetry_space_group_name_H-M    P1
_symmetry_Int_Tables_number       1
_space_group_crystal_system       triclinic
_cell_length_a                    10.631706
_cell_length_b                    10.850557
_cell_length_c                    9.63716
_cell_angle_alpha                 89.659815
_cell_angle_beta                  89.110244
_cell_angle_gamma                 96.002619
_cell_volume                      1105.48129604

loop_
_atom_site_label
_atom_site_type_symbol
_atom_type_description
_atom_site_fract_x
_atom_site_fract_y
_atom_site_fract_z
_atom_type_partial_charge
C1    C     C_R   0.505989 0.262675 0.501428 0.818967
C2    C     C_3   0.960382 0.477916 0.370076 -0.113829
C3    C     C_3   0.032661 0.388938 0.457464 -0.199212
C4    C     C_3   0.122747 0.500473 0.504065 -0.118774
C5    C     C_R   0.530867 0.112615 0.765628 -0.085922
C6    C     C_R   0.494800 0.048409 0.888113 -0.092750
C7    C     C_R   0.430407 0.930533 0.882088 -0.096603
C8    C     C_R   0.414350 0.871953 0.754442 -0.121942
C9    C     C_R   0.461954 0.931801 0.630407 0.091201
C10   C     C_R   0.501366 0.059724 0.634195 0.113082
C11   C     C_R   0.509575 0.127779 0.506555 -0.117959
C12   C     C_R   0.259622 0.500056 0.501213 0.865482
C13   C     C_R   0.504179 0.063953 0.380477 -0.161201
C14   C     C_R   0.491479 0.935982 0.379041 -0.138903
C15   C     C_R   0.473968 0.868560 0.503260 -0.085462
C16   C     C_R   0.648737 0.704717 0.128667 0.185163
C17   C     C_R   0.693318 0.804528 0.041557 -0.240878
C18   C     C_R   0.704668 0.788224 0.901689 0.133290
C19   C     C_R   0.654740 0.678987 0.844677 -0.118196
C20   C     C_R   0.576769 0.589590 0.921613 0.067022
C21   C     C_R   0.575920 0.594577 0.071665 0.087562
C22   C     C_R   0.423172 0.416273 0.075622 0.309762
C23   C     C_R   0.487459 0.735632 0.500573 0.815920
C24   C     C_R   0.422185 0.417358 0.928008 0.312163
C25   C     C_R   0.739951 0.496147 0.499373 0.830419
C26   C     C_3   0.038263 0.519197 0.631274 0.204564
C27   C     C_3   0.946640 0.407517 0.585448 -0.170420
C28   C     C_3   0.876929 0.496540 0.498221 -0.090444
C29   C     C_3   0.966268 0.608266 0.544797 -0.219061
C30   C     C_3   0.051783 0.588610 0.417894 0.295873
Cu1   Cu    Cu3+1 0.499990 0.499990 0.640660 0.985682
Cu2   Cu    Cu3+1 0.500010 0.500010 0.359340 1.027139
H1    H     H_    0.900776 0.332852 0.654101 0.177622
H2    H     H_    0.397155 0.882560 0.976654 0.163124
H3    H     H_    0.362944 0.780589 0.754223 0.180575
H4    H     H_    0.496287 0.889947 0.279973 0.170609
H5    H     H_    0.736198 0.892145 0.081246 0.201382
H6    H     H_    0.676186 0.671579 0.737759 0.219569
H7    H     H_    0.936804 0.698208 0.580348 0.199874
H8    H     H_    0.926189 0.461583 0.262806 0.191330
H9    H     H_    0.062495 0.299068 0.422156 0.203384
H10   H     H_    0.511990 0.112891 0.281919 0.178658
H11   H     H_    0.585425 0.201419 0.776865 0.163266
H12   H     H_    0.514920 0.091181 0.987659 0.144746
N1    N     N_R   0.501210 0.501210 0.147910 -0.229603
N2    N     N_R   0.501250 0.501290 0.852040 -0.237859
O1    O     O_R   0.499990 0.319640 0.618810 -0.571467
O2    O     O_R   0.500000 0.319660 0.381240 -0.555652
O3    O     O_R   0.316850 0.499960 0.618770 -0.542238
O4    O     O_R   0.316860 0.499980 0.381190 -0.524242
O5    O     O_R   0.500000 0.680340 0.618760 -0.619405
O6    O     O_R   0.500010 0.680360 0.381190 -0.561328
O7    O     O_R   0.683140 0.500020 0.618810 -0.608932
O8    O     O_R   0.683150 0.500040 0.381230 -0.562543
Br1   Br    Br    0.305416 0.297727 0.172791 -0.425642
I1    I     I_    0.762957 0.751019 0.306694 -0.308806
I2    I     I_    0.808768 0.924807 0.776417 -0.342644
Br2   Br    Br    0.302058 0.301925 0.835344 -0.396470
I3    I     I_    0.088067 0.562083 0.841017 -0.241481
Br3   Br    Br    0.130870 0.719815 0.298400 -0.437560

loop_
_geom_bond_atom_site_label_1
_geom_bond_atom_site_label_2
_ccdc_geom_bond_type
C12   O4    A    
C16   I1    S    
C1    O2    A    
C29   C30   S    
C19   H6    S    
C2    H8    S    
C4    C12   S    
C11   C13   A    
C9    C10   A    
C18   I2    S    
C23   O5    A    
Cu1   Cu2   S    
C1    C11   S    
C2    C30   S    
C24   N2    A    
C29   H7    S    
C15   C23   S    
C12   O3    A    
C5    H11   S    
C22   Br1   S    
C4    C30   S    
C5    C10   A    
Cu1   O1    S    
C13   C14   A    
C27   H1    S    
C25   C28   S    
C14   H4    S    
Cu2   O2    S    
Cu2   O4    S    
C23   O6    A    
C6    C7    A    
Cu1   O3    S    
C21   N1    A    
C3    C27   S    
C28   C29   S    
C25   O7    A    
C13   H10   S    
C17   C18   A    
C2    C3    S    
C26   C27   S    
C5    C6    A    
C7    H2    S    
C22   C24   A    
C4    C26   S    
Cu1   O7    S    
C3    H9    S    
C10   C11   A    
C17   H5    S    
C3    C4    S    
C20   N2    A    
C7    C8    A    
C22   N1    A    
C25   O8    A    
C6    H12   S    
C26   C29   S    
C24   Br2   S    
C18   C19   A    
Cu2   N1    S    
Cu2   O8    S    
C27   C28   S    
C14   C15   A    
C1    O1    A    
C26   I3    S    
C2    C28   S    
C20   C21   A    
C9    C15   A    
C16   C21   A    
C8    H3    S    
Cu2   O6    S    
C19   C20   A    
C16   C17   A    
Cu1   O5    S    
C8    C9    A    
Cu1   N2    S    
C30   Br3   S    
