data_mof_unit_27692.cif
_audit_creation_date              2012-12-10T16:53:29-0500
_audit_creation_method            fapswitch 2.2
_symmetry_space_group_name_H-M    P1
_symmetry_Int_Tables_number       1
_space_group_crystal_system       triclinic
_cell_length_a                    7.967439
_cell_length_b                    8.579231
_cell_length_c                    13.616417
_cell_angle_alpha                 94.671505
_cell_angle_beta                  78.049018
_cell_angle_gamma                 92.894608
_cell_volume                      907.004643819

loop_
_atom_site_label
_atom_site_type_symbol
_atom_type_description
_atom_site_fract_x
_atom_site_fract_y
_atom_site_fract_z
_atom_type_partial_charge
C1    C     C_R   0.544530 0.793874 0.498601 0.944658
C2    C     C_1   0.569145 0.497630 0.119837 0.088116
C3    C     C_2   0.566754 0.957483 0.501573 -0.359597
C4    C     C_2   0.433249 0.042517 0.498421 -0.359593
C5    C     C_3   0.950534 0.232483 0.358815 -0.618714
C6    C     C_3   0.049470 0.767534 0.641166 -0.618680
C7    C     C_R   0.455471 0.206126 0.501397 0.944656
C8    C     C_R   0.469571 0.503204 0.686801 0.871733
C9    C     C_R   0.530429 0.496796 0.313199 0.871729
C10   C     C_1   0.553737 0.496814 0.208347 -0.108639
C11   C     C_1   0.446263 0.503185 0.791653 -0.108644
C12   C     C_2   0.574085 0.499349 0.015738 0.274285
C13   C     C_2   0.425914 0.500648 0.984262 0.274284
C14   C     C_1   0.430855 0.502368 0.880163 0.088118
Cl1   Cl    Cl    0.222886 0.499359 0.066650 -0.543192
Cl2   Cl    Cl    0.777113 0.500638 0.933350 -0.543188
H1    H     H_    0.691985 0.007554 0.508438 0.173895
H2    H     H_    0.163333 0.734992 0.667774 0.274742
H3    H     H_    0.308019 0.992447 0.491554 0.173881
H4    H     H_    0.160218 0.335239 0.400002 0.272437
H5    H     H_    0.034335 0.169136 0.293996 0.215021
H6    H     H_    0.836635 0.265020 0.332252 0.274755
H7    H     H_    0.915020 0.151891 0.419949 0.206230
H8    H     H_    0.839784 0.664762 0.599996 0.272438
H9    H     H_    0.965641 0.830937 0.705955 0.214984
H10   H     H_    0.085048 0.848077 0.580005 0.206266
N1    N     N_2   0.954190 0.457600 0.473930 0.022926
N2    N     N_2   0.045810 0.542400 0.526070 0.022923
N3    N     N_2   0.043390 0.368146 0.392489 -0.205168
N4    N     N_2   0.956613 0.631863 0.607507 -0.205179
O1    O     O_R   0.388300 0.738660 0.506400 -0.619640
O2    O     O_R   0.611700 0.261340 0.493600 -0.619640
O3    O     O_R   0.679920 0.711490 0.489690 -0.648689
O4    O     O_R   0.320080 0.288510 0.510310 -0.648689
O5    O     O_R   0.333200 0.515510 0.649910 -0.600448
O6    O     O_R   0.666800 0.484490 0.350090 -0.600457
O7    O     O_R   0.624820 0.488340 0.633200 -0.619698
O8    O     O_R   0.375180 0.511660 0.366800 -0.619699
Zn1   Zn    Zn3+2 0.305280 0.518140 0.511160 0.979738
Zn2   Zn    Zn3+2 0.694720 0.481860 0.488840 0.979739

loop_
_geom_bond_atom_site_label_1
_geom_bond_atom_site_label_2
_ccdc_geom_bond_type
C9    O6    A    
O5    Zn1   S    
N1    N3    S    
C9    C10   S    
C5    H7    S    
C8    C11   S    
N1    Zn2   S    
C2    C12   S    
N2    N4    S    
C1    O3    A    
C13   C14   S    
C6    H10   S    
C4    C7    S    
C9    O8    A    
C6    N4    S    
O1    Zn1   S    
C3    H1    S    
O7    Zn2   S    
C5    N3    S    
H4    N3    S    
C13   Cl1   S    
O8    Zn1   S    
C6    H2    S    
C11   C14   T    
H8    N4    S    
O3    Zn2   S    
C8    O7    A    
C3    C4    D    
C6    H9    S    
C12   Cl2   S    
C1    O1    A    
O2    Zn2   S    
C5    H5    S    
C12   C13   D    
C7    O4    A    
N1    N2    D    
O6    Zn2   S    
C7    O2    A    
N2    Zn1   S    
C4    H3    S    
C5    H6    S    
O4    Zn1   S    
C1    C3    S    
C8    O5    A    
C2    C10   T    
