data_mof_unit_23834.cif
_audit_creation_date              2012-12-11T15:48:54-0500
_audit_creation_method            fapswitch 2.2
_symmetry_space_group_name_H-M    P1
_symmetry_Int_Tables_number       1
_space_group_crystal_system       triclinic
_cell_length_a                    10.980043
_cell_length_b                    11.057419
_cell_length_c                    18.849527
_cell_angle_alpha                 90.616998
_cell_angle_beta                  89.880822
_cell_angle_gamma                 60.038851
_cell_volume                      1982.51968714

loop_
_atom_site_label
_atom_site_type_symbol
_atom_type_description
_atom_site_fract_x
_atom_site_fract_y
_atom_site_fract_z
_atom_type_partial_charge
C1    C     C_R   0.240617 0.644947 0.610536 0.538922
C2    C     C_R   0.572356 0.151949 0.711419 -0.184765
C3    C     C_R   0.572707 0.152811 0.784359 -0.177819
C4    C     C_R   0.653361 0.621363 0.601354 0.542819
C5    C     C_3   0.937908 0.088474 0.778156 -0.111503
C6    C     C_3   0.919659 0.136575 0.700917 -0.128781
C7    C     C_R   0.667062 0.176731 0.673829 0.018710
C8    C     C_R   0.176744 0.666667 0.834722 0.012800
C9    C     C_R   0.145571 0.579933 0.793130 0.025118
C10   C     C_R   0.157124 0.576814 0.719676 -0.009041
C11   C     C_R   0.215463 0.758306 0.726900 -0.179763
C12   C     C_3   0.779279 0.519681 0.791188 -0.264079
C13   C     C_R   0.211324 0.756116 0.800298 -0.183229
C14   C     C_3   0.209320 0.425351 0.795805 -0.276568
C15   C     C_3   0.218900 0.423057 0.715436 -0.273490
C16   C     C_R   0.628400 0.228957 0.602433 0.536879
C17   C     C_R   0.195804 0.663666 0.684980 0.004383
C18   C     C_R   0.658685 0.680456 0.170577 -0.000433
C19   C     C_R   0.741683 0.553346 0.202898 0.033665
C20   C     C_R   0.741641 0.540675 0.274933 -0.013659
C21   C     C_R   0.581023 0.788537 0.288851 -0.040032
C22   C     C_R   0.581167 0.799663 0.214105 -0.144518
C23   C     C_3   0.697174 0.675123 0.813152 0.064783
C24   C     C_3   0.750329 0.416017 0.189106 -0.138375
C25   C     C_3   0.749614 0.401746 0.269170 -0.224429
C26   C     C_R   0.659646 0.654758 0.319580 0.020038
C27   C     C_R   0.689851 0.068793 0.185685 0.007749
C28   C     C_R   0.219452 0.650392 0.402497 0.541166
C29   C     C_R   0.560412 0.120095 0.218777 0.005355
C30   C     C_R   0.542634 0.165232 0.287412 0.017190
C31   C     C_R   0.788565 0.089400 0.298179 -0.169668
C32   C     C_R   0.806540 0.046958 0.226681 -0.155187
C33   C     C_3   0.417346 0.234149 0.198275 -0.268322
C34   C     C_3   0.670294 0.647648 0.677050 0.059037
C35   C     C_3   0.398326 0.284227 0.274676 -0.257448
C36   C     C_R   0.652892 0.156720 0.327634 0.010753
C37   C     C_R   0.121781 0.684326 0.187606 -0.002671
C38   C     C_R   0.145031 0.780243 0.223075 0.006343
C39   C     C_R   0.153840 0.781856 0.294363 0.004521
C40   C     C_R   0.642830 0.622595 0.392515 0.537000
C41   C     C_R   0.097880 0.596948 0.302609 -0.041265
C42   C     C_R   0.085592 0.599607 0.227876 -0.139332
C43   C     C_3   0.246738 0.828503 0.209274 -0.275317
C44   C     C_3   0.260485 0.828550 0.288902 -0.254792
C45   C     C_3   0.723041 0.752695 0.688754 -0.128961
C46   C     C_R   0.147944 0.680081 0.335024 0.027617
C47   C     C_R   0.703621 0.097118 0.894953 0.551738
C48   C     C_R   0.722036 0.687428 0.888990 0.544547
C49   C     C_R   0.117702 0.705735 0.905898 0.539460
C50   C     C_R   0.702317 0.041054 0.110265 0.559899
C51   C     C_R   0.695899 0.692370 0.098009 0.535430
C52   C     C_R   0.617369 0.228278 0.395412 0.536073
C53   C     C_R   0.087582 0.711997 0.113831 0.537563
C54   C     C_3   0.538355 0.732465 0.795529 -0.120167
C55   C     C_3   0.526850 0.706701 0.715669 -0.214075
C56   C     C_3   0.771050 0.505413 0.711759 -0.231157
C57   C     C_3   0.757942 0.752202 0.768598 -0.196291
C58   C     C_3   0.439746 0.888162 0.814646 -0.400509
C59   C     C_3   0.846925 0.724873 0.640199 -0.415048
C60   C     C_3   0.014506 0.141430 0.825681 -0.418075
C61   C     C_3   0.983305 0.023695 0.643253 -0.400264
C62   C     C_3   0.496541 0.918507 0.333481 -0.386511
C63   C     C_3   0.620367 0.428861 0.152093 -0.402184
C64   C     C_3   0.053784 0.510802 0.345516 -0.385714
C65   C     C_R   0.685144 0.148432 0.822544 0.004629
C66   C     C_R   0.781382 0.170591 0.784798 -0.000943
C67   C     C_R   0.765232 0.196600 0.712442 0.009208
Cr1   Cr    Cr6+3 0.392960 0.397920 0.502240 0.992507
Cr2   Cr    Cr6+3 0.398340 0.708480 0.501250 0.982879
Cr3   Cr    Cr6+3 0.708670 0.393570 0.496460 0.991954
Cr4   Cr    Cr6+3 0.937650 0.938540 0.007610 0.992752
Cr5   Cr    Cr6+3 0.625330 0.937370 0.994520 0.987854
Cr6   Cr    Cr6+3 0.937940 0.625230 0.001190 1.000504
H1    H     H_    0.878454 0.457769 0.688285 0.127152
H2    H     H_    0.327340 0.372240 0.694419 0.178667
H3    H     H_    0.147908 0.392213 0.689038 0.118175
H4    H     H_    0.522487 0.900969 0.189919 0.139744
H5    H     H_    0.653801 0.404973 0.290865 0.152428
H6    H     H_    0.489153 0.630642 0.709562 0.126770
H7    H     H_    0.850755 0.316580 0.289700 0.128311
H8    H     H_    0.877168 0.079198 0.328162 0.124094
H9    H     H_    0.908354 0.007631 0.202121 0.152963
H10   H     H_    0.419489 0.309390 0.160395 0.151105
H11   H     H_    0.317430 0.270993 0.303193 0.137585
H12   H     H_    0.873201 0.698645 0.775971 0.136247
H13   H     H_    0.047744 0.537140 0.201674 0.143183
H14   H     H_    0.195871 0.934907 0.186521 0.141967
H15   H     H_    0.450725 0.805122 0.689301 0.133929
H16   H     H_    0.343471 0.748566 0.181467 0.136947
H17   H     H_    0.365287 0.746547 0.306933 0.174794
H18   H     H_    0.220302 0.934807 0.312020 0.129391
H19   H     H_    0.636231 0.859203 0.675830 0.134792
H20   H     H_    0.735396 0.461435 0.819117 0.118305
H21   H     H_    0.339497 0.932145 0.785584 0.094275
H22   H     H_    0.412175 0.902674 0.871942 0.156941
H23   H     H_    0.491447 0.140050 0.684868 0.128216
H24   H     H_    0.487348 0.951010 0.799633 0.145982
H25   H     H_    0.811729 0.748822 0.584350 0.135999
H26   H     H_    0.888291 0.793500 0.656372 0.127265
H27   H     H_    0.932512 0.614894 0.642665 0.151470
H28   H     H_    0.112915 0.122819 0.799424 0.113817
H29   H     H_    0.948954 0.253811 0.837968 0.135465
H30   H     H_    0.041496 0.084695 0.876589 0.166557
H31   H     H_    0.946639 0.219447 0.691849 0.139011
H32   H     H_    0.929349 0.062972 0.592089 0.157929
H33   H     H_    0.093859 0.995883 0.634116 0.142962
H34   H     H_    0.489022 0.145264 0.810098 0.137156
H35   H     H_    0.975788 0.931545 0.657851 0.138479
H36   H     H_    0.225003 0.831922 0.830353 0.140456
H37   H     H_    0.421460 0.910702 0.369392 0.153509
H38   H     H_    0.568449 0.939783 0.365654 0.148446
H39   H     H_    0.429875 0.008710 0.299726 0.121705
H40   H     H_    0.851466 0.338985 0.163431 0.149431
H41   H     H_    0.522202 0.500758 0.181575 0.124678
H42   H     H_    0.613773 0.467965 0.097437 0.146672
H43   H     H_    0.629686 0.325006 0.148264 0.162969
H44   H     H_    0.346791 0.193091 0.183225 0.131604
H45   H     H_    0.974288 0.976207 0.784137 0.166731
H46   H     H_    0.391657 0.387443 0.281332 0.148483
H47   H     H_    0.141972 0.430292 0.376407 0.151858
H48   H     H_    0.967598 0.580140 0.382577 0.145587
H49   H     H_    0.015463 0.455368 0.310843 0.122841
H50   H     H_    0.718154 0.860626 0.787982 0.124170
H51   H     H_    0.892266 0.472183 0.804719 0.137668
H52   H     H_    0.729437 0.434631 0.701355 0.143539
H53   H     H_    0.241044 0.830983 0.703528 0.136060
H54   H     H_    0.500723 0.671816 0.826265 0.129838
H55   H     H_    0.134597 0.393557 0.816050 0.132226
H56   H     H_    0.312502 0.376000 0.822708 0.140898
O1    O     O_R   0.507380 0.255700 0.581440 -0.535011
O2    O     O_R   0.837170 0.593410 0.915250 -0.530902
O3    O     O_R   0.065200 0.635530 0.931570 -0.497503
O4    O     O_R   0.280320 0.527350 0.578930 -0.502200
O5    O     O_R   0.068260 0.828890 0.091840 -0.530271
O6    O     O_R   0.798870 0.057410 0.079340 -0.512485
O7    O     O_R   0.584930 0.080350 0.076780 -0.522357
O8    O     O_R   0.626960 0.809650 0.067060 -0.525465
O9    O     O_R   0.816040 0.596610 0.076510 -0.516409
O10   O     O_R   0.045610 0.638500 0.081060 -0.511468
O11   O     O_3   0.833640 0.833710 0.001100 -0.271456
O12   O     O_R   0.524480 0.695810 0.424040 -0.516281
O13   O     O_R   0.260510 0.739590 0.584590 -0.539573
O14   O     O_R   0.532300 0.695080 0.573820 -0.515064
O15   O     O_R   0.744840 0.503500 0.576370 -0.529438
O16   O     O_R   0.699120 0.276560 0.571960 -0.510451
O17   O     O_R   0.498940 0.256500 0.419860 -0.522044
O18   O     O_R   0.272500 0.528080 0.429150 -0.510173
O19   O     O_R   0.252060 0.740380 0.423010 -0.527609
O20   O     O_R   0.736390 0.504290 0.414790 -0.523158
O21   O     O_R   0.691300 0.277290 0.422170 -0.513484
O22   O     O_3   0.499990 0.499990 0.499980 -0.246125
O23   O     O_R   0.089400 0.825690 0.930570 -0.535997
O24   O     O_R   0.818460 0.054440 0.929850 -0.495957
O25   O     O_R   0.606060 0.077150 0.915510 -0.533625
O26   O     O_R   0.646550 0.806680 0.917570 -0.510391

loop_
_geom_bond_atom_site_label_1
_geom_bond_atom_site_label_2
_ccdc_geom_bond_type
C15   H2    S    
C21   C26   A    
Cr6   O2    S    
C33   H44   S    
C8    C13   A    
C27   C29   A    
C25   H7    S    
C59   H26   S    
C41   C42   A    
C35   H46   S    
C2    C7    A    
Cr3   O21   S    
C9    C14   S    
C4    O14   A    
C44   H17   S    
C34   C56   S    
Cr3   O20   S    
C12   C23   S    
C45   C57   S    
C43   H16   S    
C30   C35   S    
C6    C61   S    
Cr1   O4    S    
C10   C15   S    
C31   C36   A    
Cr4   O6    S    
C38   C39   A    
C1    O4    A    
Cr5   O7    S    
C20   C25   S    
C10   C17   A    
Cr2   O12   S    
C64   H48   S    
Cr4   O24   S    
C29   C33   S    
C37   C42   A    
C14   H55   S    
C18   C19   A    
C55   H15   S    
C61   H35   S    
C45   H19   S    
C13   H36   S    
C1    O13   A    
C63   H41   S    
C11   C17   A    
C62   H38   S    
Cr4   O23   S    
C8    C9    A    
C62   H37   S    
C32   H9    S    
C41   C46   A    
C48   O2    A    
C42   H13   S    
C6    H31   S    
C60   H30   S    
C61   H32   S    
C9    C10   A    
C36   C52   S    
C27   C50   S    
C63   H42   S    
C15   H3    S    
Cr6   O3    S    
C24   H40   S    
Cr5   O26   S    
C53   O10   A    
C21   C22   A    
C59   H27   S    
C3    C65   A    
C58   H24   S    
Cr4   O5    S    
C60   H29   S    
C18   C51   S    
C49   O3    A    
C4    C34   S    
C28   O19   A    
Cr5   O25   S    
Cr3   O22   S    
C25   H5    S    
Cr2   O22   S    
C11   H53   S    
C56   H1    S    
C24   C25   S    
Cr3   O16   S    
C47   O24   A    
C3    H34   S    
Cr2   O13   S    
C7    C67   A    
C16   O16   A    
C58   H22   S    
C37   C38   A    
C57   H50   S    
C55   H6    S    
C31   C32   A    
C12   H51   S    
Cr5   O11   S    
C28   C46   S    
C34   C45   S    
C56   H52   S    
Cr1   O1    S    
C61   H33   S    
C33   H10   S    
C21   C62   S    
C12   C56   S    
Cr1   O18   S    
C39   C46   A    
C63   H43   S    
C51   O8    A    
Cr1   O17   S    
Cr5   O8    S    
Cr6   O11   S    
C48   O26   A    
C24   C63   S    
C43   C44   S    
C12   H20   S    
C39   C44   S    
C60   H28   S    
C59   H25   S    
C16   O1    A    
C23   C54   S    
C54   C58   S    
C23   C57   S    
C54   C55   S    
C45   C59   S    
C28   O18   A    
C52   O17   A    
C23   C48   S    
C5    C60   S    
C27   C32   A    
C18   C22   A    
Cr3   O15   S    
C7    C16   S    
C53   O5    A    
C22   H4    S    
C5    C66   S    
C31   H8    S    
C4    O15   A    
C35   H11   S    
Cr4   O11   S    
C49   O23   A    
C47   O25   A    
Cr2   O14   S    
Cr6   O10   S    
C54   H54   S    
C1    C17   S    
C64   H47   S    
C30   C36   A    
C5    H45   S    
C50   O6    A    
C43   H14   S    
C19   C20   A    
C2    H23   S    
C19   C24   S    
C58   H21   S    
C37   C53   S    
C38   C43   S    
Cr1   O22   S    
C6    C67   S    
C66   C67   A    
C11   C13   A    
C26   C40   S    
C5    C6    S    
C20   C26   A    
C64   H49   S    
C33   C35   S    
C57   H12   S    
C40   O20   A    
C2    C3    A    
C44   H18   S    
C29   C30   A    
C51   O9    A    
C34   C55   S    
C62   H39   S    
C52   O21   A    
C65   C66   A    
Cr6   O9    S    
Cr2   O19   S    
C14   C15   S    
C50   O7    A    
C41   C64   S    
C40   O12   A    
C8    C49   S    
C47   C65   S    
C14   H56   S    
