data_mof_unit_45289.cif
_audit_creation_date              2012-12-10T20:28:40-0500
_audit_creation_method            fapswitch 2.2
_symmetry_space_group_name_H-M    P1
_symmetry_Int_Tables_number       1
_space_group_crystal_system       triclinic
_cell_length_a                    10.662676
_cell_length_b                    10.632805
_cell_length_c                    9.92501
_cell_angle_alpha                 88.98146
_cell_angle_beta                  89.582962
_cell_angle_gamma                 90.583553
_cell_volume                      1124.97215888

loop_
_atom_site_label
_atom_site_type_symbol
_atom_type_description
_atom_site_fract_x
_atom_site_fract_y
_atom_site_fract_z
_atom_type_partial_charge
C1    C     C_R   0.499508 0.260212 0.500475 0.851827
C2    C     C_R   0.063351 0.394696 0.578671 0.105615
C3    C     C_R   0.127699 0.487933 0.501273 -0.101752
C4    C     C_R   0.065103 0.575048 0.420773 -0.210991
C5    C     C_R   0.936904 0.574490 0.419763 -0.216106
C6    C     C_R   0.871232 0.486957 0.499489 -0.094697
C7    C     C_R   0.579976 0.066273 0.414946 0.130814
C8    C     C_R   0.495491 0.127729 0.497819 -0.113624
C9    C     C_R   0.394558 0.061415 0.556671 -0.223120
C10   C     C_R   0.395469 0.931320 0.557568 -0.207703
C11   C     C_R   0.494026 0.870738 0.493145 -0.076439
C12   C     C_R   0.260429 0.496503 0.500529 0.856382
C13   C     C_R   0.578850 0.937581 0.412054 0.086107
C14   C     C_3   0.718559 0.929029 0.406756 -0.564266
C15   C     C_3   0.720257 0.072133 0.411974 -0.106157
C16   C     C_R   0.444554 0.404227 0.074233 0.182046
C17   C     C_R   0.549967 0.597469 0.069973 -0.182203
C18   C     C_R   0.552104 0.596986 0.926293 0.161074
C19   C     C_R   0.442037 0.404692 0.931790 0.119314
C20   C     C_3   0.478135 0.268011 0.933893 -0.138241
C21   C     C_3   0.482824 0.270825 0.086118 -0.467360
C22   C     C_R   0.500350 0.739298 0.498608 0.882333
C23   C     C_R   0.739235 0.496328 0.499746 0.866576
C24   C     C_R   0.126316 0.300252 0.652742 -0.193994
C25   C     C_R   0.059834 0.208398 0.726289 -0.148409
C26   C     C_R   0.929556 0.208416 0.726602 -0.146773
C27   C     C_R   0.865640 0.299882 0.652852 -0.197772
C28   C     C_R   0.931924 0.394308 0.578156 0.106584
H1    H     H_    0.115817 0.645419 0.360903 0.156442
H2    H     H_    0.761758 0.110076 0.505156 0.164791
H3    H     H_    0.592941 0.674833 0.122672 0.147471
H4    H     H_    0.570013 0.249158 0.884663 0.180479
H5    H     H_    0.410647 0.211529 0.138941 0.209060
H6    H     H_    0.109492 0.136224 0.781895 0.131092
H7    H     H_    0.877771 0.136339 0.782522 0.130307
H8    H     H_    0.764519 0.293208 0.652791 0.148642
H9    H     H_    0.888576 0.644671 0.359458 0.149928
H10   H     H_    0.321744 0.878554 0.609671 0.151170
H11   H     H_    0.757910 0.883214 0.498548 0.192660
N1    N     N_R   0.499160 0.499140 0.142800 -0.109233
N2    N     N_R   0.499160 0.499180 0.857150 -0.113308
O1    O     O_R   0.500020 0.316790 0.614690 -0.647324
O2    O     O_R   0.500000 0.316760 0.385350 -0.605941
O3    O     O_R   0.316770 0.500020 0.614690 -0.621266
O4    O     O_R   0.316760 0.499980 0.385350 -0.609661
O5    O     O_R   0.500000 0.683240 0.614650 -0.590864
O6    O     O_R   0.499980 0.683210 0.385310 -0.623868
O7    O     O_R   0.683240 0.500020 0.614650 -0.612221
O8    O     O_R   0.683230 0.499980 0.385310 -0.607715
Zn1   Zn    Zn3+2 0.500010 0.500020 0.653130 0.949853
Zn2   Zn    Zn3+2 0.499990 0.499980 0.346870 0.953215
H12   H     H_    0.752258 0.889818 0.310054 0.197375
N3    N     N_3   0.768755 0.133724 0.288949 -0.440776
H13   H     H_    0.730277 0.091569 0.203934 0.192165
H14   H     H_    0.865526 0.119176 0.285272 0.199528
N4    N     N_3   0.614719 0.696777 0.853927 -0.389886
H15   H     H_    0.572796 0.781364 0.880513 0.171088
H16   H     H_    0.707969 0.699866 0.885647 0.159512
N5    N     N_3   0.377464 0.185126 0.888621 -0.442389
H17   H     H_    0.291939 0.211091 0.931978 0.189076
H18   H     H_    0.368872 0.201006 0.785941 0.206738
H19   H     H_    0.579388 0.260771 0.125998 0.204856
H20   H     H_    0.226874 0.295412 0.652491 0.136538
H21   H     H_    0.316591 0.108568 0.602140 0.133400

loop_
_geom_bond_atom_site_label_1
_geom_bond_atom_site_label_2
_ccdc_geom_bond_type
C7    C13   A    
C2    C28   A    
C24   C25   A    
C16   C21   S    
C23   O7    A    
C5    H9    S    
C27   H8    S    
C9    H21   S    
C9    C10   A    
N2    Zn1   S    
C11   C22   S    
C19   C20   S    
C18   N4    S    
C25   H6    S    
C10   H10   S    
C7    C15   S    
C2    C3    A    
C21   H19   S    
N5    H17   S    
C12   O3    A    
N3    H13   S    
N4    H15   S    
C20   N5    S    
C4    C5    A    
C11   C13   A    
O2    Zn2   S    
C26   C27   A    
C16   N1    A    
C16   C19   A    
C6    C23   S    
C15   N3    S    
O7    Zn1   S    
C22   O5    A    
O1    Zn1   S    
C26   H7    S    
C22   O6    A    
C24   H20   S    
N3    H14   S    
C2    C24   A    
C5    C6    A    
C17   H3    S    
C14   H12   S    
C23   O8    A    
N5    H18   S    
C10   C11   A    
O4    Zn2   S    
C3    C4    A    
N1    Zn2   S    
C1    O1    A    
C7    C8    A    
C21   H5    S    
C20   C21   S    
C15   H2    S    
C17   C18   A    
C20   H4    S    
C18   N2    A    
O3    Zn1   S    
C27   C28   A    
O5    Zn1   S    
C14   C15   S    
C8    C9    A    
O6    Zn2   S    
C3    C12   S    
C25   C26   A    
C13   C14   S    
N4    H16   S    
C1    O2    A    
C6    C28   A    
C4    H1    S    
C19   N2    A    
C1    C8    S    
C14   H11   S    
C12   O4    A    
O8    Zn2   S    
C17   N1    A    
