data_mof_unit_42952.cif
_audit_creation_date              2012-12-11T15:34:54-0500
_audit_creation_method            fapswitch 2.2
_symmetry_space_group_name_H-M    P1
_symmetry_Int_Tables_number       1
_space_group_crystal_system       triclinic
_cell_length_a                    30.533207
_cell_length_b                    7.264479
_cell_length_c                    25.896587
_cell_angle_alpha                 90.052097
_cell_angle_beta                  112.150752
_cell_angle_gamma                 89.933042
_cell_volume                      5320.12101269

loop_
_atom_site_label
_atom_site_type_symbol
_atom_type_description
_atom_site_fract_x
_atom_site_fract_y
_atom_site_fract_z
_atom_type_partial_charge
O1    O     O_R   0.295360 0.592990 0.320420 -0.539397
O2    O     O_R   0.704640 0.407010 0.679580 -0.536854
O3    O     O_R   0.204640 0.092990 0.179580 -0.540052
O4    O     O_R   0.795360 0.907010 0.820420 -0.536974
O5    O     O_R   0.294060 0.265620 0.213230 -0.531475
O6    O     O_R   0.705940 0.734380 0.786770 -0.526982
O7    O     O_R   0.205940 0.765620 0.286770 -0.530455
O8    O     O_R   0.794060 0.234380 0.713230 -0.526786
C1    C     C_R   0.305363 0.432402 0.200890 0.717725
C2    C     C_R   0.695309 0.567605 0.799806 0.721871
C3    C     C_R   0.194594 0.932625 0.298981 0.712472
C4    C     C_R   0.804679 0.067387 0.700178 0.721361
O9    O     O_R   0.300850 0.263360 0.322080 -0.528626
O10   O     O_R   0.699150 0.736640 0.677920 -0.534438
O11   O     O_R   0.199150 0.763360 0.177920 -0.524399
O12   O     O_R   0.800850 0.236640 0.822080 -0.534489
O13   O     O_R   0.211480 0.091820 0.289210 -0.539199
O14   O     O_R   0.788520 0.908180 0.710790 -0.532717
O15   O     O_R   0.288520 0.591820 0.210790 -0.532782
O16   O     O_R   0.711480 0.408180 0.789210 -0.532720
C5    C     C_R   0.313298 0.431315 0.343371 0.696735
C6    C     C_R   0.687069 0.568702 0.656537 0.704726
C7    C     C_R   0.186727 0.931330 0.156631 0.699610
C8    C     C_R   0.812951 0.068685 0.843445 0.703909
O17   O     O_3   0.220670 0.426670 0.239090 -0.372764
O18   O     O_3   0.779330 0.573330 0.760910 -0.370656
O19   O     O_3   0.279330 0.926670 0.260910 -0.371410
O20   O     O_3   0.720670 0.073330 0.739090 -0.370834
V1    V     V_3+5 0.255440 0.152290 0.252020 1.452365
V2    V     V_3+5 0.744560 0.847710 0.747980 1.471345
V3    V     V_3+5 0.244560 0.652290 0.247980 1.471455
V4    V     V_3+5 0.755440 0.347710 0.752020 1.471130
C9    C     C_R   0.848879 0.064050 0.900849 -0.074047
C10   C     C_R   0.150206 0.935254 0.099346 -0.073486
C11   C     C_R   0.651153 0.564116 0.599123 -0.074270
C12   C     C_R   0.349866 0.435150 0.400655 -0.074447
C13   C     C_R   0.872610 0.121986 0.999726 -0.132836
C14   C     C_R   0.124967 0.867749 0.000814 -0.136532
C15   C     C_R   0.627398 0.622145 0.500263 -0.133115
C16   C     C_R   0.375254 0.366993 0.499148 -0.137401
C17   C     C_R   0.836752 0.107613 0.946708 0.113060
C18   C     C_R   0.161134 0.879337 0.053531 0.117727
C19   C     C_R   0.663266 0.607587 0.553274 0.112758
C20   C     C_R   0.339072 0.378199 0.446444 0.118916
C21   C     C_R   0.896244 0.028148 0.909286 -0.232634
C22   C     C_R   0.103213 0.980756 0.091038 -0.202466
C23   C     C_R   0.603797 0.528517 0.590678 -0.233080
C24   C     C_R   0.396803 0.481429 0.408981 -0.215693
C25   C     C_R   0.932992 0.036335 0.963241 0.085721
C26   C     C_R   0.065734 0.966604 0.037567 0.085856
C27   C     C_R   0.567050 0.536727 0.536727 0.085363
C28   C     C_R   0.434337 0.466982 0.462418 0.085957
C29   C     C_R   0.920731 0.094474 0.008500 0.032333
C30   C     C_R   0.077305 0.901675 0.992396 0.031407
C31   C     C_R   0.579282 0.594817 0.491485 0.033011
C32   C     C_R   0.422856 0.401559 0.507564 0.031721
C33   C     C_R   0.981377 0.990643 0.973301 0.048313
C34   C     C_R   0.017262 0.011877 0.027722 0.049727
C35   C     C_R   0.518693 0.491036 0.526662 0.048692
C36   C     C_R   0.482780 0.512378 0.472261 0.049678
C37   C     C_R   0.003648 0.079480 0.070505 -0.195449
C38   C     C_R   0.994522 0.918006 0.930784 -0.208410
C39   C     C_R   0.496354 0.579992 0.429493 -0.203565
C40   C     C_R   0.505622 0.418149 0.569152 -0.208957
C41   C     C_R   0.956680 0.121012 0.061789 -0.030175
C42   C     C_R   0.041127 0.872558 0.939485 -0.026841
C43   C     C_R   0.543311 0.621443 0.438212 -0.028644
C44   C     C_R   0.459065 0.372426 0.560448 -0.027313
H1    H     H_    0.097141 0.020277 0.127854 0.124565
H2    H     H_    0.903219 0.001017 0.872232 0.142914
H3    H     H_    0.402801 0.521726 0.372204 0.125042
H4    H     H_    0.596823 0.501661 0.627728 0.143527
H5    H     H_    0.862036 0.152702 0.034203 0.158332
H6    H     H_    0.134924 0.831042 0.966273 0.158725
H7    H     H_    0.637958 0.652822 0.465794 0.158647
H8    H     H_    0.365361 0.329771 0.533673 0.158773
H9    H     H_    0.029262 0.106158 0.111675 0.154676
H10   H     H_    0.968592 0.886299 0.890173 0.161764
H11   H     H_    0.470723 0.606585 0.388328 0.153407
H12   H     H_    0.531583 0.386311 0.609732 0.161634
C45   C     C_R   0.089793 0.022951 0.476371 0.552906
C46   C     C_R   0.904414 0.056134 0.515727 0.559986
C47   C     C_R   0.410147 0.532583 0.023673 0.550910
C48   C     C_R   0.595534 0.554252 0.984134 0.560320
N1    N     N_R   0.069751 0.009146 0.419261 -0.549202
N2    N     N_R   0.924566 0.069430 0.572829 -0.547675
N3    N     N_R   0.430185 0.513724 0.080641 -0.548522
N4    N     N_R   0.575405 0.571044 0.927126 -0.547695
C49   C     C_R   0.021792 0.028919 0.391606 0.552016
C50   C     C_R   0.972437 0.094672 0.599398 0.548590
C51   C     C_R   0.478241 0.528949 0.108352 0.555304
C52   C     C_R   0.527658 0.600259 0.900759 0.546877
C53   C     C_R   0.991737 0.041558 0.421496 -0.029373
C54   C     C_R   0.002438 0.083747 0.569444 -0.027930
C55   C     C_R   0.508302 0.541516 0.078480 -0.030457
C56   C     C_R   0.497661 0.590751 0.930743 -0.027438
C57   C     C_R   0.011813 0.051762 0.480072 -0.017914
C58   C     C_R   0.982344 0.064488 0.511078 -0.016608
C59   C     C_R   0.488225 0.556004 0.019990 -0.017999
C60   C     C_R   0.517705 0.567850 0.988984 -0.015924
C61   C     C_R   0.061300 0.048702 0.507746 -0.031525
C62   C     C_R   0.932853 0.057201 0.483668 -0.032479
C63   C     C_R   0.438723 0.557910 0.992396 -0.032050
C64   C     C_R   0.567153 0.555871 0.016262 -0.032419
C65   C     C_R   0.942234 0.042375 0.394363 -0.141563
C66   C     C_R   0.051925 0.088544 0.596454 -0.142953
C67   C     C_R   0.557803 0.537636 0.105527 -0.141580
C68   C     C_R   0.448207 0.600512 0.903867 -0.143305
C69   C     C_R   0.913144 0.047337 0.425118 -0.139461
C70   C     C_R   0.081010 0.068476 0.566059 -0.138516
C71   C     C_R   0.586861 0.542075 0.074734 -0.139623
C72   C     C_R   0.419070 0.581690 0.934227 -0.138543
O21   O     O_2   0.137110 0.009183 0.502849 -0.524369
O22   O     O_2   0.857123 0.038391 0.490083 -0.524724
O23   O     O_2   0.362750 0.523927 0.997221 -0.524768
O24   O     O_2   0.642737 0.532590 0.009597 -0.524764
O25   O     O_2   0.003217 0.036501 0.335406 -0.524919
O26   O     O_2   0.991000 0.128895 0.654686 -0.522548
O27   O     O_2   0.496910 0.531576 0.164594 -0.523449
O28   O     O_2   0.509206 0.636989 0.845627 -0.522777
H13   H     H_    0.925800 0.034653 0.349344 0.172629
H14   H     H_    0.068359 0.103139 0.641314 0.173422
H15   H     H_    0.574236 0.526584 0.150479 0.172694
H16   H     H_    0.431810 0.618101 0.859109 0.173524
H17   H     H_    0.875184 0.043216 0.402855 0.172922
H18   H     H_    0.118974 0.068445 0.588426 0.173165
H19   H     H_    0.624795 0.534303 0.096904 0.172925
H20   H     H_    0.381109 0.585503 0.911935 0.173212
C73   C     C_R   0.897915 0.909395 0.641864 0.091743
C74   C     C_R   0.097678 0.817868 0.356489 0.095531
C75   C     C_R   0.601611 0.411939 0.857489 0.091909
C76   C     C_R   0.401193 0.317246 0.141216 0.095482
C77   C     C_R   0.868905 0.911075 0.674233 -0.076897
C78   C     C_R   0.126654 0.804451 0.324178 -0.065875
C79   C     C_R   0.630734 0.412939 0.825262 -0.077068
C80   C     C_R   0.372029 0.301346 0.173286 -0.068597
C81   C     C_R   0.836961 0.059402 0.668919 -0.139547
C82   C     C_R   0.160446 0.944108 0.327986 -0.149306
C83   C     C_R   0.662974 0.560201 0.830990 -0.138877
C84   C     C_R   0.339413 0.443877 0.171652 -0.150445
C85   C     C_R   0.834051 0.201160 0.631103 -0.165107
C86   C     C_R   0.162261 0.099515 0.360781 -0.206307
C87   C     C_R   0.666129 0.701348 0.869153 -0.164874
C88   C     C_R   0.338583 0.602834 0.140685 -0.167487
H21   H     H_    0.809067 0.312922 0.624979 0.155561
H22   H     H_    0.187269 0.208770 0.364438 0.175412
H23   H     H_    0.691316 0.812319 0.875547 0.153614
H24   H     H_    0.314176 0.713559 0.138183 0.178889
C89   C     C_R   0.862174 0.199821 0.599601 -0.118420
C90   C     C_R   0.132316 0.118237 0.389590 -0.095527
C91   C     C_R   0.638041 0.700164 0.900711 -0.118881
C92   C     C_R   0.368514 0.622961 0.111932 -0.098319
H25   H     H_    0.858197 0.309027 0.569927 0.137293
H26   H     H_    0.134913 0.240569 0.414274 0.144523
H27   H     H_    0.642270 0.808534 0.930766 0.136379
H28   H     H_    0.366658 0.748042 0.088737 0.145612
C93   C     C_R   0.894892 0.059028 0.605199 0.361844
C94   C     C_R   0.099897 0.980744 0.388052 0.361539
C95   C     C_R   0.605010 0.560542 0.894668 0.361834
C96   C     C_R   0.399996 0.483697 0.111687 0.358618
C97   C     C_2   0.947495 0.199626 0.109794 0.772235
O29   O     O_2   0.921642 0.333464 0.103399 -0.552410
O30   O     O_R   0.970598 0.125725 0.163079 -0.641072
H29   H     H_    0.962323 0.192473 0.192600 0.325186
C98   C     C_2   0.049546 0.785878 0.891970 0.769315
O31   O     O_2   0.074395 0.648631 0.899271 -0.554270
O32   O     O_R   0.026686 0.856022 0.838145 -0.642547
H30   H     H_    0.034219 0.783594 0.809028 0.313646
C99   C     C_2   0.552464 0.700012 0.390230 0.767603
O33   O     O_2   0.578285 0.833761 0.396670 -0.553175
O34   O     O_R   0.529374 0.626161 0.336920 -0.641036
H31   H     H_    0.537633 0.692854 0.307422 0.325572
C100  C     C_2   0.450745 0.285397 0.607928 0.769050
O35   O     O_2   0.426083 0.147789 0.600580 -0.554557
O36   O     O_R   0.473498 0.355644 0.661775 -0.642809
H32   H     H_    0.466058 0.282958 0.690867 0.313168
C101  C     C_3   0.210788 0.828129 0.058931 -0.374848
C102  C     C_3   0.215348 0.619967 0.053843 -0.698346
H33   H     H_    0.211381 0.549058 0.089815 0.224602
H34   H     H_    0.188105 0.567561 0.014569 0.242336
H35   H     H_    0.250547 0.586329 0.053145 0.219018
H36   H     H_    0.219107 0.897959 0.025548 0.190229
H37   H     H_    0.237779 0.875196 0.099072 0.167189
C103  C     C_3   0.785957 0.140019 0.940613 -0.375767
C104  C     C_3   0.775566 0.345177 0.941945 -0.684531
H38   H     H_    0.798511 0.406450 0.982416 0.236891
H39   H     H_    0.781692 0.417908 0.907566 0.220457
H40   H     H_    0.738040 0.364750 0.936691 0.222108
H41   H     H_    0.760500 0.080420 0.901257 0.170615
H42   H     H_    0.779272 0.069391 0.974998 0.187673
C105  C     C_3   0.289574 0.325141 0.441058 -0.374758
C106  C     C_3   0.285641 0.116732 0.446235 -0.697946
H43   H     H_    0.289472 0.046275 0.410079 0.224619
H44   H     H_    0.313253 0.064965 0.485324 0.241799
H45   H     H_    0.250702 0.081665 0.447403 0.220797
H46   H     H_    0.281065 0.394452 0.474426 0.190047
H47   H     H_    0.262461 0.371426 0.400909 0.166841
C107  C     C_3   0.714055 0.639711 0.559376 -0.375645
C108  C     C_3   0.724418 0.844805 0.558099 -0.684464
H48   H     H_    0.701464 0.906123 0.517646 0.236780
H49   H     H_    0.718284 0.917648 0.592499 0.220531
H50   H     H_    0.761941 0.864167 0.563356 0.221956
H51   H     H_    0.739520 0.580055 0.598717 0.170961
H52   H     H_    0.720748 0.568965 0.524971 0.187707
C109  C     C_3   0.931422 0.749127 0.645568 -0.316549
C110  C     C_3   0.915162 0.637026 0.591722 -0.702087
H53   H     H_    0.876297 0.616504 0.575758 0.232359
H54   H     H_    0.924536 0.707217 0.559351 0.224098
H55   H     H_    0.933065 0.500909 0.599704 0.227909
H56   H     H_    0.967929 0.798336 0.655262 0.209597
H57   H     H_    0.934818 0.653968 0.680205 0.206305
C111  C     C_3   0.065290 0.659844 0.358275 -0.325904
C112  C     C_3   0.081878 0.569998 0.415841 -0.709103
H58   H     H_    0.120686 0.547013 0.432238 0.234738
H59   H     H_    0.072976 0.657019 0.445657 0.230558
H60   H     H_    0.063799 0.435584 0.412933 0.216136
H61   H     H_    0.028372 0.707526 0.346434 0.215938
H62   H     H_    0.063188 0.550434 0.327709 0.206463
C113  C     C_3   0.567684 0.253114 0.853224 -0.315460
C114  C     C_3   0.584293 0.137132 0.906264 -0.699807
H63   H     H_    0.623034 0.114183 0.921187 0.232369
H64   H     H_    0.575901 0.205926 0.939612 0.223828
H65   H     H_    0.565876 0.002198 0.897725 0.229907
H66   H     H_    0.531458 0.304011 0.844615 0.208688
H67   H     H_    0.563455 0.160618 0.817688 0.206137
C115  C     C_3   0.432869 0.158600 0.137648 -0.327474
C116  C     C_3   0.415622 0.074308 0.079267 -0.710664
H68   H     H_    0.376821 0.051500 0.063245 0.235387
H69   H     H_    0.424113 0.164713 0.049916 0.231774
H70   H     H_    0.433629 0.940391 0.080681 0.214448
H71   H     H_    0.469918 0.204396 0.149561 0.214808
H72   H     H_    0.434931 0.046555 0.167353 0.207608
C117  C     C_2   0.872703 0.761932 0.714702 0.779266
O37   O     O_2   0.861644 0.604468 0.698276 -0.562316
O38   O     O_R   0.887733 0.803356 0.771477 -0.665892
H73   H     H_    0.888318 0.691157 0.794983 0.293069
C118  C     C_2   0.119454 0.652884 0.283579 0.773736
O39   O     O_2   0.103773 0.686880 0.233651 -0.551189
O40   O     O_R   0.131633 0.472900 0.302316 -0.674369
H74   H     H_    0.125410 0.382341 0.270522 0.300650
C119  C     C_2   0.626862 0.263856 0.784671 0.779606
O41   O     O_2   0.637214 0.105771 0.800907 -0.561352
O42   O     O_R   0.612515 0.305895 0.728016 -0.666350
H75   H     H_    0.611780 0.193612 0.704426 0.292877
C120  C     C_2   0.377567 0.143120 0.211175 0.775084
O43   O     O_2   0.366295 0.988747 0.192156 -0.576247
O44   O     O_R   0.394303 0.172656 0.268732 -0.654001
H76   H     H_    0.395816 0.055018 0.290380 0.298506

loop_
_geom_bond_atom_site_label_1
_geom_bond_atom_site_label_2
_ccdc_geom_bond_type
O17   V3    S    
C59   C63   A    
O34   H31   S    
C92   C96   A    
O1    C5    A    
C98   O31   D    
N3    C51   A    
O19   V1    S    
C9    C21   A    
C99   O33   D    
C86   H22   S    
O3    C7    A    
O40   H74   S    
C10   C18   A    
C67   H15   S    
C86   C90   A    
C88   H24   S    
C11   C23   A    
C73   C93   A    
C97   O29   D    
C104  H38   S    
C25   C33   A    
C33   C38   A    
C5    C12   S    
C45   C61   A    
C109  C110  S    
C43   C99   S    
C77   C81   A    
C6    C11   S    
C105  H47   S    
C30   C42   A    
C26   C30   A    
C47   C63   A    
C36   C39   A    
C4    C81   S    
C50   O26   S    
O2    V4    S    
O9    V1    S    
C3    C82   S    
O10   V2    S    
C14   C18   A    
C75   C79   A    
C20   C105  S    
C14   H6    S    
O4    C8    A    
C1    C84   S    
C55   C59   A    
C102  H34   S    
C104  H39   S    
C111  H61   S    
C54   C58   A    
C18   C101  S    
O42   H75   S    
O1    V3    S    
O13   V1    S    
N3    C96   S    
C75   C113  S    
C119  O41   D    
C57   C61   A    
N4    C95   S    
C66   C70   A    
O3    V1    S    
C89   H25   S    
C105  H46   S    
C22   H1    S    
C81   C85   A    
C28   C36   A    
C53   C65   A    
C113  H66   S    
C74   C111  S    
C80   C84   A    
C1    O15   A    
C60   C64   A    
C15   C31   A    
C92   H28   S    
C37   H9    S    
C16   C32   A    
O2    C6    A    
C108  H50   S    
O38   H73   S    
C17   C103  S    
C50   C54   A    
C107  C108  S    
C10   C22   A    
C15   H7    S    
C110  H53   S    
C11   C19   A    
C117  O37   D    
C16   C20   A    
C27   C31   A    
C85   H21   S    
C13   C29   A    
C34   C37   A    
O11   C7    A    
C78   C82   A    
C56   C68   A    
O15   V3    S    
C108  H48   S    
O12   C8    A    
C100  O35   D    
C118  O39   D    
C13   C17   A    
C40   H12   S    
C25   C29   A    
C98   O32   S    
C74   C78   A    
C83   C87   A    
C68   H16   S    
C114  H64   S    
C114  H63   S    
C97   O30   S    
C57   C58   A    
O5    V1    S    
C100  O36   S    
C52   C56   A    
C39   C43   A    
O7    V3    S    
C38   C42   A    
O9    C5    A    
C105  C106  S    
C26   C34   A    
C106  H45   S    
C47   O23   S    
C101  H37   S    
C46   O22   S    
C82   C86   A    
C2    O16   A    
C113  C114  S    
N1    C49   A    
O18   V4    S    
C104  H40   S    
C23   C27   A    
C61   C70   A    
C32   C44   A    
C90   H26   S    
C68   C72   A    
C63   C72   A    
C119  O42   S    
O8    V4    S    
C87   H23   S    
C35   C36   A    
O5    C1    A    
C102  H35   S    
C76   C115  S    
C73   C109  S    
C53   C57   A    
O7    C3    A    
C116  H68   S    
C14   C30   A    
C21   C25   A    
O8    C4    A    
C7    C10   S    
N4    C52   A    
C66   H14   S    
C4    O14   A    
C46   C62   A    
C65   H13   S    
C76   C96   A    
C113  H67   S    
C75   C95   A    
C117  O38   S    
C55   C67   A    
C70   H18   S    
C73   C77   A    
C69   H17   S    
O6    V2    S    
C49   O25   S    
C101  C102  S    
C91   H27   S    
C120  O44   S    
C107  H52   S    
O14   V2    S    
C48   C64   A    
C78   C118  S    
C51   O27   S    
C12   C20   A    
C27   C35   A    
N1    C94   S    
C24   H3    S    
C41   C97   S    
C115  H72   S    
C40   C44   A    
O32   H30   S    
C29   C41   A    
C101  H36   S    
O16   V4    S    
C112  H60   S    
C76   C80   A    
C65   C69   A    
C3    O13   A    
C87   C91   A    
C90   C94   A    
C42   C98   S    
C116  H69   S    
C21   H2    S    
C77   C117  S    
C67   C71   A    
C38   H10   S    
C48   N4    A    
C47   N3    A    
O6    C2    A    
C64   C71   A    
C15   C19   A    
O44   H76   S    
O11   V3    S    
C39   H11   S    
O12   V4    S    
C22   C26   A    
C71   H19   S    
C13   H5    S    
C8    C9    S    
C59   C60   A    
C74   C94   A    
C79   C83   A    
C9    C17   A    
C106  H43   S    
C79   C119  S    
C118  O40   S    
C52   O28   S    
C112  H59   S    
C31   C43   A    
C88   C92   A    
O36   H32   S    
C58   C62   A    
C46   N2    A    
C110  H55   S    
O10   C6    A    
C33   C34   A    
C85   C89   A    
C111  H62   S    
C109  H56   S    
C112  H58   S    
C56   C60   A    
O20   V2    S    
N2    C50   A    
C35   C40   A    
C80   C120  S    
C12   C24   A    
C19   C107  S    
C103  H42   S    
C37   C41   A    
C49   C53   A    
N2    C93   S    
C45   N1    A    
C23   H4    S    
C72   H20   S    
O30   H29   S    
C54   C66   A    
C51   C55   A    
C28   C32   A    
C24   C28   A    
C116  H70   S    
C111  C112  S    
C48   O24   S    
C115  C116  S    
C2    C83   S    
C16   H8    S    
C45   O21   S    
C107  H51   S    
C108  H49   S    
C109  H57   S    
C103  H41   S    
C62   C69   A    
C103  C104  S    
C84   C88   A    
C120  O43   D    
C110  H54   S    
C89   C93   A    
C114  H65   S    
O4    V2    S    
C44   C100  S    
C115  H71   S    
C91   C95   A    
C102  H33   S    
C99   O34   S    
C106  H44   S    
