data_mof_unit_57246.cif
_audit_creation_date              2013-03-05T15:56:55-0500
_audit_creation_method            fapswitch 2.2
_symmetry_space_group_name_H-M    P1
_symmetry_Int_Tables_number       1
_space_group_crystal_system       triclinic
_cell_length_a                    6.939314
_cell_length_b                    14.54018
_cell_length_c                    16.079307
_cell_angle_alpha                 90.023939
_cell_angle_beta                  89.769856
_cell_angle_gamma                 89.86988
_cell_volume                      1622.36656154

loop_
_atom_site_label
_atom_site_type_symbol
_atom_site_description
_atom_site_fract_x
_atom_site_fract_y
_atom_site_fract_z
_atom_type_partial_charge
O1    O     O_R   0.505680 0.583900 0.413320 -0.609054
O2    O     O_R   0.176010 0.594950 0.586080 -0.566061
O3    O     O_R   0.005680 0.416100 0.586680 -0.604971
C1    C     C_R   0.344249 0.617992 0.614453 0.943875
O4    O     O_R   0.175960 0.594930 0.413930 -0.566784
O5    O     O_R   0.005640 0.416080 0.413300 -0.538207
C2    C     C_R   0.345167 0.617499 0.385281 1.000582
O6    O     O_R   0.505720 0.583920 0.586700 -0.579132
O7    O     O_3   0.339190 0.441320 0.500000 -0.264707
V1    V     V_3+5 0.064350 0.510890 0.500000 1.269116
O8    O     O_R   0.675920 0.405050 0.413920 -0.593457
C3    C     C_R   0.845056 0.385398 0.383051 1.039540
O9    O     O_R   0.675960 0.405070 0.586070 -0.612432
C4    C     C_R   0.844681 0.383000 0.614864 0.929024
V2    V     V_3+5 0.564340 0.489110 0.500000 1.216335
O10   O     O_3   0.839370 0.558680 0.500000 -0.248638
C5    C     C_R   0.006211 0.317798 0.741812 0.170279
C6    C     C_R   0.852539 0.317543 0.685507 -0.223408
C7    C     C_R   0.701636 0.255072 0.700712 -0.145287
H1    H     H_    0.579781 0.252375 0.659192 0.143229
C8    C     C_R   0.712983 0.190875 0.766178 -0.135189
H2    H     H_    0.598883 0.140939 0.773293 0.136050
C9    C     C_R   0.875891 0.186972 0.818236 -0.223911
C10   C     C_R   0.017882 0.254021 0.806362 0.177238
C11   C     C_3   0.229691 0.242554 0.794887 -0.468971
C12   C     C_3   0.217112 0.312450 0.724906 -0.461288
H3    H     H_    0.267744 0.172273 0.773077 0.192617
H4    H     H_    0.312451 0.267631 0.849389 0.202435
H5    H     H_    0.248753 0.282990 0.662520 0.199138
H6    H     H_    0.291774 0.378141 0.739105 0.187785
C13   C     C_R   0.006102 0.256999 0.186652 -0.256371
H7    H     H_    0.112347 0.262780 0.137411 0.188471
C14   C     C_R   0.994635 0.325963 0.247681 0.605761
C15   C     C_R   0.856225 0.318662 0.312684 -0.382446
C16   C     C_R   0.726226 0.244724 0.311123 -0.241598
H8    H     H_    0.620099 0.238056 0.360374 0.191706
C17   C     C_R   0.736080 0.176466 0.249238 0.409966
C18   C     C_R   0.878023 0.182576 0.185866 -0.353979
C19   C     C_R   0.209460 0.755652 0.694147 0.385844
C20   C     C_R   0.223672 0.818549 0.760102 -0.229517
H9    H     H_    0.112840 0.870630 0.767284 0.154445
C21   C     C_R   0.379611 0.815916 0.815451 -0.175546
C22   C     C_R   0.523342 0.749126 0.803541 -0.113789
H10   H     H_    0.645247 0.745329 0.845263 0.130827
C23   C     C_R   0.508981 0.685009 0.738795 -0.069282
H11   H     H_    0.619940 0.632913 0.732780 0.154380
C24   C     C_R   0.352784 0.686967 0.683130 -0.303982
C25   C     C_R   0.188675 0.726568 0.284185 -0.024163
H12   H     H_    0.048282 0.709535 0.309366 0.131231
C26   C     C_R   0.199692 0.790026 0.218876 -0.115397
H13   H     H_    0.067264 0.820068 0.195925 0.133993
C27   C     C_R   0.378822 0.814524 0.183966 -0.136369
C28   C     C_R   0.546630 0.773777 0.216242 -0.059916
H14   H     H_    0.687037 0.790913 0.191132 0.126548
C29   C     C_R   0.535577 0.710196 0.281470 -0.119150
H15   H     H_    0.667974 0.680084 0.304388 0.138911
C30   C     C_R   0.356439 0.685745 0.316398 -0.143152
O11   O     O_R   0.229200 0.915950 0.913350 -0.600646
O12   O     O_R   0.559090 0.905000 0.086080 -0.585068
O13   O     O_R   0.729280 0.083880 0.086680 -0.570343
C31   C     C_R   0.389978 0.882762 0.115048 0.994026
O14   O     O_R   0.558920 0.904980 0.913920 -0.603392
O15   O     O_R   0.729110 0.083860 0.913300 -0.601604
C32   C     C_R   0.390357 0.883084 0.884894 0.936280
O16   O     O_R   0.229360 0.915970 0.086730 -0.599808
O17   O     O_3   0.395680 0.058580 0.000030 -0.269639
V3    V     V_3+5 0.670570 0.989070 0.999990 1.200706
O18   O     O_R   0.058820 0.094950 0.913870 -0.602351
C33   C     C_R   0.889813 0.116841 0.884950 0.935338
O19   O     O_R   0.058990 0.094970 0.086020 -0.585622
C34   C     C_R   0.889741 0.115201 0.116310 1.049381
V4    V     V_3+5 0.170560 0.010930 0.999930 1.194269
O20   O     O_3   0.895590 0.941310 0.999960 -0.284452
N1    N     N_R   0.606998 0.099527 0.254280 0.235073
O21   O     O_R   0.429531 0.111757 0.278540 -0.389141
O22   O     O_R   0.672979 0.016075 0.246604 -0.416744
N2    N     N_R   0.053122 0.765616 0.637099 0.228077
O23   O     O_R   0.039620 0.840166 0.592811 -0.387643
O24   O     O_R   0.904152 0.712017 0.643594 -0.404039
S1    S     S_3+6 0.147017 0.422778 0.236212 -0.051454
O25   O     O_2   0.221630 0.428484 0.148416 -0.316823
O26   O     O_2   0.037550 0.509368 0.256139 -0.339108
O27   O     O_3   0.334248 0.411785 0.301447 -0.515346
H16   H     H_    0.435812 0.452198 0.278254 0.356896

loop_
_geom_bond_atom_site_label_1
_geom_bond_atom_site_label_2
_geom_bond_distance
_ccdc_geom_bond_type
C17   N1    1.436823 S    
C4    C6    1.483317 S    
C7    H1    1.080242 S    
C1    O6    1.301294 A    
C25   C30   1.406366 A    
C28   H14   1.082791 S    
C11   H4    1.111540 S    
N1    O22   1.301587 A    
O14   V3    2.005502 S    
C5    C12   1.489317 S    
C19   N2    1.430657 S    
C7    C8    1.409516 A    
C15   C16   1.405265 A    
C27   C31   1.489634 S    
O5    C3    1.297604 A    
V2    O10   2.162051 S    
C5    C6    1.401645 A    
C6    C7    1.408495 A    
C23   C24   1.408703 A    
C9    C33   1.483642 S    
O14   C32   1.301298 A    
O12   V3    2.001500 S    
O8    V2    1.998710 S    
O17   V4    1.710371 S    
C13   H7    1.083124 S    
O13   V3    2.003721 S    
O18   C33   1.302228 A    
C26   C27   1.408439 A    
C9    C10   1.400266 A    
C13   C14   1.404633 A    
O19   C34   1.302626 A    
V3    O20   1.707498 S    
O7    V1    2.156829 S    
C20   C21   1.404307 A    
O17   V3    2.156725 S    
O9    C4    1.300344 A    
S1    O27   1.680484 S    
C14   C15   1.420804 A    
C28   C29   1.400384 A    
C8    C9    1.410384 A    
O11   C32   1.296780 A    
O15   V3    2.001806 S    
O12   C31   1.302347 A    
C5    C10   1.394606 A    
N1    O21   1.302101 A    
O15   C33   1.296101 A    
C10   C11   1.489582 S    
S1    O26   1.502738 D    
C19   C20   1.403997 A    
O4    C2    1.302352 A    
S1    O25   1.504091 D    
O13   C34   1.296390 A    
C11   C12   1.519215 S    
N2    O23   1.300617 A    
C16   H8    1.083784 S    
O2    C1    1.299729 A    
C22   H10   1.083103 S    
C17   C18   1.417327 A    
C31   O16   1.297914 A    
O27   H16   0.990471 S    
O18   V4    2.003571 S    
C29   H15   1.082866 S    
C26   H13   1.082825 S    
N2    O24   1.299916 A    
C22   C23   1.401192 A    
O3    C4    1.297593 A    
O1    V2    2.002868 S    
C25   H12   1.082785 S    
C12   H6    1.111706 S    
O6    V2    2.000155 S    
O9    V2    2.003538 S    
C21   C22   1.403033 A    
C3    C15   1.491920 S    
O2    V1    2.005373 S    
C21   C32   1.485330 S    
C27   C28   1.406532 A    
C19   C24   1.418410 A    
C18   C34   1.488339 S    
C20   H9    1.083914 S    
C16   C17   1.406482 A    
O1    C2    1.297817 A    
V4    O20   2.162024 S    
O5    V1    2.003835 S    
O8    C3    1.303548 A    
C14   S1    1.771781 S    
C11   H3    1.111180 S    
O16   V4    2.006111 S    
C13   C18   1.401979 A    
C29   C30   1.408429 A    
O7    V2    1.711384 S    
O4    V1    2.001357 S    
O3    V1    2.001877 S    
V1    O10   1.707422 S    
O11   V4    2.000545 S    
C25   C26   1.400158 A    
C23   H11   1.082904 S    
C12   H5    1.111486 S    
O19   V4    1.998617 S    
C8    H2    1.081264 S    
C2    C30   1.489337 S    
C1    C24   1.492851 S    
