data_mof_unit_35704.cif
_audit_creation_date              2012-12-10T17:03:57-0500
_audit_creation_method            fapswitch 2.2
_symmetry_space_group_name_H-M    P1
_symmetry_Int_Tables_number       1
_space_group_crystal_system       triclinic
_cell_length_a                    9.908617
_cell_length_b                    11.064772
_cell_length_c                    15.833407
_cell_angle_alpha                 96.077526
_cell_angle_beta                  79.174661
_cell_angle_gamma                 111.932083
_cell_volume                      1580.41496755

loop_
_atom_site_label
_atom_site_type_symbol
_atom_type_description
_atom_site_fract_x
_atom_site_fract_y
_atom_site_fract_z
_atom_type_partial_charge
C1    C     C_R   0.557233 0.745989 0.506632 0.727535
C2    C     C_R   0.442465 0.253977 0.493872 0.743157
C3    C     C_R   0.328691 0.494875 0.078965 -0.246528
C4    C     C_R   0.682548 0.582841 0.926740 -0.248475
C5    C     C_R   0.227949 0.476887 0.024345 -0.139023
C6    C     C_R   0.783891 0.605215 0.981687 -0.134243
C7    C     C_2   0.590956 0.887534 0.511280 0.209540
C8    C     C_2   0.407583 0.112325 0.491100 0.207552
C9    C     C_2   0.484148 0.930260 0.503700 -0.116955
C10   C     C_2   0.509779 0.069196 0.506508 -0.107080
C11   C     C_2   0.914289 0.477450 0.498803 0.625422
C12   C     C_2   0.065736 0.493135 0.515636 0.522016
C13   C     C_R   0.412004 0.487639 0.662691 0.818718
C14   C     C_R   0.588352 0.513982 0.337413 0.836935
C15   C     C_R   0.360955 0.484775 0.756217 -0.097599
C16   C     C_R   0.642264 0.530952 0.244727 -0.100535
C17   C     C_R   0.167648 0.460285 0.880435 0.418088
C18   C     C_R   0.841718 0.601610 0.123944 0.421027
C19   C     C_R   0.213609 0.463037 0.790875 -0.275655
C20   C     C_R   0.792909 0.577400 0.211925 -0.273034
C21   C     C_R   0.463377 0.506152 0.811179 -0.245645
C22   C     C_R   0.539849 0.507086 0.189454 -0.237270
C23   C     C_R   0.423344 0.510011 0.900966 0.017010
C24   C     C_R   0.584065 0.536501 0.102190 0.017080
C25   C     C_R   0.272361 0.482399 0.935381 0.119613
C26   C     C_R   0.737187 0.580980 0.069106 0.120298
C27   C     C_R   0.529040 0.537110 0.957165 0.096955
C28   C     C_R   0.479831 0.521402 0.046988 0.096699
Cu1   Cu    Cu3+1 0.362980 0.479380 0.485080 0.986262
Cu2   Cu    Cu3+1 0.637020 0.520620 0.514920 1.019094
H1    H     H_    0.113731 0.456780 0.052579 0.218899
H2    H     H_    0.900039 0.641371 0.954792 0.217231
H3    H     H_    0.425122 0.463427 0.216106 0.166413
H4    H     H_    0.573988 0.516029 0.782198 0.174291
H5    H     H_    0.872531 0.596092 0.254721 0.172406
H6    H     H_    0.134005 0.446689 0.748440 0.191418
H7    H     H_    0.284499 0.491683 0.146589 0.161585
H8    H     H_    0.729213 0.607436 0.860886 0.158657
H9    H     H_    0.615287 0.137619 0.520918 0.196387
H10   H     H_    0.375589 0.861552 0.494493 0.198917
N1    N     N_2   0.842890 0.551600 0.537350 -0.047984
N2    N     N_2   0.157110 0.448400 0.462650 -0.085515
O1    O     O_R   0.426810 0.668300 0.492040 -0.617385
O2    O     O_R   0.573190 0.331700 0.507960 -0.556137
O3    O     O_R   0.658240 0.703130 0.517240 -0.588098
O4    O     O_R   0.341760 0.296870 0.482760 -0.582769
O5    O     O_R   0.319390 0.472820 0.610170 -0.568731
O6    O     O_R   0.680610 0.527180 0.389830 -0.538645
O7    O     O_R   0.550820 0.507640 0.635370 -0.590721
O8    O     O_R   0.449180 0.492360 0.364630 -0.591216
O9    O     O_3   0.021648 0.436028 0.915412 -0.730484
H11   H     H_    0.963737 0.423554 0.868336 0.328362
O10   O     O_3   0.990385 0.647373 0.090683 -0.731712
H12   H     H_    0.047885 0.656365 0.137462 0.325979
O11   O     O_3   0.273429 0.023769 0.472890 -0.717742
H13   H     H_    0.211859 0.071524 0.462127 0.350099
O12   O     O_3   0.728973 0.976413 0.522782 -0.733101
H14   H     H_    0.794949 0.929005 0.525992 0.350888
O13   O     O_3   0.100476 0.549009 0.594358 -0.722229
H15   H     H_    0.200727 0.615144 0.583934 0.356765
O14   O     O_3   0.844090 0.378259 0.443882 -0.706947
H16   H     H_    0.875286 0.303998 0.447727 0.329813
O15   O     O_3   0.123459 0.407809 0.383649 -0.672156
H17   H     H_    0.197156 0.369939 0.355375 0.369559
O16   O     O_3   0.913234 0.654223 0.586273 -0.630641
H18   H     H_    0.840182 0.695613 0.609081 0.363588

loop_
_geom_bond_atom_site_label_1
_geom_bond_atom_site_label_2
_ccdc_geom_bond_type
C6    H2    S    
C11   C12   S    
Cu2   N1    S    
Cu1   Cu2   S    
C14   C16   S    
C23   C27   A    
Cu1   N2    S    
C9    C10   S    
Cu2   O3    S    
C18   C26   A    
Cu1   O4    S    
C16   C20   A    
C17   C25   A    
C17   O9    S    
O11   H13   S    
C13   C15   S    
C3    C5    A    
O13   H15   S    
C1    O3    A    
C14   O8    A    
O10   H12   S    
Cu1   O1    S    
C23   C25   A    
C15   C19   A    
C20   H5    S    
Cu2   O2    S    
O12   H14   S    
C6    C26   A    
Cu1   O5    S    
C13   O7    A    
C8    O11   S    
Cu2   O6    S    
C3    C28   A    
C17   C19   A    
Cu2   O7    S    
C24   C26   A    
C11   N1    D    
C18   C20   A    
Cu1   O8    S    
C21   C23   A    
O14   H16   S    
C8    C10   D    
C5    C25   A    
C7    O12   S    
C16   C22   A    
C12   N2    D    
O15   H17   S    
C24   C28   A    
C15   C21   A    
C4    C27   A    
C3    H7    S    
C4    C6    A    
O16   H18   S    
C22   C24   A    
C2    C8    S    
C27   C28   A    
C7    C9    D    
C22   H3    S    
C14   O6    A    
C1    C7    S    
N1    O16   S    
C21   H4    S    
C18   O10   S    
C5    H1    S    
C19   H6    S    
C4    H8    S    
C12   O13   S    
C13   O5    A    
N2    O15   S    
C1    O1    A    
C9    H10   S    
C2    O4    A    
O9    H11   S    
C2    O2    A    
C10   H9    S    
C11   O14   S    
