data_mof_unit_13382.cif
_audit_creation_date              2013-03-05T15:52:17-0500
_audit_creation_method            fapswitch 2.2
_symmetry_space_group_name_H-M    P1
_symmetry_Int_Tables_number       1
_space_group_crystal_system       triclinic
_cell_length_a                    21.52232
_cell_length_b                    7.256149
_cell_length_c                    14.888405
_cell_angle_alpha                 89.892967
_cell_angle_beta                  73.327302
_cell_angle_gamma                 90.149648
_cell_volume                      2227.34460001

loop_
_atom_site_label
_atom_site_type_symbol
_atom_site_description
_atom_site_fract_x
_atom_site_fract_y
_atom_site_fract_z
_atom_type_partial_charge
O1    O     O_R   0.464160 0.506670 0.130070 -0.568572
O2    O     O_R   0.535840 0.006670 0.869930 -0.578762
O3    O     O_R   0.589710 0.179080 0.006710 -0.595898
O4    O     O_R   0.410290 0.679080 0.993290 -0.592715
C1    C     C_R   0.616426 0.344661 0.001341 0.869844
C2    C     C_R   0.383806 0.844716 0.997434 0.865074
O5    O     O_R   0.467940 0.177220 0.138010 -0.594371
O6    O     O_R   0.532060 0.677220 0.861990 -0.593208
O7    O     O_R   0.413200 0.002810 0.002170 -0.594919
O8    O     O_R   0.586800 0.502810 0.997830 -0.591091
C3    C     C_R   0.458627 0.346153 0.174649 0.938614
C4    C     C_R   0.540733 0.847171 0.825302 0.945457
O9    O     O_3   0.482180 0.337850 0.955280 -0.291096
O10   O     O_3   0.517820 0.837850 0.044720 -0.286060
V1    V     V_3+5 0.503310 0.064600 0.008300 1.181901
V2    V     V_3+5 0.496690 0.564600 0.991700 1.188412
C5    C     C_R   0.563184 0.867451 0.722881 -0.153994
C6    C     C_R   0.434674 0.360589 0.276947 -0.127996
C7    C     C_R   0.920582 0.855836 0.274795 -0.459513
C8    C     C_R   0.076974 0.360219 0.723774 -0.457499
C9    C     C_R   0.567605 0.058558 0.587990 -0.172084
C10   C     C_R   0.441681 0.502659 0.420926 -0.171791
C11   C     C_R   0.536501 0.005453 0.679706 -0.149680
C12   C     C_R   0.470157 0.458195 0.326827 -0.165941
C13   C     C_R   0.619628 0.778908 0.672087 -0.176382
C14   C     C_R   0.371063 0.307796 0.321768 -0.149675
C15   C     C_R   0.658236 0.853132 0.586060 0.145077
C16   C     C_R   0.338390 0.378101 0.411111 0.161208
C17   C     C_R   0.628993 0.987554 0.541816 0.184834
C18   C     C_R   0.375640 0.465279 0.463187 0.175564
C19   C     C_R   0.724857 0.803846 0.543770 -0.160875
C20   C     C_R   0.269669 0.367669 0.449037 -0.155769
C21   C     C_R   0.756267 0.867221 0.450596 0.124204
C22   C     C_R   0.241382 0.399832 0.546376 0.108339
C23   C     C_R   0.724138 0.996015 0.408593 -0.044811
C24   C     C_R   0.280075 0.486999 0.596410 -0.044100
C25   C     C_R   0.661999 0.055672 0.453623 -0.259640
C26   C     C_R   0.345820 0.521127 0.555030 -0.256765
C27   C     C_R   0.762558 0.702001 0.591423 0.257254
C28   C     C_R   0.228143 0.348335 0.391016 0.223894
C29   C     C_R   0.827336 0.660764 0.546287 0.330875
C30   C     C_R   0.161486 0.321699 0.430979 0.359547
C31   C     C_R   0.859640 0.743566 0.460045 -0.239541
C32   C     C_R   0.134685 0.313920 0.529687 -0.231227
C33   C     C_R   0.822151 0.820016 0.405684 -0.073664
C34   C     C_R   0.174218 0.358959 0.588454 -0.075061
C35   C     C_R   0.928236 0.754849 0.427327 0.329978
C36   C     C_R   0.068684 0.266960 0.571073 0.338161
C37   C     C_R   0.958174 0.817178 0.335379 0.232966
C38   C     C_R   0.038680 0.308850 0.665843 0.223704
C39   C     C_R   0.852102 0.845771 0.308072 0.268762
C40   C     C_R   0.145332 0.356638 0.687438 0.279097
H1    H     H_    0.640130 0.159287 0.419847 0.138784
H2    H     H_    0.373395 0.591810 0.595153 0.135984
H3    H     H_    0.545652 0.163973 0.555425 0.123574
H4    H     H_    0.470289 0.574477 0.459127 0.125130
H5    H     H_    0.492321 0.074843 0.717898 0.123350
H6    H     H_    0.519551 0.501211 0.292630 0.115560
H7    H     H_    0.632764 0.657759 0.703551 0.181176
H8    H     H_    0.346632 0.220774 0.283752 0.156416
H9    H     H_    0.748309 0.062570 0.342795 0.144312
H10   H     H_    0.259491 0.539994 0.666316 0.150977
C41   C     C_3   0.229374 0.761647 0.913297 -0.307427
C42   C     C_3   0.767879 0.318422 0.096954 -0.335346
H11   H     H_    0.211977 0.617670 0.916059 0.216999
H12   H     H_    0.782107 0.185496 0.121472 0.210953
H13   H     H_    0.223817 0.826313 0.848229 0.182783
H14   H     H_    0.773803 0.425482 0.147157 0.202459
C43   C     C_3   0.302216 0.758647 0.910180 -0.378800
C44   C     C_3   0.695427 0.307446 0.098016 -0.372993
H15   H     H_    0.331531 0.829920 0.845600 0.153512
H16   H     H_    0.666407 0.405686 0.150791 0.155181
H17   H     H_    0.319198 0.613333 0.906193 0.169084
H18   H     H_    0.676267 0.166747 0.120006 0.168248
H19   H     H_    0.175575 0.623350 0.093668 0.195745
H20   H     H_    0.814596 0.076660 0.949513 0.180817
H21   H     H_    0.283164 0.609199 0.086953 0.203379
H22   H     H_    0.709199 0.069578 0.947109 0.172693
C45   C     C_3   0.195857 0.765442 0.089066 -0.284071
C46   C     C_3   0.801003 0.214987 0.928939 -0.284876
C47   C     C_3   0.216679 0.062652 0.999231 -0.288805
C48   C     C_3   0.790230 0.552146 0.967316 -0.293445
C49   C     C_3   0.187622 0.865203 0.000982 -0.007193
C50   C     C_3   0.812715 0.363610 0.997378 0.021647
H23   H     H_    0.188633 0.141742 0.061661 0.201210
H24   H     H_    0.819820 0.587408 0.894849 0.215740
H25   H     H_    0.212894 0.137988 0.935934 0.217058
H26   H     H_    0.797765 0.663836 0.014310 0.196282
C51   C     C_3   0.312673 0.853801 0.997943 0.035267
C52   C     C_3   0.687742 0.352763 0.999913 0.050730
C53   C     C_3   0.268587 0.756092 0.086338 -0.272955
C54   C     C_3   0.728782 0.211249 0.928989 -0.300742
C55   C     C_3   0.288756 0.056056 0.998371 -0.336280
C56   C     C_3   0.717546 0.547119 0.971286 -0.320708
H27   H     H_    0.318814 0.130695 0.935390 0.162520
H28   H     H_    0.690974 0.651673 0.022571 0.164915
H29   H     H_    0.294557 0.129521 0.060942 0.208195
H30   H     H_    0.712166 0.586299 0.901812 0.228705
H31   H     H_    0.168316 0.840271 0.153157 0.227555
H32   H     H_    0.832147 0.243082 0.856711 0.233055
H33   H     H_    0.275101 0.822652 0.150290 0.201449
H34   H     H_    0.725499 0.242125 0.857318 0.216397
O11   O     O_R   0.913210 0.208550 0.002110 -0.579161
O12   O     O_R   0.086790 0.708550 0.997890 -0.582712
O13   O     O_R   0.032060 0.539960 0.861980 -0.573218
O14   O     O_R   0.967940 0.039960 0.138020 -0.568576
C57   C     C_R   0.046216 0.372409 0.825699 1.152514
C58   C     C_R   0.953575 0.871740 0.173998 1.146078
O15   O     O_R   0.910290 0.538020 0.993280 -0.583976
O16   O     O_R   0.089710 0.038020 0.006720 -0.582827
O17   O     O_R   0.964160 0.712340 0.130090 -0.590217
O18   O     O_R   0.035840 0.212340 0.869910 -0.589394
C59   C     C_R   0.884060 0.369908 0.997182 0.899216
C60   C     C_R   0.116109 0.870464 0.002004 0.893092
O19   O     O_3   0.017820 0.379210 0.044690 -0.279429
O20   O     O_3   0.982180 0.879210 0.955310 -0.281492
V3    V     V_3+5 0.996690 0.652500 0.991710 1.281370
V4    V     V_3+5 0.003310 0.152500 0.008290 1.286018
N1    N     N_R   0.966629 0.730345 0.491078 0.284406
O21   O     O_R   0.019021 0.631485 0.467814 -0.288306
O22   O     O_R   0.949410 0.808750 0.573041 -0.263929
N2    N     N_R   0.035522 0.152157 0.521421 0.279587
O23   O     O_R   0.979252 0.198619 0.512719 -0.266647
O24   O     O_R   0.064216 0.005572 0.479086 -0.305718
N3    N     N_R   0.814056 0.826346 0.242817 0.214589
O25   O     O_R   0.764862 0.713487 0.261696 -0.442133
O26   O     O_R   0.830978 0.907587 0.161499 -0.479153
N4    N     N_R   0.183773 0.312045 0.749316 0.213469
O27   O     O_R   0.226294 0.180122 0.727439 -0.431316
O28   O     O_R   0.172180 0.388189 0.831306 -0.496933
N5    N     N_R   0.027291 0.832282 0.301053 0.259051
O29   O     O_R   0.053113 0.991421 0.271705 -0.347818
O30   O     O_R   0.061011 0.684456 0.272482 -0.348306
N6    N     N_R   0.970325 0.279925 0.706272 0.256705
O31   O     O_R   0.945419 0.116450 0.706084 -0.303593
O32   O     O_R   0.935227 0.408959 0.756761 -0.404071
Br1   Br    Br    0.866406 0.464498 0.598241 -0.268050
Br2   Br    Br    0.107900 0.334467 0.346721 -0.223709
N7    N     N_R   0.741081 0.669427 0.690449 0.232231
O33   O     O_R   0.729857 0.502326 0.723158 -0.423047
O34   O     O_R   0.736971 0.806426 0.748121 -0.410076
N8    N     N_R   0.250874 0.394058 0.293057 0.241358
O35   O     O_R   0.245097 0.276956 0.229805 -0.424722
O36   O     O_R   0.278799 0.552356 0.267062 -0.425416

loop_
_geom_bond_atom_site_label_1
_geom_bond_atom_site_label_2
_geom_bond_distance
_ccdc_geom_bond_type
C45   C49   1.551057 S    
C41   H11   1.105569 S    
C3    C6    1.465192 S    
C46   C54   1.554334 S    
C50   C59   1.535236 S    
C48   C56   1.548734 S    
C28   N8    1.436811 S    
C30   Br2   1.934586 S    
C21   C33   1.426344 A    
C57   O18   1.320465 A    
O1    C3    1.327529 A    
C46   C50   1.553985 S    
O2    C4    1.324912 A    
N4    O27   1.301776 A    
O16   V4    2.032643 S    
C2    O7    1.320320 A    
C40   N4    1.440682 S    
O15   V3    2.028633 S    
C35   C37   1.408465 A    
O5    C3    1.334681 A    
O13   C57   1.331422 A    
C5    C11   1.399337 A    
C6    C12   1.400320 A    
C42   H14   1.111185 S    
C45   H31   1.111647 S    
O11   C59   1.341558 A    
C36   N2    1.432400 S    
C24   H10   1.079448 S    
C15   C17   1.421311 A    
C33   C39   1.422428 A    
C34   C40   1.425756 A    
C47   C55   1.548523 S    
O20   V3    1.787134 S    
C18   C26   1.394900 A    
O6    V2    2.030770 S    
C43   H15   1.112809 S    
C42   C50   1.553131 S    
C8    C38   1.403433 A    
C41   C43   1.555254 S    
C16   C18   1.414163 A    
C6    C14   1.392273 A    
C4    C5    1.468468 S    
C44   H18   1.112938 S    
C19   C21   1.432031 A    
C43   H17   1.112975 S    
C22   C34   1.430865 A    
C42   C44   1.556696 S    
C51   C53   1.552880 S    
C31   C35   1.417804 A    
O16   C60   1.336779 A    
C29   Br1   1.925856 S    
C1    C52   1.529898 S    
O15   C59   1.336937 A    
C8    C57   1.474178 S    
C25   H1    1.084397 S    
C7    C58   1.468719 S    
C36   C38   1.407149 A    
C55   H27   1.113230 S    
O14   V4    2.030787 S    
C29   C31   1.405600 A    
C49   C60   1.535412 S    
O13   V3    2.035283 S    
C44   C52   1.551115 S    
C30   C32   1.417301 A    
C53   H33   1.112397 S    
C43   C51   1.551141 S    
C47   C49   1.558928 S    
C32   C34   1.422353 A    
C52   C56   1.555047 S    
C27   N7    1.431885 S    
N1    O22   1.301669 A    
N7    O33   1.301714 A    
C41   H13   1.112668 S    
C15   C19   1.437264 A    
C39   N3    1.445923 S    
C16   C20   1.425537 A    
C27   C29   1.396488 A    
C38   N6    1.435422 S    
C9    H3    1.084131 S    
N6    O32   1.301078 A    
N5    O30   1.298781 A    
C48   H24   1.113090 S    
C9    C17   1.402611 A    
C41   C49   1.552567 S    
C42   H12   1.105308 S    
O4    V2    2.032566 S    
C37   N5    1.431341 S    
C7    C37   1.402101 A    
C52   C54   1.556665 S    
C26   H2    1.084009 S    
O6    C4    1.338561 A    
O19   V4    1.787496 S    
C23   H9    1.080749 S    
O1    V2    2.019533 S    
C56   H28   1.113335 S    
O2    V1    2.021898 S    
C31   C33   1.410371 A    
C47   H25   1.111714 S    
O12   C60   1.341948 A    
O4    C2    1.325479 A    
C48   C50   1.559331 S    
C9    C11   1.390460 A    
N3    O25   1.301719 A    
C10   C12   1.397312 A    
O11   V4    2.010120 S    
N2    O24   1.300994 A    
N5    O29   1.299472 A    
C55   H29   1.111684 S    
N8    O36   1.300622 A    
O3    V1    2.028554 S    
C35   N1    1.437167 S    
C14   H8    1.079780 S    
O12   V3    2.008139 S    
C11   H5    1.083652 S    
H21   C53   1.112647 S    
C10   C18   1.404958 A    
C23   C25   1.383867 A    
O10   V1    1.787505 S    
C45   C53   1.555807 S    
H20   C46   1.112964 S    
C28   C30   1.399229 A    
O3    C1    1.322955 A    
N4    O28   1.298492 A    
C10   H4    1.083756 S    
N1    O21   1.298875 A    
N6    O31   1.300750 A    
C54   H34   1.111875 S    
C13   C15   1.416115 A    
C2    C51   1.530394 S    
C14   C16   1.411307 A    
C58   O17   1.317491 A    
O17   V3    2.025000 S    
H22   C54   1.112935 S    
C24   C26   1.392995 A    
O7    V1    2.016858 S    
C5    C13   1.392541 A    
C1    O8    1.322457 A    
C8    C40   1.414703 A    
O8    V2    2.019029 S    
O18   V4    2.022564 S    
N7    O34   1.301288 A    
O14   C58   1.331541 A    
C48   H26   1.113176 S    
O5    V1    2.035267 S    
C21   C23   1.411358 A    
C19   C27   1.428058 A    
C22   C24   1.415427 A    
C20   C28   1.416863 A    
C51   C55   1.555930 S    
C47   H23   1.113331 S    
C7    C39   1.415379 A    
C12   H6    1.083442 S    
O9    V2    1.787870 S    
C17   C25   1.390527 A    
N3    O26   1.299669 A    
C56   H30   1.109918 S    
N8    O35   1.301513 A    
C44   H16   1.112862 S    
C13   H7    1.071410 S    
N2    O23   1.299650 A    
H19   C45   1.112881 S    
C46   H32   1.110003 S    
C32   C36   1.417037 A    
C20   C22   1.421653 A    
