data_mof_unit_20582.cif
_audit_creation_date              2012-12-11T14:25:00-0500
_audit_creation_method            fapswitch 2.2
_symmetry_space_group_name_H-M    P1
_symmetry_Int_Tables_number       1
_space_group_crystal_system       triclinic
_cell_length_a                    19.315526
_cell_length_b                    11.012123
_cell_length_c                    18.783448
_cell_angle_alpha                 89.332947
_cell_angle_beta                  90.224111
_cell_angle_gamma                 90.450713
_cell_volume                      3994.90880698

loop_
_atom_site_label
_atom_site_type_symbol
_atom_type_description
_atom_site_fract_x
_atom_site_fract_y
_atom_site_fract_z
_atom_type_partial_charge
C1    C     C_R   0.728458 0.371234 0.144474 0.547845
C2    C     C_R   0.270570 0.373803 0.854817 0.572090
C3    C     C_R   0.230425 0.876506 0.146430 0.545650
C4    C     C_R   0.770257 0.874014 0.854356 0.551805
C5    C     C_3   0.480362 0.058436 0.036605 -0.094108
C6    C     C_3   0.519530 0.056217 0.965235 -0.093876
C7    C     C_3   0.969167 0.558295 0.036829 -0.108025
C8    C     C_3   0.013734 0.576344 0.968803 -0.124581
C9    C     C_R   0.753855 0.904275 0.928531 -0.000474
C10   C     C_R   0.247810 0.910413 0.072613 0.013581
C11   C     C_R   0.255530 0.403105 0.929914 0.005677
C12   C     C_R   0.742098 0.394645 0.068698 -0.002123
C13   C     C_R   0.696412 0.854298 0.966697 0.045302
C14   C     C_R   0.303561 0.857753 0.034548 0.044151
C15   C     C_R   0.198880 0.351938 0.968501 0.020952
C16   C     C_R   0.799724 0.346351 0.031186 0.054814
C17   C     C_R   0.699358 0.852159 0.042368 -0.006810
C18   C     C_R   0.298781 0.852127 0.959130 -0.012593
C19   C     C_R   0.203442 0.344226 0.044168 -0.038516
C20   C     C_R   0.796542 0.344117 0.955732 -0.005932
C21   C     C_R   0.806669 0.967913 0.038964 -0.156588
C22   C     C_R   0.194519 0.973466 0.961966 -0.132022
C23   C     C_R   0.310974 0.458676 0.041274 -0.167311
C24   C     C_R   0.688349 0.454333 0.957523 -0.151900
C25   C     C_R   0.808222 0.958798 0.966533 -0.169857
C26   C     C_R   0.194853 0.968675 0.034663 -0.134701
C27   C     C_R   0.310908 0.454782 0.968174 -0.183110
C28   C     C_R   0.686597 0.444799 0.030053 -0.177480
C29   C     C_R   0.636880 0.804004 0.933392 0.384622
C30   C     C_R   0.363160 0.808419 0.067986 0.379870
C31   C     C_R   0.137229 0.310193 0.935544 0.383591
C32   C     C_R   0.860395 0.300394 0.064514 0.385477
C33   C     C_R   0.088501 0.244080 0.974647 -0.107421
C34   C     C_R   0.907926 0.234115 0.025634 -0.108944
C35   C     C_R   0.590380 0.732989 0.972496 -0.104623
C36   C     C_R   0.409250 0.738619 0.029393 -0.106610
C37   C     C_R   0.599136 0.717158 0.045350 -0.194808
C38   C     C_R   0.399173 0.720691 0.957074 -0.194290
C39   C     C_R   0.097915 0.223454 0.047119 -0.197017
C40   C     C_R   0.898982 0.218073 0.953069 -0.191704
C41   C     C_R   0.651778 0.778680 0.080466 -0.110429
C42   C     C_R   0.344833 0.777414 0.921916 -0.103733
C43   C     C_R   0.154248 0.274386 0.081979 -0.111976
C44   C     C_R   0.844478 0.273909 0.918013 -0.105624
C45   C     C_R   0.559603 0.152046 0.136477 0.562687
C46   C     C_R   0.441413 0.150818 0.863533 0.559112
C47   C     C_R   0.033722 0.656437 0.143677 0.556516
C48   C     C_R   0.936132 0.650781 0.862650 0.565825
C49   C     C_R   0.751386 0.920368 0.077676 0.001522
C50   C     C_R   0.247463 0.920434 0.923137 0.003189
C51   C     C_R   0.255369 0.411437 0.080133 -0.018623
C52   C     C_R   0.745032 0.411752 0.919911 0.002901
C53   C     C_R   0.488774 0.157865 0.571234 0.009147
C54   C     C_R   0.547786 0.150983 0.436205 -0.014950
C55   C     C_R   0.994925 0.668994 0.574140 0.003631
C56   C     C_R   0.051681 0.650285 0.437337 -0.002571
C57   C     C_R   0.487966 0.048143 0.531819 0.053029
C58   C     C_R   0.527619 0.040892 0.470781 0.048075
C59   C     C_R   0.968563 0.586909 0.524177 0.024966
C60   C     C_R   0.010141 0.557951 0.466900 0.052780
C61   C     C_R   0.548528 0.259296 0.474633 -0.159655
C62   C     C_R   0.521366 0.261500 0.543203 -0.154538
C63   C     C_R   0.076823 0.739337 0.484053 -0.173733
C64   C     C_R   0.052432 0.741222 0.555055 -0.187262
C65   C     C_R   0.450673 0.942742 0.552663 -0.058133
C66   C     C_R   0.543995 0.923334 0.445809 -0.110194
C67   C     C_R   0.915009 0.506526 0.541321 -0.072597
C68   C     C_R   0.016810 0.433929 0.451096 -0.081021
C69   C     C_R   0.930274 0.384083 0.537845 -0.101651
C70   C     C_R   0.983316 0.348931 0.493940 -0.148620
C71   C     C_R   0.467315 0.829017 0.528776 -0.111766
C72   C     C_R   0.511910 0.819363 0.472798 -0.151086
C73   C     C_R   0.766308 0.909686 0.571086 0.020042
C74   C     C_R   0.253622 0.936913 0.420053 0.000369
C75   C     C_R   0.262693 0.411338 0.568590 0.006591
C76   C     C_R   0.753880 0.407248 0.424847 0.024347
C77   C     C_R   0.822227 0.891199 0.522589 -0.001746
C78   C     C_R   0.205386 0.009180 0.455637 0.000543
C79   C     C_R   0.322098 0.445218 0.526254 0.011996
C80   C     C_R   0.728805 0.514856 0.450545 -0.006598
C81   C     C_R   0.805979 0.880722 0.450597 0.017915
C82   C     C_R   0.193422 0.986421 0.528102 0.024977
C83   C     C_R   0.321168 0.418581 0.453385 0.021318
C84   C     C_R   0.711947 0.520692 0.522529 0.021501
C85   C     C_R   0.699872 0.987870 0.475559 -0.118462
C86   C     C_R   0.296084 0.862356 0.533457 -0.151986
C87   C     C_R   0.199628 0.368605 0.461097 -0.110807
C88   C     C_R   0.773498 0.332016 0.544924 -0.181495
C89   C     C_R   0.741878 0.968853 0.149243 0.524616
C90   C     C_R   0.257784 0.968473 0.850863 0.526864
C91   C     C_R   0.242969 0.465894 0.150396 0.510530
C92   C     C_R   0.757333 0.466994 0.849952 0.522464
C93   C     C_R   0.705730 0.964832 0.547414 0.078302
C94   C     C_R   0.304350 0.874531 0.459237 0.131640
C95   C     C_R   0.201060 0.374945 0.534407 0.114935
C96   C     C_R   0.780759 0.316651 0.471858 0.109787
C97   C     C_R   0.893410 0.904134 0.539478 -0.106983
C98   C     C_R   0.161735 0.089936 0.418360 -0.074932
C99   C     C_R   0.382229 0.505622 0.552532 -0.088032
C100  C     C_R   0.712121 0.610573 0.403510 -0.086864
C101  C     C_R   0.942824 0.898623 0.485966 -0.144127
C102  C     C_R   0.098746 0.122454 0.447175 -0.114768
C103  C     C_R   0.441895 0.517364 0.511235 -0.156588
C104  C     C_R   0.670685 0.702724 0.426016 -0.133651
C105  C     C_R   0.925176 0.861618 0.418247 -0.109830
C106  C     C_R   0.082312 0.086138 0.516370 -0.146397
C107  C     C_R   0.442465 0.475552 0.441922 -0.118825
C108  C     C_R   0.651129 0.707002 0.496688 -0.153153
C109  C     C_R   0.856416 0.845187 0.401217 -0.085601
C110  C     C_R   0.129051 0.020233 0.556530 -0.098338
C111  C     C_R   0.382738 0.425219 0.413138 -0.063774
C112  C     C_R   0.665906 0.613168 0.542452 -0.080779
C113  C     C_R   0.745722 0.935523 0.427731 -0.012193
C114  C     C_R   0.244813 0.927267 0.569196 -0.040755
C115  C     C_R   0.257019 0.400467 0.420409 -0.046919
C116  C     C_R   0.742441 0.435436 0.570791 -0.035056
C117  C     C_R   0.730206 0.373532 0.354898 0.543345
C118  C     C_R   0.272316 0.376870 0.643577 0.544341
C119  C     C_R   0.231656 0.883382 0.352164 0.527235
C120  C     C_R   0.773563 0.874614 0.644025 0.554266
C121  C     C_R   0.564823 0.151536 0.360240 0.549726
C122  C     C_R   0.461201 0.156248 0.643486 0.542497
C123  C     C_R   0.066440 0.651142 0.360242 0.560055
C124  C     C_R   0.968652 0.659111 0.647491 0.532768
C125  C     C_R   0.740402 0.974684 0.356420 0.532262
C126  C     C_R   0.257128 0.970631 0.642927 0.528799
C127  C     C_R   0.243545 0.464595 0.353518 0.524250
C128  C     C_R   0.756465 0.472021 0.643781 0.522053
C129  C     C_3   0.522081 0.256993 0.962255 -0.129829
C130  C     C_3   0.482171 0.259207 0.034472 -0.130786
C131  C     C_3   0.994168 0.773272 0.971225 -0.110000
C132  C     C_3   0.950943 0.756145 0.040456 -0.134562
C133  C     C_3   0.568481 0.155373 0.992612 0.119121
C134  C     C_3   0.433595 0.158463 0.006767 0.118551
C135  C     C_3   0.048379 0.687302 0.002641 0.129088
C136  C     C_3   0.914917 0.645772 0.006179 0.122510
C137  C     C_3   0.530192 0.158358 0.063675 0.029689
C138  C     C_3   0.471849 0.156962 0.935725 0.032451
C139  C     C_3   0.005675 0.668457 0.070639 0.039774
C140  C     C_3   0.957802 0.661400 0.938068 0.027795
Cr1   Cr    Cr6+3 0.772820 0.169820 0.252640 1.044409
Cr2   Cr    Cr6+3 0.227180 0.169820 0.747360 1.058536
Cr3   Cr    Cr6+3 0.272820 0.669820 0.252640 1.041748
Cr4   Cr    Cr6+3 0.727180 0.669820 0.747360 1.056846
Cr5   Cr    Cr6+3 0.615040 0.323610 0.249150 0.995627
Cr6   Cr    Cr6+3 0.384960 0.323610 0.750850 1.002915
Cr7   Cr    Cr6+3 0.115040 0.823610 0.249150 0.994555
Cr8   Cr    Cr6+3 0.884960 0.823610 0.750850 0.991587
Cr9   Cr    Cr6+3 0.616720 0.011130 0.250660 0.990370
Cr10  Cr    Cr6+3 0.383280 0.011130 0.749340 1.017262
Cr11  Cr    Cr6+3 0.116720 0.511130 0.250660 0.998151
Cr12  Cr    Cr6+3 0.883280 0.511130 0.749340 1.015175
H1    H     H_    0.570595 0.341506 0.451801 0.139977
H2    H     H_    0.525165 0.343748 0.573977 0.131970
H3    H     H_    0.115012 0.804589 0.466005 0.145089
H4    H     H_    0.075755 0.800266 0.593777 0.112810
H5    H     H_    0.407286 0.946342 0.586964 0.169425
H6    H     H_    0.580999 0.909088 0.404841 0.151807
H7    H     H_    0.872573 0.537884 0.572397 0.159641
H8    H     H_    0.051400 0.400303 0.411698 0.138434
H9    H     H_    0.903346 0.316886 0.569396 0.129348
H10   H     H_    0.993590 0.256026 0.488957 0.107093
H11   H     H_    0.441529 0.749948 0.550392 0.098746
H12   H     H_    0.521441 0.731619 0.449625 0.116632
H13   H     H_    0.661390 0.049346 0.456677 0.129055
H14   H     H_    0.330663 0.805846 0.564122 0.107398
H15   H     H_    0.151915 0.347031 0.435190 0.139124
H16   H     H_    0.793508 0.264622 0.581924 0.104363
H17   H     H_    0.912858 0.933645 0.590086 0.164994
H18   H     H_    0.173637 0.119637 0.364541 0.122692
H19   H     H_    0.383711 0.550378 0.603298 0.139753
H20   H     H_    0.728493 0.611318 0.348367 0.119896
H21   H     H_    0.995163 0.922608 0.496989 0.137387
H22   H     H_    0.062672 0.172239 0.414195 0.089254
H23   H     H_    0.488104 0.558837 0.533219 0.099934
H24   H     H_    0.654344 0.769385 0.387861 0.129048
H25   H     H_    0.963802 0.856204 0.377511 0.160370
H26   H     H_    0.032915 0.104703 0.540214 0.093966
H27   H     H_    0.488497 0.485713 0.409689 0.120521
H28   H     H_    0.624914 0.782638 0.518447 0.153392
H29   H     H_    0.843176 0.825490 0.346413 0.112465
H30   H     H_    0.112206 0.991202 0.608833 0.132718
H31   H     H_    0.383593 0.396415 0.358177 0.129063
H32   H     H_    0.636633 0.614628 0.591053 0.156026
H33   H     H_    0.539857 0.337955 0.931465 0.116238
H34   H     H_    0.466053 0.342012 0.062987 0.115927
H35   H     H_    0.005667 0.861353 0.944227 0.122439
H36   H     H_    0.927331 0.831354 0.070339 0.107862
H37   H     H_    0.464152 0.976878 0.067161 0.190069
H38   H     H_    0.534228 0.972860 0.936899 0.184464
H39   H     H_    0.959942 0.470424 0.064165 0.189153
H40   H     H_    0.041048 0.503760 0.940072 0.184516
H41   H     H_    0.849166 0.014884 0.064636 0.146709
H42   H     H_    0.152719 0.022341 0.936300 0.150672
H43   H     H_    0.353749 0.504679 0.067171 0.151500
H44   H     H_    0.645802 0.500179 0.931183 0.146642
H45   H     H_    0.854513 0.991899 0.940604 0.151225
H46   H     H_    0.150538 0.006242 0.061005 0.155140
H47   H     H_    0.356707 0.489224 0.941833 0.154515
H48   H     H_    0.640333 0.477081 0.055647 0.150702
H49   H     H_    0.043635 0.207747 0.948104 0.127309
H50   H     H_    0.951455 0.193778 0.052475 0.121548
H51   H     H_    0.547659 0.689276 0.945777 0.121588
H52   H     H_    0.452635 0.697361 0.056171 0.123683
H53   H     H_    0.061934 0.167335 0.076870 0.117046
H54   H     H_    0.934003 0.161820 0.923501 0.112556
H55   H     H_    0.565007 0.657458 0.075147 0.112731
H56   H     H_    0.433392 0.662589 0.927772 0.113417
H57   H     H_    0.657368 0.761745 0.136998 0.140891
H58   H     H_    0.337877 0.758778 0.865927 0.145949
H59   H     H_    0.160158 0.255600 0.138337 0.141606
H60   H     H_    0.838467 0.257160 0.861684 0.139432
O1    O     O_R   0.788190 0.043000 0.172520 -0.512807
O2    O     O_R   0.211810 0.043000 0.827480 -0.513125
O3    O     O_R   0.288190 0.543000 0.172520 -0.512104
O4    O     O_R   0.711810 0.543000 0.827480 -0.510248
O5    O     O_R   0.556550 0.253260 0.323480 -0.492766
O6    O     O_R   0.443450 0.253260 0.676520 -0.498746
O7    O     O_R   0.056550 0.753260 0.323480 -0.511187
O8    O     O_R   0.943450 0.753260 0.676520 -0.508974
O9    O     O_R   0.545830 0.051610 0.330160 -0.538111
O10   O     O_R   0.454170 0.051610 0.669840 -0.529530
O11   O     O_R   0.045830 0.551610 0.330160 -0.525837
O12   O     O_R   0.954170 0.551610 0.669840 -0.525702
O13   O     O_R   0.681920 0.959720 0.327070 -0.561065
O14   O     O_R   0.318080 0.959720 0.672930 -0.528592
O15   O     O_R   0.181920 0.459720 0.327070 -0.538450
O16   O     O_R   0.818080 0.459720 0.672930 -0.522993
O17   O     O_3   0.668190 0.168190 0.250820 -0.297702
O18   O     O_3   0.331810 0.168190 0.749180 -0.280955
O19   O     O_3   0.168190 0.668190 0.250820 -0.287647
O20   O     O_3   0.831810 0.668190 0.749180 -0.283799
O21   O     O_R   0.766240 0.292300 0.176860 -0.419782
O22   O     O_R   0.233760 0.292300 0.823140 -0.422694
O23   O     O_R   0.266240 0.792300 0.176860 -0.433128
O24   O     O_R   0.733760 0.792300 0.823140 -0.419937
O25   O     O_R   0.670310 0.409160 0.168720 -0.551808
O26   O     O_R   0.329690 0.409160 0.831280 -0.551373
O27   O     O_R   0.170310 0.909160 0.168720 -0.543498
O28   O     O_R   0.829690 0.909160 0.831280 -0.552785
O29   O     O_R   0.556160 0.251900 0.173380 -0.503562
O30   O     O_R   0.443840 0.251900 0.826620 -0.510400
O31   O     O_R   0.056160 0.751900 0.173380 -0.499795
O32   O     O_R   0.943840 0.751900 0.826620 -0.510929
O33   O     O_R   0.545410 0.050140 0.168240 -0.493491
O34   O     O_R   0.454590 0.050140 0.831760 -0.493681
O35   O     O_R   0.045410 0.550140 0.168240 -0.502448
O36   O     O_R   0.954590 0.550140 0.831760 -0.485045
O37   O     O_R   0.681530 0.958350 0.176970 -0.518390
O38   O     O_R   0.318470 0.958350 0.823030 -0.516992
O39   O     O_R   0.181530 0.458350 0.176970 -0.517380
O40   O     O_R   0.818470 0.458350 0.823030 -0.519572
O41   O     O_R   0.788610 0.044480 0.334450 -0.515037
O42   O     O_R   0.211390 0.044480 0.665550 -0.526092
O43   O     O_R   0.288610 0.544480 0.334450 -0.512734
O44   O     O_R   0.711390 0.544480 0.665550 -0.536466
O45   O     O_R   0.766630 0.293670 0.326970 -0.486051
O46   O     O_R   0.233370 0.293670 0.673030 -0.491011
O47   O     O_R   0.266630 0.793670 0.326970 -0.480829
O48   O     O_R   0.733370 0.793670 0.673030 -0.498152
O49   O     O_R   0.670730 0.410640 0.330640 -0.539832
O50   O     O_R   0.329270 0.410640 0.669360 -0.541694
O51   O     O_R   0.170730 0.910640 0.330640 -0.542014
O52   O     O_R   0.829270 0.910640 0.669360 -0.552777
N1    N     N_2   0.642252 0.147153 0.982482 -0.514070
H61   H     H_    0.670738 0.202471 0.015218 0.254275
C141  C     C_3   0.663103 0.150426 0.908540 -0.280614
H62   H     H_    0.720036 0.143170 0.904797 0.143347
H63   H     H_    0.646784 0.236532 0.882450 0.137204
H64   H     H_    0.639590 0.073247 0.879416 0.205166
N2    N     N_2   0.359669 0.154009 0.017052 -0.515841
H65   H     H_    0.332874 0.212531 0.984343 0.257442
C142  C     C_3   0.339217 0.156832 0.091083 -0.280308
H66   H     H_    0.282191 0.151275 0.095191 0.142093
H67   H     H_    0.357417 0.241986 0.116345 0.143215
H68   H     H_    0.361215 0.078405 0.120793 0.201244
N3    N     N_2   0.120795 0.717470 0.996213 -0.526722
H69   H     H_    0.136168 0.724742 0.943813 0.259002
C143  C     C_3   0.165688 0.643383 0.038901 -0.255489
H70   H     H_    0.219117 0.648416 0.017823 0.142982
H71   H     H_    0.146625 0.548893 0.038404 0.161763
H72   H     H_    0.166022 0.675609 0.094372 0.188770
N4    N     N_2   0.841228 0.627266 0.012680 -0.505369
H73   H     H_    0.813223 0.679202 0.977089 0.250854
C144  C     C_3   0.817233 0.636867 0.085474 -0.285020
H74   H     H_    0.760389 0.627675 0.087378 0.147665
H75   H     H_    0.830577 0.726274 0.108284 0.126046
H76   H     H_    0.840862 0.565089 0.119424 0.199549
N5    N     N_2   0.652324 0.001275 0.594442 -0.516238
H77   H     H_    0.639657 0.938053 0.633185 0.277418
C145  C     C_3   0.661381 0.121856 0.622576 -0.296030
H78   H     H_    0.617781 0.142835 0.658609 0.157111
H79   H     H_    0.661576 0.189600 0.578454 0.164613
H80   H     H_    0.710506 0.128180 0.653355 0.137986
N6    N     N_2   0.361890 0.820167 0.424158 -0.503348
H81   H     H_    0.373283 0.730943 0.436112 0.265155
C146  C     C_3   0.391195 0.875289 0.359537 -0.210560
H82   H     H_    0.387940 0.810916 0.314605 0.181607
H83   H     H_    0.446065 0.895355 0.365280 0.165948
H84   H     H_    0.366219 0.962598 0.344957 0.143103
N7    N     N_2   0.138421 0.350964 0.571850 -0.518299
H85   H     H_    0.135022 0.266445 0.595484 0.289262
C147  C     C_3   0.112754 0.448188 0.615212 -0.277011
H86   H     H_    0.057214 0.431595 0.626017 0.186950
H87   H     H_    0.119220 0.536414 0.587096 0.157552
H88   H     H_    0.140258 0.452059 0.667028 0.167364
N8    N     N_2   0.812396 0.208123 0.446852 -0.471666
H89   H     H_    0.815268 0.139563 0.484478 0.247171
C148  C     C_3   0.876287 0.221639 0.406521 -0.224150
H90   H     H_    0.871359 0.189082 0.351596 0.206650
H91   H     H_    0.916737 0.163234 0.430328 0.096328
H92   H     H_    0.891922 0.318229 0.400529 0.153283
F1    F     F_    0.618955 0.831800 0.865275 -0.648872
F2    F     F_    0.381632 0.836615 0.135622 -0.661443
F3    F     F_    0.119824 0.342660 0.867964 -0.639290
F4    F     F_    0.879201 0.329599 0.131844 -0.653854

loop_
_geom_bond_atom_site_label_1
_geom_bond_atom_site_label_2
_ccdc_geom_bond_type
C99   C103  A    
C124  O8    A    
C133  C137  S    
C129  H33   S    
C146  H83   S    
Cr11  O15   S    
C145  H78   S    
C73   C93   A    
C136  C140  S    
C132  H36   S    
C47   O35   A    
C75   C95   A    
C112  H32   S    
N7    H85   S    
C135  C139  S    
C90   O38   A    
C84   C112  A    
C71   H11   S    
C79   C99   A    
C55   C59   A    
C5    C6    S    
N2    H65   S    
C100  C104  A    
C142  H68   S    
Cr2   O46   S    
C9    C13   A    
C91   O3    A    
C131  C140  S    
C3    O23   A    
Cr7   O19   S    
C50   C90   S    
C66   C72   A    
C12   C16   A    
C1    O21   A    
C88   H16   S    
C43   H59   S    
C87   C115  A    
C80   C84   A    
C92   O40   A    
C59   C60   A    
C8    C135  S    
C126  O14   A    
C70   H10   S    
C56   C123  S    
C147  H87   S    
C120  O48   A    
C123  O11   A    
C32   C34   A    
C94   N6    S    
C78   C82   A    
C147  H86   S    
C11   C27   A    
C16   C20   A    
Cr3   O47   S    
C133  N1    S    
C129  C133  S    
C72   H12   S    
Cr7   O51   S    
C90   O2    A    
Cr3   O3    S    
C67   C69   A    
C107  H27   S    
Cr8   O28   S    
C105  H25   S    
C5    C137  S    
C118  O46   A    
C54   C61   A    
C29   C35   A    
Cr10  O18   S    
C30   C36   A    
C8    C140  S    
C85   H13   S    
C5    H37   S    
C48   O36   A    
C76   C96   A    
C8    H40   S    
C143  H71   S    
C69   C70   A    
Cr6   O6    S    
Cr1   O21   S    
C122  O10   A    
C73   C77   A    
C103  C107  A    
C44   H60   S    
C68   H8    S    
C75   C79   A    
C131  H35   S    
C79   C83   A    
C6    C138  S    
C100  H20   S    
C101  H21   S    
C21   C49   A    
C7    C8    S    
C104  H24   S    
C132  C139  S    
C21   C25   A    
C127  O43   A    
C145  H79   S    
C29   F1    S    
C53   C122  S    
C18   C42   A    
C114  C126  S    
C141  H64   S    
Cr2   O18   S    
C32   F4    S    
C59   C67   A    
C85   C93   A    
Cr11  O19   S    
C124  O12   A    
C87   C95   A    
C77   C97   A    
C132  C136  S    
C84   C116  A    
Cr3   O43   S    
N3    H69   S    
C4    O24   A    
C1    C12   S    
C11   C15   A    
C2    C11   S    
C20   C44   A    
Cr10  O38   S    
C148  H91   S    
C87   H15   S    
C48   C140  S    
C83   C115  A    
C27   H47   S    
C46   O34   A    
C10   C14   A    
C17   C49   A    
Cr4   O4    S    
C144  H75   S    
C1    O25   A    
C128  O16   A    
Cr6   O30   S    
C111  H31   S    
N5    H77   S    
C95   N7    S    
C126  O42   A    
Cr8   O52   S    
N1    C141  S    
C110  H30   S    
C54   C121  S    
Cr5   O49   S    
C47   C139  S    
Cr12  O40   S    
C129  C130  S    
C109  H29   S    
Cr10  O34   S    
Cr5   O17   S    
C121  O5    A    
C24   C28   A    
C67   H7    S    
C141  H62   S    
C15   C31   A    
Cr7   O27   S    
C16   C32   A    
Cr2   O42   S    
C13   C17   A    
Cr9   O17   S    
C85   C113  A    
C7    C136  S    
N6    C146  S    
C57   C58   A    
C34   H50   S    
C142  H67   S    
Cr11  O11   S    
C37   C41   A    
C61   C62   A    
C130  C134  S    
C63   C64   A    
C98   H18   S    
C40   C44   A    
C23   H43   S    
N4    H73   S    
Cr8   O32   S    
Cr1   O45   S    
Cr3   O19   S    
C4    C9    S    
C106  H26   S    
Cr12  O20   S    
C24   C52   A    
C119  O47   A    
C88   C96   A    
Cr10  O14   S    
Cr10  O10   S    
C74   C94   A    
C86   H14   S    
C48   O32   A    
C9    C25   A    
C91   O39   A    
C15   C19   A    
Cr4   O44   S    
C89   O37   A    
C12   C28   A    
C13   C29   A    
C6    C133  S    
C96   N8    S    
Cr11  O35   S    
C24   H44   S    
Cr1   O17   S    
C123  O7    A    
C51   C91   S    
C2    O22   A    
C143  H70   S    
Cr8   O20   S    
C92   O4    A    
C42   H58   S    
C22   C50   A    
C117  O49   A    
C73   C120  S    
C127  O15   A    
C37   H55   S    
C7    H39   S    
C75   C118  S    
C107  C111  A    
C125  O13   A    
C30   F2    S    
C19   C43   A    
C147  H88   S    
N7    C147  S    
Cr9   O37   S    
Cr4   O24   S    
N8    H89   S    
C76   C80   A    
Cr2   O2    S    
C65   H5    S    
C45   O33   A    
N6    H81   S    
C53   C57   A    
Cr11  O39   S    
C108  C112  A    
C144  H74   S    
C77   C81   A    
C103  H23   S    
C4    O28   A    
C28   H48   S    
Cr8   O8    S    
C81   C109  A    
Cr12  O12   S    
C54   C58   A    
C83   C111  A    
C52   C92   S    
C46   O30   A    
C131  C132  S    
C104  C108  A    
C18   C50   A    
C89   O1    A    
C31   F3    S    
C55   C124  S    
Cr9   O33   S    
C135  N3    S    
Cr4   O20   S    
C57   C65   A    
C76   C117  S    
C93   N5    S    
Cr1   O41   S    
C36   C38   A    
C98   C102  A    
C47   O31   A    
C141  H63   S    
C105  C109  A    
Cr6   O50   S    
Cr12  O36   S    
C56   C60   A    
C71   C72   A    
Cr5   O5    S    
C60   C68   A    
C22   C26   A    
C81   C113  A    
C121  O9    A    
C130  C137  S    
C99   H19   S    
C3    O27   A    
N4    C144  S    
Cr9   O13   S    
C146  H82   S    
C14   C18   A    
C97   H17   S    
C148  H90   S    
C74   C119  S    
C33   C39   A    
C38   H56   S    
C34   C40   A    
C82   C110  A    
C35   C37   A    
C69   H9    S    
C38   C42   A    
C144  H76   S    
C131  C135  S    
C113  C125  S    
C115  C127  S    
C108  H28   S    
C143  H72   S    
Cr3   O23   S    
C136  N4    S    
C86   C94   A    
C128  O44   A    
Cr12  O16   S    
C58   C66   A    
C119  O51   A    
C129  C138  S    
C120  O52   A    
Cr5   O25   S    
C78   C98   A    
C31   C33   A    
C23   C27   A    
N1    H61   S    
C74   C78   A    
C46   C138  S    
C41   H57   S    
C10   C26   A    
C80   C100  A    
Cr9   O9    S    
C14   C30   A    
C26   H46   S    
C101  C105  A    
C5    C134  S    
C40   H54   S    
Cr6   O26   S    
C145  H80   S    
Cr7   O7    S    
C82   C114  A    
Cr1   O1    S    
C2    O26   A    
C39   C43   A    
C134  N2    S    
C65   C71   A    
C62   H2    S    
N8    C148  S    
C88   C116  A    
C117  O45   A    
C53   C62   A    
C23   C51   A    
C118  O50   A    
C55   C64   A    
C6    H38   S    
C45   C137  S    
C142  H66   S    
C56   C63   A    
Cr5   O29   S    
C125  O41   A    
C68   C70   A    
Cr7   O31   S    
N3    C143  S    
C146  H84   S    
C45   O29   A    
C66   H6    S    
Cr6   O18   S    
C148  H92   S    
N2    C142  S    
C122  O6    A    
C49   C89   S    
C61   H1    S    
C134  C138  S    
C130  H34   S    
C102  H22   S    
C64   H4    S    
C86   C114  A    
C21   H41   S    
C63   H3    S    
C20   C52   A    
C3    C10   S    
C7    C139  S    
C35   H51   S    
C39   H53   S    
C33   H49   S    
N5    C145  S    
C102  C106  A    
Cr4   O48   S    
C17   C41   A    
C25   H45   S    
C19   C51   A    
Cr2   O22   S    
C106  C110  A    
C116  C128  S    
C22   H42   S    
C36   H52   S    
C97   C101  A    
