data_mof_unit_19414.cif
_audit_creation_date              2013-03-05T16:12:34-0500
_audit_creation_method            fapswitch 2.2
_symmetry_space_group_name_H-M    P1
_symmetry_Int_Tables_number       1
_space_group_crystal_system       triclinic
_cell_length_a                    8.326746
_cell_length_b                    16.278126
_cell_length_c                    18.978087
_cell_angle_alpha                 112.092004
_cell_angle_beta                  91.654195
_cell_angle_gamma                 83.205661
_cell_volume                      2366.42220797

loop_
_atom_site_label
_atom_site_type_symbol
_atom_site_description
_atom_site_fract_x
_atom_site_fract_y
_atom_site_fract_z
_atom_type_partial_charge
P1    P     P_3+3 0.586140 0.411610 0.321630 0.513418
O1    O     O_2   0.405910 0.437000 0.315050 -0.277143
O2    O     O_3   0.650250 0.445090 0.405140 -0.414788
O3    O     O_3   0.110870 0.602570 0.387980 -0.315441
O4    O     O_2   0.190914 0.542878 0.247326 -0.355060
O5    O     O_3   0.610857 0.294909 0.279754 -0.568021
O6    O     O_3   0.118762 0.714847 0.305688 -0.485918
H1    H     H_    0.938715 0.781215 0.387653 0.056824
C1    C     C_3   0.037510 0.871369 0.346720 -0.868146
H2    H     H_    0.133033 0.886558 0.390003 0.276151
H3    H     H_    0.084461 0.872809 0.292970 0.262139
P2    P     P_3+3 0.070040 0.709050 0.593050 0.457492
P3    P     P_3+3 0.494466 0.765307 0.454174 0.457494
O7    O     O_2   0.240060 0.720390 0.573650 -0.362516
O8    O     O_3   0.508300 0.651290 0.432440 -0.390121
O9    O     O_2   0.364439 0.810077 0.516918 -0.344320
O10   O     O_3   0.073901 0.739785 0.691842 -0.578551
O11   O     O_3   0.413930 0.787975 0.376456 -0.506041
C2    C     C_3   0.516291 0.740267 0.313265 0.507186
H4    H     H_    0.509224 0.667250 0.295370 0.107822
H5    H     H_    0.643212 0.755088 0.326725 -0.050922
C3    C     C_3   0.462631 0.768181 0.247411 -0.944809
H6    H     H_    0.344010 0.744313 0.225765 0.282425
H7    H     H_    0.450733 0.842341 0.266310 0.255247
C4    C     C_3   0.580686 0.750746 0.677058 0.344031
H8    H     H_    0.706198 0.755687 0.662901 0.071670
H9    H     H_    0.515509 0.718788 0.624015 0.128928
C5    C     C_3   0.490672 0.842932 0.722815 -0.404100
H10   H     H_    0.535596 0.867852 0.782649 0.206119
H11   H     H_    0.359382 0.835021 0.726266 0.176814
Ba1   Ba    Ba6+2 0.334020 0.539200 0.472300 1.607712
C6    C     C_3   0.561121 0.257414 0.329629 0.376900
H12   H     H_    0.445754 0.293750 0.358666 0.086494
H13   H     H_    0.657195 0.259688 0.372139 0.109594
C7    C     C_3   0.535282 0.159942 0.282620 -0.424422
H14   H     H_    0.419363 0.159070 0.251528 0.222133
H15   H     H_    0.631775 0.128620 0.237940 0.250515
C8    C     C_3   0.139313 0.666228 0.708734 0.446414
H16   H     H_    0.264335 0.644783 0.686225 0.060225
H17   H     H_    0.065447 0.609628 0.684724 0.147482
C9    C     C_3   0.141352 0.692889 0.794189 -1.000269
H18   H     H_    0.219076 0.747536 0.820308 0.263046
H19   H     H_    0.189653 0.634739 0.808126 0.219502
H20   H     H_    0.016761 0.715799 0.818041 0.275859
P4    P     P_3+3 0.603540 0.588460 0.678390 0.477756
O12   O     O_2   0.783780 0.563030 0.685000 -0.329799
O13   O     O_3   0.539430 0.554980 0.594880 -0.422187
O14   O     O_3   0.078810 0.397510 0.612040 -0.357847
O15   O     O_3   0.586546 0.704021 0.725395 -0.601162
P5    P     P_3+3 0.696879 0.234602 0.550363 0.476670
O16   O     O_3   0.165590 0.389880 0.444220 -0.374983
O17   O     O_3   0.681380 0.348790 0.567580 -0.334493
O18   O     O_2   0.823287 0.188147 0.485614 -0.396805
O19   O     O_3   0.784344 0.213228 0.627874 -0.572840
Ba2   Ba    Ba6+2 0.855780 0.460880 0.527720 1.606068
P6    P     P_3+3 0.064093 0.612939 0.301862 0.505019
C10   C     C_3   0.985677 0.779953 0.332892 0.386099
H21   H     H_    0.889880 0.767314 0.289450 0.035463
H22   H     H_    0.933175 0.923600 0.367869 0.209686
O20   O     O_3   0.024090 0.610190 0.555810 -0.406402
C11   C     C_3   0.055791 0.260758 0.266724 0.616831
H23   H     H_    0.939591 0.294487 0.296495 0.023410
C12   C     C_3   0.016056 0.195357 0.186369 -0.148035
H24   H     H_    0.926165 0.232081 0.161561 0.079458
H25   H     H_    0.124987 0.174436 0.148576 0.149196
P7    P     P_3+3 0.131852 0.275738 0.406575 0.462359
O21   O     O_2   0.949630 0.279650 0.426400 -0.363969
O22   O     O_3   0.150161 0.216033 0.307207 -0.606148
H26   H     H_    0.554087 0.738565 0.200331 0.213441
C13   C     C_3   0.678183 0.249463 0.691934 1.011635
H27   H     H_    0.552479 0.267103 0.677341 -0.182632
C14   C     C_3   0.670909 0.180181 0.728649 -1.112421
H28   H     H_    0.649966 0.212088 0.792194 0.278310
H29   H     H_    0.566210 0.141264 0.704943 0.216640
H30   H     H_    0.786007 0.133192 0.716405 0.262814
P8    P     P_3+3 0.119770 0.408174 0.705332 0.499592
C15   C     C_3   0.170323 0.241191 0.686513 0.450531
H31   H     H_    0.294260 0.255576 0.679056 0.003085
O23   O     O_2   0.004371 0.489889 0.754709 -0.378594
O24   O     O_3   0.061616 0.317908 0.722802 -0.427628
H32   H     H_    0.123549 0.202859 0.629603 0.112658
H33   H     H_    0.282852 0.129309 0.712773 0.208924
C16   C     C_3   0.183275 0.184650 0.735011 -0.966611
H34   H     H_    0.068135 0.155722 0.733733 0.267376
H35   H     H_    0.209770 0.226139 0.794817 0.271170
C17   C     C_R   0.527225 0.555741 0.812021 -0.324909
H36   H     H_    0.584928 0.614027 0.844727 0.135990
C18   C     C_R   0.504080 0.536460 0.733373 0.391211
C19   C     C_R   0.394815 0.427360 0.798556 -0.267156
H37   H     H_    0.369805 0.372911 0.814279 0.134505
C20   C     C_R   0.326252 0.432019 0.731690 0.155930
C21   C     C_R   0.788715 0.583929 0.206005 -0.379748
H38   H     H_    0.812793 0.637883 0.189485 0.135904
C22   C     C_R   0.859177 0.579863 0.272668 0.179285
C23   C     C_R   0.660303 0.453012 0.191203 -0.307065
H39   H     H_    0.603445 0.394622 0.157688 0.158675
C24   C     C_R   0.686008 0.469249 0.269101 0.270791
C25   C     C_R   0.486442 0.495121 0.845375 0.142712
C26   C     C_R   0.394545 0.478472 0.695422 -0.392426
H40   H     H_    0.350896 0.475502 0.640384 0.140091
C27   C     C_R   0.697412 0.515753 0.159242 0.128316
C28   C     C_R   0.791645 0.530889 0.308286 -0.271442
H41   H     H_    0.831961 0.535096 0.364050 0.154518
C29   C     C_R   0.283450 0.451267 0.952136 -0.185778
C30   C     C_R   0.196926 0.415197 0.992647 -0.121662
C31   C     C_R   0.241647 0.425541 0.065595 -0.083954
C32   C     C_R   0.377605 0.467139 0.095446 -0.133294
C33   C     C_R   0.489274 0.484560 0.049668 0.056919
C34   C     C_R   0.438910 0.478343 0.974767 0.084705
C35   C     C_R   0.643951 0.510499 0.078625 -0.066727
C36   C     C_R   0.745460 0.532329 0.029751 0.091817
C37   C     C_R   0.695156 0.526421 0.954865 0.085364
C38   C     C_R   0.540091 0.500552 0.925937 -0.049078
C39   C     C_R   0.901519 0.558385 0.052357 -0.186475
C40   C     C_R   0.988745 0.594488 0.012204 -0.110226
C41   C     C_R   0.943925 0.584967 0.939428 -0.139009
C42   C     C_R   0.807986 0.543496 0.909141 -0.064526
H42   H     H_    0.219937 0.461164 0.905590 0.153195
H43   H     H_    0.084528 0.388719 0.970878 0.161034
H44   H     H_    0.164770 0.407064 0.100860 0.170515
H45   H     H_    0.392219 0.485854 0.155045 0.183645
H46   H     H_    0.964574 0.547874 0.098850 0.154680
H47   H     H_    0.101789 0.620166 0.034041 0.141123
H48   H     H_    0.021400 0.603547 0.904576 0.146891
H49   H     H_    0.796248 0.523454 0.849125 0.212635
C43   C     C_2   0.397072 0.242335 0.491036 -0.465577
C44   C     C_R   0.798258 0.750929 0.516215 -0.510467
C45   C     C_2   0.199072 0.133369 0.451462 -0.244503
C46   C     C_2   0.243164 0.212489 0.457107 0.303230
C47   C     C_2   0.500191 0.192565 0.518309 0.212700
C48   C     C_3   0.444246 0.113232 0.530334 -0.073850
C49   C     C_3   0.306532 0.070822 0.478105 -0.003683
C50   C     C_2   0.579643 0.045676 0.535200 -0.159212
C51   C     C_2   0.597050 0.958919 0.489360 -0.161157
C52   C     C_R   0.858878 0.923348 0.541784 -0.023689
C53   C     C_R   0.716980 0.894161 0.505763 -0.036827
C54   C     C_R   0.969622 0.869492 0.567225 0.051687
C55   C     C_R   0.937186 0.782354 0.555709 0.238793
C56   C     C_R   0.687138 0.806441 0.492031 0.169612
H50   H     H_    0.090353 0.109275 0.420896 0.189969
H51   H     H_    0.431329 0.303521 0.488457 0.146985
H52   H     H_    0.771976 0.684447 0.507903 0.179573
H53   H     H_    0.660673 0.068189 0.582184 0.171293
H54   H     H_    0.516317 0.934703 0.442415 0.175582
N1    N     N_2   0.507050 0.908052 0.688982 -0.085063
H55   H     H_    0.410340 0.957233 0.704367 0.195760
C57   C     C_3   0.658909 0.946751 0.703809 -0.864378
H56   H     H_    0.661003 0.992235 0.672613 0.244884
H57   H     H_    0.764255 0.894473 0.683852 0.237509
H58   H     H_    0.670960 0.985575 0.766075 0.255327
N2    N     N_2   0.530251 0.108435 0.330731 -0.122011
H59   H     H_    0.429347 0.075782 0.323912 0.208763
C58   C     C_3   0.678361 0.053126 0.333302 -0.769209
H60   H     H_    0.668192 0.026470 0.378642 0.226733
H61   H     H_    0.782968 0.092559 0.346033 0.300036
H62   H     H_    0.700027 0.996138 0.278096 0.254009
N3    N     N_R   0.148815 0.326106 0.256421 0.200995
O25   O     O_R   0.078544 0.406383 0.268303 -0.427600
O26   O     O_R   0.286802 0.299365 0.219722 -0.412572
N4    N     N_R   0.952093 0.113337 0.182400 0.263717
O27   O     O_R   0.915826 0.057181 0.114973 -0.374396
O28   O     O_R   0.956086 0.087887 0.240145 -0.403725
N5    N     N_R   0.736264 0.331187 0.744467 0.233403
O29   O     O_R   0.746318 0.394792 0.720166 -0.357300
O30   O     O_R   0.797940 0.337623 0.809844 -0.417526
N6    N     N_2   0.108057 0.905220 0.607402 -0.067101
H63   H     H_    0.106377 0.915013 0.664387 0.164389
C59   C     C_3   0.164264 0.976756 0.590015 -0.772399
H64   H     H_    0.284094 0.990906 0.614444 0.231359
H65   H     H_    0.077021 0.038409 0.612645 0.225779
H66   H     H_    0.178102 0.955683 0.527504 0.262502

loop_
_geom_bond_atom_site_label_1
_geom_bond_atom_site_label_2
_geom_bond_distance
_ccdc_geom_bond_type
O14   Ba2   2.773175 S    
P7    O22   1.768353 S    
C12   H25   1.110798 S    
N3    O25   1.306088 A    
C9    H18   1.114397 S    
O14   P8    1.740424 S    
O4    P6    1.541851 D    
O5    C6    1.398905 S    
C23   H39   1.080034 S    
P8    O23   1.543618 D    
O7    Ba1   2.878287 S    
C13   N5    1.457520 S    
C39   C40   1.386873 A    
C52   C53   1.389602 A    
C15   H31   1.109227 S    
C33   C34   1.440177 A    
C4    C5    1.535902 S    
P6    C22   1.856524 S    
C5    N1    1.451112 S    
P5    O19   1.754579 S    
C44   C56   1.404622 A    
P3    O11   1.747873 S    
C12   N4    1.470456 S    
C5    H10   1.121969 S    
N5    O30   1.300884 A    
O11   C2    1.403433 S    
C53   C56   1.403177 A    
C29   C34   1.419469 A    
C17   C18   1.417319 A    
C31   C32   1.384521 A    
C43   C47   1.336676 D    
C40   C41   1.376147 A    
P1    Ba1   3.427092 S    
C41   C42   1.385179 A    
P1    O1    1.523104 D    
C11   C12   1.549657 S    
C35   C36   1.437096 A    
C29   C30   1.387985 A    
P5    C47   1.848014 S    
C57   H56   1.110120 S    
O2    Ba2   2.798434 S    
C59   H66   1.109403 S    
N5    O29   1.293682 A    
O12   Ba2   2.857961 S    
P5    O17   1.751354 S    
N2    H59   1.026084 S    
C13   H27   1.107574 S    
C44   C55   1.401157 A    
C15   H32   1.110770 S    
C58   H61   1.110215 S    
C1    H2    1.106607 S    
C3    H26   1.113137 S    
O16   Ba2   2.941899 S    
C24   C28   1.394033 A    
O17   Ba2   2.781884 S    
C34   C38   1.438216 A    
P7    C46   1.817779 S    
C31   H44   1.081605 S    
C59   H65   1.113855 S    
P7    O21   1.562027 D    
N3    O26   1.301740 A    
Ba1   O13   2.797860 S    
Ba2   O20   2.818480 S    
C45   C46   1.345692 D    
N6    C59   1.452863 S    
C9    H19   1.104453 S    
N6    H63   1.032399 S    
C11   H23   1.108779 S    
C7    N2    1.457651 S    
O6    P6    1.746568 S    
C14   H30   1.123958 S    
C45   C49   1.496150 S    
C54   N6    1.422210 S    
N1    C57   1.452425 S    
N1    H55   1.029491 S    
C29   H42   1.070448 S    
P4    O13   1.569735 S    
C8    H16   1.102544 S    
C50   H53   1.078237 S    
P5    O18   1.541778 D    
C40   H47   1.082934 S    
P1    O5    1.750443 S    
O3    Ba1   2.773785 S    
C6    C7    1.537748 S    
P4    C18   1.836127 S    
C8    C9    1.513103 S    
C14   H29   1.121343 S    
P1    C24   1.871280 S    
C17   H36   1.078880 S    
C25   C38   1.553442 S    
C51   C53   1.478240 S    
C43   C46   1.468814 S    
C27   C35   1.554831 S    
P4    O12   1.523392 D    
O1    Ba1   2.857468 S    
P1    O2    1.569735 S    
O16   P7    1.776230 S    
N4    O28   1.307601 A    
Ba1   O20   2.942810 S    
P2    O10   1.749659 S    
C11   N3    1.459432 S    
H1    C10   1.113067 S    
C16   H34   1.112842 S    
O19   C13   1.416547 S    
P4    O15   1.742548 S    
C32   C33   1.412132 A    
C2    C3    1.521498 S    
C21   C22   1.400056 A    
C58   H62   1.109527 S    
O2    Ba1   2.945425 S    
C1    H3    1.112247 S    
P4    Ba2   3.427621 S    
C21   C27   1.420234 A    
C59   H64   1.100426 S    
C16   H35   1.112308 S    
P2    O7    1.522143 D    
P3    O8    1.733319 S    
P2    Ba1   3.437213 S    
C50   C51   1.344227 D    
C9    H20   1.108542 S    
C3    H7    1.115283 S    
C19   C20   1.400828 A    
C32   H45   1.062360 S    
C48   C49   1.543051 S    
C19   H37   1.078975 S    
P3    C56   1.834162 S    
C57   H58   1.119065 S    
C7    H15   1.114335 S    
O13   Ba2   2.946230 S    
C54   C55   1.409528 A    
C15   O24   1.405265 S    
O6    C10   1.400472 S    
C52   C54   1.397637 A    
C41   H48   1.080015 S    
C36   C37   1.441137 A    
C57   H57   1.112302 S    
P8    O24   1.745727 S    
Ba1   O16   2.819239 S    
C14   H28   1.128767 S    
C48   C50   1.505309 S    
Ba2   O21   2.878451 S    
C23   C24   1.415062 A    
O8    Ba1   2.781277 S    
C4    H9    1.104484 S    
C30   C31   1.375991 A    
C43   H51   1.086489 S    
P2    C55   1.851561 S    
C26   H40   1.081533 S    
C19   C25   1.418112 A    
C20   C26   1.372863 A    
C6    H12   1.107823 S    
C2    H4    1.115028 S    
C5    H11   1.122409 S    
C47   C48   1.518857 S    
C4    H8    1.106007 S    
N4    O27   1.314313 A    
C8    H17   1.112158 S    
C11   O22   1.410070 S    
C10   H21   1.109771 S    
C37   C42   1.415350 A    
C42   H49   1.065313 S    
C39   H46   1.071929 S    
C21   H38   1.078088 S    
C33   C35   1.432621 A    
C36   C39   1.419124 A    
C1    C10   1.523561 S    
O10   C8    1.399094 S    
N2    C58   1.449402 S    
C45   H50   1.091971 S    
C28   H41   1.080646 S    
C17   C25   1.432220 A    
C4    O15   1.391346 S    
C18   C26   1.376974 A    
P8    C20   1.821850 S    
C51   H54   1.079360 S    
C12   H24   1.106685 S    
P2    O20   1.584352 S    
C37   C38   1.435173 A    
C22   C28   1.393556 A    
H33   C16   1.111138 S    
P3    O9    1.535008 D    
C15   C16   1.521147 S    
C3    H6    1.114735 S    
C30   H43   1.082385 S    
C13   C14   1.539710 S    
C7    H14   1.115401 S    
Ba1   Ba2   4.587053 S    
C58   H60   1.108869 S    
C1    H22   1.107881 S    
C44   H52   1.081461 S    
O3    P6    1.733921 S    
C23   C27   1.434551 A    
C6    H13   1.113324 S    
C2    H5    1.112993 S    
