data_mof_unit_23106.cif
_audit_creation_date              2012-12-10T17:10:58-0500
_audit_creation_method            fapswitch 2.2
_symmetry_space_group_name_H-M    P1
_symmetry_Int_Tables_number       1
_space_group_crystal_system       triclinic
_cell_length_a                    11.827982
_cell_length_b                    13.098754
_cell_length_c                    13.38777
_cell_angle_alpha                 96.633178
_cell_angle_beta                  75.37404
_cell_angle_gamma                 100.545438
_cell_volume                      1967.83672039

loop_
_atom_site_label
_atom_site_type_symbol
_atom_type_description
_atom_site_fract_x
_atom_site_fract_y
_atom_site_fract_z
_atom_type_partial_charge
C1    C     C_R   0.522781 0.700525 0.498194 0.824493
C2    C     C_R   0.446266 0.458968 0.972231 -0.163981
C3    C     C_R   0.475099 0.444329 0.862860 -0.185233
C4    C     C_R   0.538929 0.469588 0.025555 0.026523
C5    C     C_R   0.654399 0.451478 0.970375 -0.102102
C6    C     C_R   0.673777 0.416113 0.863877 0.026400
C7    C     C_R   0.581807 0.407889 0.813704 0.645989
C8    C     C_R   0.520310 0.500003 0.132022 -0.201161
C9    C     C_R   0.722084 0.488415 0.132195 0.025271
C10   C     C_R   0.392243 0.457389 0.805987 -0.159728
C11   C     C_R   0.464914 0.185445 0.504427 -0.319895
C12   C     C_R   0.434587 0.484078 0.694921 0.865784
C13   C     C_R   0.537255 0.814604 0.496165 -0.204735
C14   C     C_R   0.644537 0.986449 0.533336 0.079824
C15   C     C_R   0.632558 0.878002 0.528331 0.538555
C16   C     C_R   0.454368 0.860658 0.464555 0.083674
C17   C     C_R   0.451171 0.967984 0.489710 -0.058623
C18   C     C_R   0.552748 0.032593 0.514040 -0.138277
C19   C     C_R   0.559861 0.141221 0.516893 0.577448
C20   C     C_R   0.357943 0.121075 0.499064 0.503975
C21   C     C_R   0.349392 0.012791 0.492397 0.059444
C22   C     C_R   0.948421 0.611272 0.584944 0.488719
C23   C     C_R   0.477908 0.299266 0.500749 0.917896
C24   C     C_R   0.828693 0.595213 0.584809 0.155544
C25   C     C_R   0.854383 0.452075 0.460622 0.753715
C26   C     C_R   0.975628 0.459180 0.465842 -0.212791
C27   C     C_R   0.023488 0.540892 0.529433 -0.193587
C28   C     C_R   0.142841 0.548419 0.539162 0.295756
C29   C     C_R   0.170793 0.402576 0.415369 0.363071
C30   C     C_R   0.049547 0.387805 0.409904 0.101911
C31   C     C_R   0.565037 0.504367 0.303039 0.804016
C32   C     C_R   0.745769 0.466125 0.024319 0.641354
C33   C     C_R   0.605276 0.499228 0.187747 -0.184360
C34   C     C_R   0.270533 0.447319 0.858595 -0.079227
C35   C     C_R   0.239194 0.446492 0.966505 0.615958
C36   C     C_R   0.324785 0.455939 0.022876 0.500230
Cu1   Cu    Cu3+1 0.386470 0.492430 0.492410 0.947086
Cu2   Cu    Cu3+1 0.613530 0.507570 0.507590 1.053497
H1    H     H_    0.440248 0.527404 0.174165 0.244633
N1    N     N_R   0.215880 0.481050 0.481000 -0.199941
N2    N     N_R   0.784100 0.518950 0.519000 -0.245178
O1    O     O_R   0.419710 0.645650 0.494620 -0.600684
O2    O     O_R   0.611450 0.658430 0.507430 -0.538431
O3    O     O_R   0.357340 0.490460 0.641450 -0.612458
O4    O     O_R   0.549080 0.503250 0.654260 -0.560501
O5    O     O_R   0.388550 0.341570 0.492570 -0.564259
O6    O     O_R   0.580290 0.354350 0.505380 -0.424608
O7    O     O_R   0.450920 0.496750 0.345740 -0.595631
O8    O     O_R   0.642660 0.509540 0.358550 -0.554456
C37   C     C_3   0.822854 0.500070 0.185211 -0.636181
H2    H     H_    0.828277 0.574979 0.233255 0.217479
H3    H     H_    0.809228 0.433506 0.233011 0.270170
H4    H     H_    0.910525 0.500640 0.130341 0.302797
F1    F     F_    0.260174 0.163271 0.502973 -0.671312
C38   C     C_3   0.753023 0.049558 0.564321 -0.607966
H5    H     H_    0.811628 0.000957 0.582640 0.248420
H6    H     H_    0.807704 0.096001 0.499736 0.245024
H7    H     H_    0.725794 0.100957 0.635117 0.251424
C39   C     C_3   0.227615 0.948525 0.501346 -0.670276
H8    H     H_    0.157484 0.992088 0.548075 0.270778
H9    H     H_    0.209600 0.927067 0.423584 0.223503
H10   H     H_    0.218821 0.878087 0.542882 0.225818
F2    F     F_    0.717326 0.834207 0.551384 -0.687936
C40   C     C_3   0.391500 0.802088 0.384061 -0.746522
H11   H     H_    0.447192 0.748366 0.332399 0.222954
H12   H     H_    0.305644 0.756232 0.420764 0.244085
H13   H     H_    0.377122 0.856352 0.332333 0.226543
C41   C     C_3   0.185860 0.629926 0.616946 -0.647061
H14   H     H_    0.121803 0.625150 0.693239 0.232452
H15   H     H_    0.268204 0.623053 0.634856 0.237940
H16   H     H_    0.197680 0.708441 0.589296 0.236884
C42   C     C_3   0.246503 0.328363 0.345759 -0.660519
H17   H     H_    0.340597 0.342366 0.341161 0.257213
H18   H     H_    0.214274 0.248223 0.370304 0.244146
H19   H     H_    0.240623 0.329954 0.264711 0.247599
F3    F     F_    0.988577 0.698416 0.639514 -0.688302
C43   C     C_3   0.998274 0.295781 0.344839 -0.663754
H20   H     H_    0.057022 0.238631 0.308425 0.196759
H21   H     H_    0.920930 0.249443 0.394624 0.269650
H22   H     H_    0.972462 0.324783 0.280397 0.278109
C44   C     C_3   0.753827 0.661485 0.665707 -0.528793
H23   H     H_    0.748114 0.636071 0.743426 0.171521
H24   H     H_    0.795801 0.744459 0.664011 0.280045
H25   H     H_    0.663840 0.660497 0.659077 0.244166
C45   C     C_3   0.789927 0.384716 0.801639 -0.660323
H26   H     H_    0.787439 0.354143 0.721274 0.256325
H27   H     H_    0.861162 0.453522 0.794654 0.247783
H28   H     H_    0.812784 0.322395 0.838977 0.255275
F4    F     F_    0.803522 0.378090 0.399401 -0.657999
F5    F     F_    0.858758 0.457186 0.973452 -0.675062
C46   C     C_3   0.172179 0.430292 0.802409 -0.646055
H29   H     H_    0.084051 0.404083 0.853158 0.291170
H30   H     H_    0.167512 0.504054 0.772959 0.219650
H31   H     H_    0.187144 0.368795 0.738261 0.240435
F6    F     F_    0.283061 0.448461 0.126032 -0.677129
F7    F     F_    0.123763 0.437341 0.019015 -0.621110
F8    F     F_    0.590702 0.351868 0.720750 -0.636748
F9    F     F_    0.659964 0.204921 0.529994 -0.613988

loop_
_geom_bond_atom_site_label_1
_geom_bond_atom_site_label_2
_ccdc_geom_bond_type
C38   H5    S    
C14   C18   A    
C35   C36   A    
C22   F3    S    
C4    C8    A    
C44   H23   S    
Cu2   O8    S    
C43   H20   S    
C11   C19   A    
C26   C27   A    
Cu1   Cu2   S    
C6    C45   S    
C28   C41   S    
C21   C39   S    
Cu1   N1    S    
C3    C7    A    
C5    C6    A    
C45   H28   S    
C28   N1    A    
C34   C35   A    
Cu1   O1    S    
C34   C46   S    
Cu2   O4    S    
C9    C32   A    
C30   C43   S    
C1    O2    A    
C32   F5    S    
C41   H14   S    
C37   H3    S    
C31   C33   S    
C35   F7    S    
C8    H1    S    
C42   H17   S    
C5    C32   A    
C45   H27   S    
C14   C38   S    
C39   H8    S    
C23   O5    A    
C9    C33   A    
C24   N2    A    
C31   O8    A    
C42   H19   S    
C44   H24   S    
C19   F9    S    
C37   H2    S    
C43   H21   S    
C11   C20   A    
C39   H9    S    
C37   H4    S    
C23   O6    A    
C40   H13   S    
Cu2   N2    S    
C42   H18   S    
C25   N2    A    
C46   H29   S    
C18   C19   A    
C25   C26   A    
C45   H26   S    
C17   C21   A    
C40   H12   S    
C2    C4    A    
C24   C44   S    
C29   C30   A    
C46   H30   S    
C17   C18   A    
C10   C34   A    
Cu1   O7    S    
Cu2   O6    S    
C10   C12   S    
C20   F1    S    
C26   C30   A    
C22   C27   A    
C13   C15   A    
C22   C24   A    
C13   C16   A    
C1    C13   S    
C44   H25   S    
C43   H22   S    
C2    C36   A    
C39   H10   S    
C7    F8    S    
C9    C37   S    
C12   O4    A    
C6    C7    A    
C25   F4    S    
C31   O7    A    
C40   H11   S    
C29   C42   S    
Cu1   O3    S    
C38   H6    S    
C2    C3    A    
Cu2   O2    S    
C12   O3    A    
C3    C10   A    
C46   H31   S    
C36   F6    S    
C16   C17   A    
C41   H16   S    
C29   N1    A    
C11   C23   S    
C8    C33   A    
C1    O1    A    
C4    C5    A    
C20   C21   A    
C41   H15   S    
C38   H7    S    
C27   C28   A    
C15   F2    S    
C14   C15   A    
C16   C40   S    
Cu1   O5    S    
