data_mof_unit_18852.cif
_audit_creation_date              2012-12-10T16:58:22-0500
_audit_creation_method            fapswitch 2.2
_symmetry_space_group_name_H-M    P1
_symmetry_Int_Tables_number       1
_space_group_crystal_system       triclinic
_cell_length_a                    7.739892
_cell_length_b                    8.554529
_cell_length_c                    23.418593
_cell_angle_alpha                 90.998378
_cell_angle_beta                  85.928896
_cell_angle_gamma                 93.726559
_cell_volume                      1543.26090938

loop_
_atom_site_label
_atom_site_type_symbol
_atom_type_description
_atom_site_fract_x
_atom_site_fract_y
_atom_site_fract_z
_atom_type_partial_charge
C1    C     C_R   0.545934 0.794858 0.498510 0.976134
C2    C     C_R   0.647838 0.506194 0.292449 -0.201857
C3    C     C_R   0.356818 0.492058 0.766597 -0.090924
C4    C     C_R   0.643208 0.508335 0.233410 -0.090873
C5    C     C_R   0.516345 0.494587 0.791080 0.317882
C6    C     C_R   0.483689 0.505545 0.208922 0.317811
C7    C     C_2   0.570217 0.958341 0.497647 -0.370468
C8    C     C_2   0.429783 0.041659 0.502353 -0.370468
C9    C     C_R   0.502366 0.499839 0.610635 0.876304
C10   C     C_R   0.497635 0.500166 0.389365 0.876302
C11   C     C_R   0.435574 0.369816 0.120660 0.565391
C12   C     C_R   0.454066 0.205142 0.501490 0.976139
C13   C     C_R   0.564503 0.630300 0.879339 0.565427
C14   C     C_R   0.529022 0.640733 0.120019 0.484230
C15   C     C_R   0.471013 0.359391 0.879978 0.484262
C16   C     C_R   0.552658 0.639557 0.059820 -0.086830
C17   C     C_R   0.447409 0.360554 0.940178 -0.086839
C18   C     C_R   0.494926 0.501738 0.030116 -0.024628
C19   C     C_R   0.505156 0.498369 0.969882 -0.024653
C20   C     C_R   0.426521 0.367353 0.060864 -0.033251
C21   C     C_R   0.573571 0.632753 0.939134 -0.033226
C22   C     C_R   0.632615 0.769914 0.029006 -0.110990
C23   C     C_R   0.671716 0.498932 0.756785 -0.083692
C24   C     C_R   0.367476 0.230189 0.970993 -0.110953
C25   C     C_R   0.645653 0.765176 0.968654 -0.002990
C26   C     C_R   0.354465 0.234919 0.031345 -0.003008
C27   C     C_2   0.722235 0.903013 0.059303 0.492197
C28   C     C_2   0.277858 0.097081 0.940699 0.492233
C29   C     C_2   0.752403 0.891768 0.937439 0.545748
C30   C     C_2   0.247772 0.108300 0.062561 0.545847
C31   C     C_R   0.328315 0.500897 0.243214 -0.083680
C32   C     C_R   0.667549 0.500361 0.697624 -0.210020
C33   C     C_R   0.332468 0.499423 0.302374 -0.210038
C34   C     C_R   0.507575 0.498220 0.672699 -0.040485
C35   C     C_R   0.492435 0.501822 0.327303 -0.040476
C36   C     C_R   0.352176 0.494155 0.707557 -0.201820
H1    H     H_    0.795007 0.501051 0.776052 0.141357
H2    H     H_    0.297221 0.990435 0.506847 0.180911
H3    H     H_    0.014076 0.382801 0.456836 0.191677
H4    H     H_    0.985924 0.617198 0.543164 0.191682
H5    H     H_    0.812600 0.879922 0.091055 0.129555
H6    H     H_    0.187479 0.120162 0.908950 0.129559
H7    H     H_    0.722164 0.013202 0.943547 0.115889
H8    H     H_    0.278109 0.986884 0.056471 0.115934
H9    H     H_    0.205028 0.498569 0.223945 0.141422
H10   H     H_    0.789026 0.503819 0.671552 0.159515
H11   H     H_    0.210990 0.495717 0.328445 0.159501
H12   H     H_    0.227275 0.492084 0.689320 0.162324
H13   H     H_    0.772730 0.508476 0.310691 0.162330
H14   H     H_    0.236844 0.489127 0.793461 0.141442
H15   H     H_    0.763187 0.511499 0.206550 0.141418
H16   H     H_    0.702779 0.009564 0.493153 0.180910
N1    N     N_R   0.480309 0.505849 0.148305 -0.362186
N2    N     N_R   0.519737 0.494276 0.851695 -0.362210
N3    N     N_2   0.950330 0.457950 0.484560 -0.174982
N4    N     N_2   0.049670 0.542050 0.515440 -0.174984
O1    O     O_R   0.389250 0.738570 0.503790 -0.610607
O2    O     O_2   0.594755 0.762722 0.848736 -0.489897
O3    O     O_2   0.552310 0.774595 0.150640 -0.536382
O4    O     O_2   0.447680 0.225541 0.849355 -0.536388
O5    O     O_2   0.692964 0.038384 0.049995 -0.575574
O6    O     O_2   0.307134 0.961714 0.950010 -0.575591
O7    O     O_2   0.877918 0.860543 0.905714 -0.546414
O8    O     O_2   0.122199 0.139481 0.094267 -0.546450
O9    O     O_R   0.610750 0.261430 0.496210 -0.610606
O10   O     O_R   0.678390 0.711620 0.493890 -0.628981
O11   O     O_R   0.321610 0.288380 0.506110 -0.628980
O12   O     O_R   0.355400 0.513520 0.588790 -0.620713
O13   O     O_R   0.644600 0.486480 0.411210 -0.620708
O14   O     O_R   0.644550 0.486570 0.578900 -0.629498
O15   O     O_R   0.355450 0.513430 0.421100 -0.629494
O16   O     O_2   0.405342 0.237395 0.151263 -0.489940
Zn1   Zn    Zn3+2 0.306930 0.518000 0.506610 0.950710
Zn2   Zn    Zn3+2 0.693070 0.482000 0.493390 0.950710

loop_
_geom_bond_atom_site_label_1
_geom_bond_atom_site_label_2
_ccdc_geom_bond_type
C2    C35   A    
O14   Zn2   S    
C2    C4    A    
N3    N4    D    
C31   C33   A    
C26   C30   S    
C10   C35   S    
O11   Zn1   S    
C2    H13   S    
C30   O8    D    
C23   H1    S    
C13   N2    A    
C15   O4    S    
C27   H5    S    
C18   C20   A    
C5    C23   A    
C27   O5    D    
C8    C12   S    
C23   C32   A    
C29   O7    D    
C1    O10   A    
C9    O12   A    
C13   C21   A    
C7    C8    D    
H4    N4    S    
C10   O15   A    
C1    O1    A    
C29   H7    S    
C14   O3    S    
C32   C34   A    
C30   H8    S    
C11   N1    A    
C20   C26   A    
C3    C36   A    
C15   C17   A    
N4    Zn1   S    
C28   H6    S    
C33   C35   A    
C3    H14   S    
C24   C26   A    
C7    H16   S    
C36   H12   S    
C34   C36   A    
C22   C27   S    
C8    H2    S    
C25   C29   S    
C9    C34   S    
C33   H11   S    
C12   O11   A    
C14   C16   A    
C11   C20   A    
C31   H9    S    
C17   C24   A    
C6    N1    S    
C4    C6    A    
O10   Zn2   S    
C10   O13   A    
C5    N2    S    
O13   Zn2   S    
C14   N1    A    
C9    O14   A    
C16   C18   A    
C15   N2    A    
C12   O9    A    
O1    Zn1   S    
O15   Zn1   S    
C21   C25   A    
C11   O16   S    
C18   C19   A    
C6    C31   A    
C13   O2    S    
C4    H15   S    
C17   C19   A    
C19   C21   A    
O12   Zn1   S    
C1    C7    S    
N3    Zn2   S    
C32   H10   S    
H3    N3    S    
O9    Zn2   S    
C24   C28   S    
C16   C22   A    
C3    C5    A    
C22   C25   A    
C28   O6    D    
