data_mof_unit_26993.cif
_audit_creation_date              2012-12-11T15:35:32-0500
_audit_creation_method            fapswitch 2.2
_symmetry_space_group_name_H-M    P1
_symmetry_Int_Tables_number       1
_space_group_crystal_system       triclinic
_cell_length_a                    17.409842
_cell_length_b                    24.130635
_cell_length_c                    14.898136
_cell_angle_alpha                 89.934292
_cell_angle_beta                  124.876769
_cell_angle_gamma                 89.933435
_cell_volume                      5134.65458702

loop_
_atom_site_label
_atom_site_type_symbol
_atom_type_description
_atom_site_fract_x
_atom_site_fract_y
_atom_site_fract_z
_atom_type_partial_charge
C1    C     C_R   0.345244 0.150822 0.909856 -0.070819
C2    C     C_R   0.599018 0.124868 0.909185 -0.018457
C3    C     C_R   0.253623 0.546305 0.303048 -0.138925
C4    C     C_R   0.099164 0.375221 0.909267 -0.034903
C5    C     C_R   0.099018 0.624868 0.909186 -0.018471
C6    C     C_R   0.447933 0.999805 0.638602 -0.020630
C7    C     C_R   0.947932 0.499805 0.638602 -0.020632
C8    C     C_R   0.804529 0.000629 0.362889 0.033379
C9    C     C_R   0.304529 0.500629 0.362889 0.033380
C10   C     C_R   0.689733 0.134277 0.000230 0.094572
C11   C     C_R   0.689952 0.865802 0.000322 0.077666
C12   C     C_R   0.189733 0.634277 0.000230 0.094573
C13   C     C_R   0.343372 0.850007 0.909410 -0.071129
C14   C     C_R   0.189952 0.365802 0.000322 0.077664
C15   C     C_3   0.047651 0.963666 0.614013 -0.411044
C16   C     C_3   0.048279 0.060468 0.553469 -0.300083
C17   C     C_3   0.547651 0.463666 0.614013 -0.411041
C18   C     C_3   0.548279 0.560468 0.553468 -0.300085
C19   C     C_3   0.940633 0.959477 0.533757 -0.365996
C20   C     C_3   0.942320 0.059472 0.489577 -0.457844
C21   C     C_3   0.440633 0.459477 0.533757 -0.365993
C22   C     C_3   0.442320 0.559472 0.489576 -0.457841
C23   C     C_3   0.054870 0.980233 0.450767 -0.267223
C24   C     C_R   0.845244 0.650822 0.909856 -0.070818
C25   C     C_3   0.554870 0.480233 0.450767 -0.267218
C26   C     C_3   0.088691 0.001282 0.565472 0.299237
C27   C     C_3   0.588691 0.501282 0.565472 0.299233
C28   C     C_3   0.906560 0.001209 0.439389 0.365523
C29   C     C_3   0.406560 0.501209 0.439389 0.365520
C30   C     C_R   0.440183 0.848217 0.091685 -0.149567
C31   C     C_R   0.440843 0.151882 0.091857 -0.148606
C32   C     C_R   0.940183 0.348217 0.091685 -0.149569
C33   C     C_R   0.940843 0.651882 0.091857 -0.148606
C34   C     C_3   0.948252 0.985366 0.373902 -0.455700
C35   C     C_R   0.843372 0.350007 0.909410 -0.071129
C36   C     C_3   0.448252 0.485366 0.373902 -0.455702
C37   C     C_R   0.299167 0.728586 0.908011 -0.283463
C38   C     C_R   0.300991 0.272432 0.908433 -0.303973
C39   C     C_R   0.799167 0.228586 0.908011 -0.283467
C40   C     C_R   0.800991 0.772432 0.908433 -0.303972
C41   C     C_R   0.759452 0.178404 0.908154 0.535284
C42   C     C_R   0.760403 0.822362 0.908389 0.469356
C43   C     C_R   0.259452 0.678404 0.908154 0.535279
C44   C     C_R   0.260403 0.322362 0.908389 0.469342
C45   C     C_R   0.765862 0.163070 0.003896 -0.029979
C46   C     C_R   0.690087 0.121046 0.091250 -0.135350
C47   C     C_R   0.766429 0.837254 0.004062 -0.009812
C48   C     C_R   0.265862 0.663070 0.003896 -0.029977
C49   C     C_R   0.266429 0.337254 0.004061 -0.009809
C50   C     C_R   0.834267 0.188391 0.103242 -0.203853
C51   C     C_R   0.835269 0.811921 0.103490 -0.197749
C52   C     C_R   0.334267 0.688391 0.103242 -0.203854
C53   C     C_R   0.335269 0.311921 0.103490 -0.197744
C54   C     C_R   0.374187 0.737412 0.102873 -0.141846
C55   C     C_R   0.376178 0.263204 0.103297 -0.142332
C56   C     C_R   0.874187 0.237411 0.102872 -0.141844
C57   C     C_R   0.690212 0.878945 0.091271 -0.129173
C58   C     C_R   0.876178 0.763204 0.103297 -0.142335
C59   C     C_R   0.349573 0.760477 0.003705 0.068332
C60   C     C_R   0.351815 0.240373 0.004172 0.093930
C61   C     C_R   0.849573 0.260477 0.003704 0.068333
C62   C     C_R   0.851815 0.740373 0.004172 0.093931
C63   C     C_R   0.402151 0.949536 0.470064 -0.051790
C64   C     C_R   0.400520 0.049953 0.468917 -0.101508
C65   C     C_R   0.902151 0.449536 0.470063 -0.051790
C66   C     C_R   0.900519 0.549953 0.468917 -0.101498
C67   C     C_R   0.396130 0.949613 0.373528 -0.164118
C68   C     C_R   0.190087 0.621046 0.091250 -0.135348
C69   C     C_R   0.394774 0.049920 0.372509 -0.158394
C70   C     C_R   0.896130 0.449613 0.373528 -0.164116
C71   C     C_R   0.894774 0.549920 0.372509 -0.158398
C72   C     C_R   0.404450 0.999812 0.332543 0.121529
C73   C     C_R   0.904450 0.499812 0.332543 0.121529
C74   C     C_R   0.478832 0.046053 0.247202 -0.103607
C75   C     C_R   0.478861 0.953885 0.247114 -0.100227
C76   C     C_R   0.978833 0.546053 0.247202 -0.103605
C77   C     C_R   0.978861 0.453885 0.247114 -0.100225
C78   C     C_R   0.413993 0.999770 0.523736 0.142738
C79   C     C_R   0.190212 0.378945 0.091271 -0.129173
C80   C     C_R   0.913992 0.499770 0.523736 0.142739
C81   C     C_R   0.244322 0.954358 0.695886 0.426497
C82   C     C_R   0.244947 0.047290 0.697771 0.420670
C83   C     C_R   0.744322 0.454358 0.695886 0.426498
C84   C     C_R   0.744947 0.547290 0.697771 0.420675
C85   C     C_R   0.375535 0.182632 0.001693 0.043014
C86   C     C_R   0.373754 0.818043 0.001349 0.054640
C87   C     C_R   0.875535 0.682632 0.001693 0.043015
C88   C     C_R   0.873754 0.318043 0.001349 0.054641
C89   C     C_R   0.446675 0.999938 0.271798 0.046456
C90   C     C_R   0.599164 0.875221 0.909267 -0.034900
C91   C     C_R   0.946675 0.499938 0.271798 0.046456
C92   C     C_R   0.192895 0.001258 0.638157 -0.228677
C93   C     C_R   0.692895 0.501258 0.638157 -0.228678
C94   C     C_R   0.460551 0.045567 0.700761 -0.013772
C95   C     C_R   0.459575 0.954150 0.700659 0.040368
C96   C     C_R   0.960551 0.545567 0.700760 -0.013801
C97   C     C_R   0.959574 0.454150 0.700659 0.040371
C98   C     C_R   0.755513 0.954259 0.303897 -0.144322
C99   C     C_R   0.753623 0.046305 0.303048 -0.138925
C100  C     C_R   0.255513 0.454259 0.303897 -0.144320
H1    H     H_    0.301495 0.165224 0.827142 0.195907
H2    H     H_    0.087979 0.004208 0.417527 0.202157
H3    H     H_    0.573622 0.436005 0.454501 0.233835
H4    H     H_    0.587979 0.504208 0.417526 0.202153
H5    H     H_    0.849360 0.175082 0.180943 0.137520
H6    H     H_    0.850022 0.824935 0.181117 0.133946
H7    H     H_    0.349360 0.675082 0.180943 0.137519
H8    H     H_    0.350022 0.324935 0.181116 0.133948
H9    H     H_    0.417350 0.759105 0.179709 0.127049
H10   H     H_    0.419690 0.241439 0.180201 0.123925
H11   H     H_    0.917351 0.259105 0.179708 0.127050
H12   H     H_    0.296725 0.836754 0.825967 0.188140
H13   H     H_    0.919690 0.741439 0.180201 0.123923
H14   H     H_    0.405711 0.909913 0.506055 0.152236
H15   H     H_    0.402461 0.089549 0.503858 0.139319
H16   H     H_    0.905710 0.409913 0.506054 0.152237
H17   H     H_    0.902460 0.589549 0.503857 0.139326
H18   H     H_    0.488027 0.833163 0.174323 0.104380
H19   H     H_    0.488766 0.166558 0.174615 0.104082
H20   H     H_    0.988027 0.333163 0.174323 0.104381
H21   H     H_    0.988766 0.666558 0.174615 0.104081
H22   H     H_    0.396134 0.910118 0.339396 0.122029
H23   H     H_    0.801495 0.665224 0.827142 0.195907
H24   H     H_    0.393711 0.089414 0.337502 0.120732
H25   H     H_    0.896134 0.410118 0.339396 0.122030
H26   H     H_    0.893711 0.589414 0.337501 0.120733
H27   H     H_    0.469433 0.089075 0.258122 0.100274
H28   H     H_    0.469509 0.910837 0.257868 0.100304
H29   H     H_    0.969433 0.589075 0.258122 0.100274
H30   H     H_    0.969509 0.410837 0.257868 0.100305
H31   H     H_    0.449471 0.088112 0.674617 0.162279
H32   H     H_    0.445951 0.911620 0.674354 0.164535
H33   H     H_    0.949470 0.588112 0.674617 0.162288
H34   H     H_    0.796725 0.336755 0.825967 0.188129
H35   H     H_    0.945951 0.411620 0.674354 0.164535
H36   H     H_    0.772098 0.911563 0.330338 0.098756
H37   H     H_    0.763891 0.088990 0.329266 0.101412
H38   H     H_    0.272099 0.411562 0.330338 0.098756
H39   H     H_    0.263891 0.588990 0.329266 0.101413
H40   H     H_    0.747712 0.123790 0.175862 0.100024
H41   H     H_    0.747894 0.876136 0.175809 0.097862
H42   H     H_    0.247711 0.623790 0.175862 0.100023
H43   H     H_    0.247894 0.376136 0.175809 0.097862
H44   H     H_    0.077020 0.921240 0.631986 0.227473
H45   H     H_    0.907112 0.968238 0.577286 0.182627
H46   H     H_    0.065487 0.086406 0.505778 0.244659
H47   H     H_    0.577020 0.421240 0.631986 0.227475
H48   H     H_    0.565487 0.586406 0.505777 0.244655
H49   H     H_    0.065889 0.981384 0.692890 0.162675
H50   H     H_    0.076695 0.079534 0.634716 0.177508
H51   H     H_    0.565889 0.481384 0.692890 0.162673
H52   H     H_    0.576695 0.579534 0.634716 0.177510
H53   H     H_    0.921601 0.916497 0.501345 0.170820
H54   H     H_    0.915647 0.092262 0.425911 0.162911
H55   H     H_    0.421601 0.416497 0.501345 0.170822
H56   H     H_    0.919558 0.070002 0.543783 0.191051
H57   H     H_    0.415647 0.592262 0.425910 0.162910
H58   H     H_    0.919352 0.945302 0.330189 0.168873
H59   H     H_    0.929389 0.017571 0.310788 0.185551
H60   H     H_    0.419352 0.445302 0.330190 0.168876
H61   H     H_    0.429389 0.517570 0.310787 0.185551
H62   H     H_    0.288969 0.742859 0.833015 0.183994
H63   H     H_    0.290921 0.258417 0.833445 0.175487
H64   H     H_    0.788969 0.242859 0.833014 0.183986
H65   H     H_    0.790921 0.758417 0.833446 0.175486
H66   H     H_    0.661620 0.050700 0.749718 0.390192
H67   H     H_    0.407113 0.468238 0.577286 0.182627
H68   H     H_    0.619747 0.803026 0.675610 0.353363
H69   H     H_    0.161605 0.550703 0.749723 0.390193
H70   H     H_    0.119744 0.303023 0.675619 0.353357
H71   H     H_    0.164594 0.819653 0.560087 0.388537
H72   H     H_    0.237228 0.130242 0.488425 0.374931
H73   H     H_    0.664624 0.319639 0.560140 0.388547
H74   H     H_    0.737206 0.630246 0.488415 0.374936
H75   H     H_    0.570806 0.866781 0.825075 0.173607
H76   H     H_    0.570576 0.133440 0.824964 0.165567
H77   H     H_    0.070806 0.366781 0.825075 0.173604
H78   H     H_    0.419558 0.570003 0.543782 0.191052
H79   H     H_    0.070577 0.633440 0.824964 0.165564
H80   H     H_    0.073622 0.936005 0.454501 0.233822
N1    N     N_R   0.392140 0.102630 0.941800 -0.045672
N2    N     N_R   0.525160 0.972040 0.206160 -0.044654
N3    N     N_R   0.025160 0.527960 0.206160 -0.044822
N4    N     N_R   0.025160 0.472040 0.206160 -0.044654
N5    N     N_R   0.317870 0.971120 0.792790 -0.134054
N6    N     N_R   0.317870 0.028880 0.792790 -0.132489
N7    N     N_R   0.817870 0.471120 0.792790 -0.134053
N8    N     N_R   0.817870 0.528880 0.792790 -0.132489
N9    N     N_R   0.473480 0.027920 0.793480 -0.050766
N10   N     N_R   0.473480 0.972080 0.793480 -0.059756
N11   N     N_R   0.973480 0.527920 0.793480 -0.050765
N12   N     N_R   0.392140 0.897370 0.941800 -0.046326
N13   N     N_R   0.973480 0.472080 0.793480 -0.059755
N14   N     N_R   0.681610 0.971120 0.207570 -0.036923
N15   N     N_R   0.681610 0.028880 0.207570 -0.038076
N16   N     N_R   0.181610 0.471120 0.207570 -0.036923
N17   N     N_R   0.181610 0.528880 0.207570 -0.038077
N18   N     N_R   0.605410 0.102620 0.056870 -0.051963
N19   N     N_R   0.605410 0.897380 0.056870 -0.050639
N20   N     N_R   0.105410 0.602620 0.056870 -0.051963
N21   N     N_R   0.105410 0.397380 0.056870 -0.050639
N22   N     N_R   0.549680 0.896430 0.944180 -0.048713
N23   N     N_R   0.892140 0.602630 0.941800 -0.045673
N24   N     N_R   0.549680 0.103570 0.944180 -0.046909
N25   N     N_R   0.049680 0.396430 0.944180 -0.048712
N26   N     N_R   0.049680 0.603570 0.944180 -0.046907
N27   N     N_R   0.892140 0.397370 0.941800 -0.046324
N28   N     N_R   0.450890 0.896450 0.057150 -0.052666
N29   N     N_R   0.450890 0.103550 0.057150 -0.052252
N30   N     N_R   0.950890 0.396450 0.057150 -0.052666
N31   N     N_R   0.950890 0.603550 0.057150 -0.052252
N32   N     N_R   0.525160 0.027960 0.206160 -0.044822
Ni1   Ni    Ni4+2 0.433410 0.064680 0.868830 0.311232
Ni2   Ni    Ni4+2 0.433410 0.935320 0.868830 0.307745
Ni3   Ni    Ni4+2 0.933410 0.564680 0.868830 0.311233
Ni4   Ni    Ni4+2 0.933410 0.435320 0.868830 0.307743
Ni5   Ni    Ni4+2 0.565650 0.934380 0.131170 0.220525
Ni6   Ni    Ni4+2 0.565650 0.065620 0.131170 0.219539
Ni7   Ni    Ni4+2 0.065650 0.434380 0.131170 0.220526
Ni8   Ni    Ni4+2 0.065650 0.565620 0.131170 0.219538
O1    O     O_2   0.618190 0.158609 0.700350 -0.334439
O2    O     O_2   0.199094 0.423857 0.818260 -0.261516
O3    O     O_2   0.274708 0.366951 0.754100 -0.251644
O4    O     O_3   0.106391 0.340724 0.689668 -0.555079
O5    O     O_2   0.239035 0.909887 0.528230 -0.321516
O6    O     O_2   0.338706 0.863455 0.704690 -0.350605
O7    O     O_3   0.159320 0.850987 0.599169 -0.580369
O8    O     O_2   0.182627 0.151967 0.628091 -0.346671
O9    O     O_2   0.346909 0.134132 0.707079 -0.354130
O10   O     O_3   0.224210 0.095492 0.512846 -0.555972
O11   O     O_2   0.739034 0.409886 0.528230 -0.321490
O12   O     O_2   0.775852 0.133902 0.756063 -0.255489
O13   O     O_2   0.838707 0.363455 0.704691 -0.350631
O14   O     O_3   0.659320 0.350986 0.599170 -0.580380
O15   O     O_2   0.682627 0.651967 0.628091 -0.346684
O16   O     O_2   0.846909 0.634132 0.707079 -0.354119
O17   O     O_3   0.724210 0.595492 0.512847 -0.555980
O18   O     O_3   0.696550 0.070200 0.820963 -0.523569
O19   O     O_2   0.699094 0.923857 0.818260 -0.261522
O20   O     O_2   0.774709 0.866951 0.754101 -0.251653
O21   O     O_3   0.606391 0.840724 0.689668 -0.555083
O22   O     O_2   0.118191 0.658608 0.700351 -0.334443
O23   O     O_2   0.275853 0.633902 0.756063 -0.255471
O24   O     O_3   0.196555 0.570199 0.820965 -0.523577
S1    S     S_3+6 0.710802 0.135195 0.791878 -0.052045
S2    S     S_3+6 0.710945 0.865732 0.791742 -0.038669
S3    S     S_3+6 0.210804 0.635195 0.791879 -0.052036
S4    S     S_3+6 0.210945 0.365732 0.791742 -0.038662
S5    S     S_3+6 0.247723 0.893731 0.631164 -0.104261
S6    S     S_3+6 0.250563 0.109655 0.638025 -0.105213
S7    S     S_3+6 0.747723 0.393731 0.631165 -0.104263
S8    S     S_3+6 0.750563 0.609655 0.638025 -0.105215

loop_
_geom_bond_atom_site_label_1
_geom_bond_atom_site_label_2
_ccdc_geom_bond_type
C44   C49   A    
C58   C62   A    
O6    S5    D    
O20   S2    D    
C24   N23   A    
N3    Ni8   S    
C31   C85   A    
C22   C29   S    
C99   N15   A    
C84   S8    S    
C11   C47   S    
N19   Ni5   S    
C4    H77   S    
C12   C48   S    
C83   N7    A    
C1    N1    A    
C82   C92   A    
C4    N25   A    
C39   C41   A    
N26   Ni3   S    
C17   H51   S    
C15   C19   S    
C7    C96   A    
C12   C68   A    
C29   C36   S    
C2    H76   S    
C19   H45   S    
C13   N12   A    
C20   H54   S    
C82   N6    A    
O19   S2    D    
N29   Ni6   S    
C96   N11   A    
C16   H46   S    
C42   S2    S    
C17   H47   S    
C8    C99   A    
C32   H20   S    
C67   C72   A    
C13   H12   S    
C18   H48   S    
C46   N18   A    
C14   C49   S    
C26   C92   S    
C65   C70   A    
C83   C93   A    
N6    Ni1   S    
C98   H36   S    
C77   N4    A    
C40   C62   A    
N5    Ni2   S    
C98   N14   A    
O17   S8    S    
N1    N29   A    
C75   H28   S    
C76   H29   S    
C23   C26   S    
C97   N13   A    
N21   N25   A    
C8    C98   A    
C5    H79   S    
C95   N10   A    
N11   Ni3   S    
C5    N26   A    
C63   H14   S    
O2    S4    D    
O4    S4    S    
N4    Ni7   S    
C79   H43   S    
C74   H27   S    
N25   Ni4   S    
C43   S3    S    
C79   N21   A    
C66   H17   S    
C13   C86   A    
C10   C46   A    
N19   N22   A    
N20   Ni8   S    
N9    Ni1   S    
C71   H26   S    
C68   H42   S    
C53   H8    S    
C30   C86   A    
C76   N3    A    
C7    C97   A    
C43   C48   A    
C56   H11   S    
O9    S6    D    
C22   H78   S    
O7    S5    S    
C83   S7    S    
C34   H59   S    
C100  N16   A    
C40   C42   A    
N14   N15   A    
C28   C34   S    
C65   C80   A    
C55   C60   A    
C57   N19   A    
C33   H21   S    
N12   N28   A    
N23   N31   A    
N18   Ni6   S    
O15   S8    D    
O16   S8    D    
C18   H52   S    
C35   H34   S    
C81   N5    A    
C7    C80   S    
N8    Ni3   S    
C52   C54   A    
N14   Ni5   S    
O8    S6    D    
C54   C59   A    
C53   C55   A    
C16   C26   S    
C39   C61   A    
C63   C67   A    
C84   C93   A    
C32   C88   A    
O21   S2    S    
C17   C27   S    
C2    N24   A    
C23   H2    S    
C52   H7    S    
C5    C12   A    
H74   O17   S    
C71   C73   A    
H72   O10   S    
C25   H3    S    
C15   C26   S    
C47   C51   A    
C77   H30   S    
C20   C28   S    
C69   H24   S    
C6    C94   A    
C64   C69   A    
C44   S4    S    
C21   C29   S    
C90   H75   S    
C24   H23   S    
C17   C21   S    
N30   Ni7   S    
C54   H9    S    
C74   N32   A    
C76   C91   A    
C37   C43   A    
C69   C72   A    
N3    N4    A    
N11   N13   A    
C38   C44   A    
C3    C9    A    
C61   C88   S    
C58   H13   S    
C32   N30   A    
C35   C88   A    
C66   C71   A    
C31   N29   A    
C50   H5    S    
N31   Ni8   S    
C16   C20   S    
C23   C34   S    
C30   N28   A    
C70   C73   A    
N2    N32   A    
C21   H55   S    
N12   Ni2   S    
C51   C58   A    
C14   C79   A    
N22   Ni2   S    
C19   C28   S    
N10   Ni2   S    
C73   C91   S    
C40   H65   S    
C37   C59   A    
C100  H38   S    
N27   N30   A    
H70   O4    S    
C34   H58   S    
C70   H25   S    
C35   N27   A    
C38   H63   S    
H71   O7    S    
C9    C100  A    
O23   S3    D    
C55   H10   S    
N18   N24   A    
C95   H32   S    
C8    C28   S    
C65   H16   S    
C38   C60   A    
C27   C93   S    
C1    C85   A    
C25   C27   S    
C97   H35   S    
H69   O24   S    
O5    S5    D    
N17   Ni8   S    
C67   H22   S    
C1    H1    S    
C15   H49   S    
N16   Ni7   S    
C66   C80   A    
H73   O14   S    
O13   S7    D    
N13   Ni4   S    
C46   H40   S    
N23   Ni3   S    
N28   Ni5   S    
N7    Ni4   S    
C77   C91   A    
N20   N26   A    
C20   H56   S    
C41   S1    S    
C18   C22   S    
N21   Ni7   S    
C64   C78   A    
C82   S6    S    
C18   C27   S    
C94   H31   S    
C81   S5    S    
N16   N17   A    
O14   S7    S    
C16   H50   S    
C60   C85   S    
C25   H4    S    
C96   H33   S    
C31   H19   S    
C22   H57   S    
C9    C29   S    
O3    S4    D    
H66   O18   S    
C23   H80   S    
C62   C87   S    
C6    C78   S    
O22   S3    D    
C21   H67   S    
O24   S3    S    
C57   H41   S    
C68   N20   A    
C33   C87   A    
C59   C86   S    
N7    N8    A    
C11   C57   A    
C74   C89   A    
C72   C89   S    
C33   N31   A    
C11   C90   A    
N5    N6    A    
C36   H61   S    
O1    S1    D    
C45   C50   A    
C81   C92   A    
C51   H6    S    
C49   C53   A    
O11   S7    D    
N24   Ni1   S    
O18   S1    S    
N27   Ni4   S    
C3    N17   A    
C42   C47   A    
C75   C89   A    
H68   O21   S    
C4    C14   A    
N9    N10   A    
C24   C87   A    
C50   C56   A    
C94   N9    A    
C84   N8    A    
C36   H60   S    
C25   C36   S    
O12   S1    D    
C15   H44   S    
C19   H53   S    
C48   C52   A    
C3    H39   S    
N2    Ni5   S    
C6    C95   A    
C10   C45   S    
C30   H18   S    
C64   H15   S    
C41   C45   A    
C56   C61   A    
C99   H37   S    
N1    Ni1   S    
C90   N22   A    
C39   H64   S    
O10   S6    S    
C75   N2    A    
N15   Ni6   S    
C37   H62   S    
N32   Ni6   S    
C63   C78   A    
C2    C10   A    
