data_mof_unit_16562.cif
_audit_creation_date              2012-12-10T20:57:46-0500
_audit_creation_method            fapswitch 2.2
_symmetry_space_group_name_H-M    P1
_symmetry_Int_Tables_number       1
_space_group_crystal_system       triclinic
_cell_length_a                    15.06231
_cell_length_b                    14.935757
_cell_length_c                    15.848013
_cell_angle_alpha                 89.992673
_cell_angle_beta                  90.5962
_cell_angle_gamma                 68.802606
_cell_volume                      3323.84511657

loop_
_atom_site_label
_atom_site_type_symbol
_atom_type_description
_atom_site_fract_x
_atom_site_fract_y
_atom_site_fract_z
_atom_type_partial_charge
C1    C     C_R   0.499479 0.500229 0.338916 0.893061
C2    C     C_R   0.500641 0.500823 0.087063 0.104287
C3    C     C_R   0.412212 0.521613 0.955884 0.185449
C4    C     C_R   0.586724 0.482702 0.044212 0.183851
C5    C     C_1   0.500439 0.501754 0.824111 -0.048169
C6    C     C_1   0.498771 0.501030 0.175953 -0.053232
C7    C     C_1   0.498468 0.500779 0.250700 -0.199549
C8    C     C_1   0.501066 0.500670 0.749352 -0.191431
C9    C     C_R   0.947261 0.513129 0.422629 0.130033
C10   C     C_R   0.056077 0.478519 0.574935 0.117691
C11   C     C_R   0.905992 0.497785 0.499009 -0.066357
C12   C     C_R   0.500482 0.499894 0.661102 0.906596
C13   C     C_R   0.095558 0.498423 0.499430 -0.061952
C14   C     C_R   0.960012 0.481462 0.575318 0.121982
C15   C     C_R   0.041155 0.516317 0.423351 0.126801
C16   C     C_R   0.558987 0.320913 0.498372 0.906103
C17   C     C_R   0.440752 0.679004 0.499269 0.899176
C18   C     C_1   0.807410 0.498867 0.499477 0.090853
C19   C     C_1   0.193143 0.499704 0.499940 0.075896
C20   C     C_R   0.594211 0.217011 0.476574 -0.257266
C21   C     C_R   0.401946 0.784080 0.482371 -0.233416
C22   C     C_R   0.712168 0.072753 0.417283 -0.225933
C23   C     C_R   0.589217 0.904372 0.353352 0.210689
C24   C     C_R   0.272022 0.936175 0.455081 -0.233805
C25   C     C_R   0.690413 0.162505 0.456518 0.095516
C26   C     C_R   0.303165 0.841088 0.485095 0.105596
C27   C     C_R   0.525256 0.175588 0.462920 0.564259
C28   C     C_R   0.465677 0.826871 0.455430 0.556952
C29   C     C_R   0.545210 0.091576 0.415488 -0.078584
C30   C     C_R   0.433268 0.917678 0.416989 -0.063042
C31   C     C_R   0.640789 0.035998 0.395903 0.000719
C32   C     C_R   0.335127 0.975241 0.418491 -0.024054
C33   C     C_R   0.472386 0.056550 0.395137 -0.038400
C34   C     C_R   0.375262 0.114367 0.378245 0.206763
C35   C     C_R   0.498957 0.957628 0.388310 -0.023210
C36   C     C_3   0.758479 0.894173 0.315530 -0.422003
C37   C     C_3   0.770974 0.947528 0.236928 -0.891053
C38   C     C_3   0.200935 0.124756 0.358801 -0.372906
C39   C     C_3   0.188164 0.137832 0.262885 -0.886190
C40   C     C_3   0.228836 0.806469 0.523169 -0.361522
C41   C     C_3   0.243813 0.789391 0.618263 -0.826161
C42   C     C_3   0.773048 0.193206 0.479598 -0.356978
C43   C     C_3   0.801315 0.241955 0.405335 -0.838617
C44   C     C_3   0.596492 0.821130 0.294424 -0.402676
C45   C     C_R   0.661583 0.945245 0.355709 0.149770
C46   C     C_3   0.660737 0.722028 0.326946 -0.765788
C47   C     C_3   0.353308 0.212136 0.335878 -0.334559
C48   C     C_3   0.282410 0.296811 0.383275 -0.747181
C49   C     C_3   0.680792 0.461819 0.090320 -0.413893
C50   C     C_3   0.720234 0.358805 0.123717 -0.852155
C51   C     C_3   0.318255 0.541733 0.909797 -0.416140
C52   C     C_3   0.278682 0.644207 0.875177 -0.850234
C53   C     C_3   0.082898 0.542794 0.343940 -0.404943
C54   C     C_3   0.059897 0.650994 0.339491 -0.874676
C55   C     C_3   0.913753 0.467298 0.656868 -0.391196
C56   C     C_R   0.304819 0.071119 0.385986 0.137690
C57   C     C_3   0.921441 0.363043 0.667007 -0.876402
C58   C     C_3   0.891293 0.524227 0.340100 -0.411412
C59   C     C_3   0.918839 0.428626 0.293585 -0.884777
C60   C     C_3   0.118101 0.453344 0.654557 -0.388211
C61   C     C_3   0.115861 0.543625 0.701197 -0.870705
C62   C     C_R   0.584335 0.484482 0.956398 -0.273498
C63   C     C_R   0.414594 0.519928 0.043699 -0.276944
C64   C     C_R   0.498325 0.503337 0.913017 0.104732
F1    F     F_    0.559487 0.784979 0.475890 -0.662875
F2    F     F_    0.439469 0.213858 0.501071 -0.666248
H1    H     H_    0.786097 0.032224 0.404305 0.163784
H2    H     H_    0.247168 0.083014 0.228857 0.258849
H3    H     H_    0.183226 0.210857 0.243704 0.247705
H4    H     H_    0.120256 0.130555 0.242552 0.247738
H5    H     H_    0.153386 0.086943 0.376929 0.192490
H6    H     H_    0.171063 0.194613 0.391444 0.208339
H7    H     H_    0.314036 0.733334 0.633109 0.257788
H8    H     H_    0.239194 0.857054 0.650298 0.253622
H9    H     H_    0.187543 0.765479 0.643621 0.237417
H10   H     H_    0.155988 0.860645 0.513563 0.183126
H11   H     H_    0.227036 0.741484 0.490636 0.222340
H12   H     H_    0.198546 0.979893 0.465386 0.139392
H13   H     H_    0.825841 0.190981 0.351992 0.244377
H14   H     H_    0.740491 0.305853 0.383428 0.281154
H15   H     H_    0.860474 0.265208 0.425251 0.234095
H16   H     H_    0.757696 0.240015 0.535992 0.216482
H17   H     H_    0.835747 0.129168 0.498484 0.185083
H18   H     H_    0.703164 0.679888 0.273853 0.203677
H19   H     H_    0.710134 0.726982 0.377716 0.273976
H20   H     H_    0.617204 0.681761 0.351406 0.289977
H21   H     H_    0.524830 0.818918 0.280379 0.187932
H22   H     H_    0.622654 0.835098 0.232300 0.189180
H23   H     H_    0.649631 0.470259 0.921577 0.151902
H24   H     H_    0.308344 0.357518 0.383670 0.255991
H25   H     H_    0.272889 0.278014 0.449482 0.290393
H26   H     H_    0.212077 0.322106 0.350666 0.204838
H27   H     H_    0.419295 0.227516 0.326446 0.184127
H28   H     H_    0.327894 0.209863 0.270495 0.180898
H29   H     H_    0.671340 0.346479 0.170347 0.263255
H30   H     H_    0.730465 0.307335 0.070842 0.258707
H31   H     H_    0.790123 0.345000 0.155245 0.244868
H32   H     H_    0.734345 0.472060 0.047437 0.197851
H33   H     H_    0.671949 0.512997 0.143287 0.210498
H34   H     H_    0.349346 0.533916 0.078537 0.150635
H35   H     H_    0.268100 0.696512 0.927419 0.258699
H36   H     H_    0.327648 0.655972 0.828307 0.264474
H37   H     H_    0.208942 0.657267 0.843586 0.246564
H38   H     H_    0.327337 0.489741 0.857472 0.212331
H39   H     H_    0.264630 0.532050 0.952932 0.198099
H40   H     H_    0.981642 0.690299 0.338130 0.251322
H41   H     H_    0.090980 0.675095 0.394936 0.257419
H42   H     H_    0.090564 0.668821 0.281287 0.249049
H43   H     H_    0.161288 0.505544 0.342138 0.202703
H44   H     H_    0.057486 0.518885 0.285501 0.212194
H45   H     H_    0.714961 0.951618 0.189335 0.257697
H46   H     H_    0.883653 0.342119 0.614481 0.261113
H47   H     H_    0.997207 0.314181 0.667722 0.253081
H48   H     H_    0.888542 0.354533 0.727387 0.250095
H49   H     H_    0.944743 0.489487 0.713143 0.208687
H50   H     H_    0.837520 0.514838 0.657945 0.211458
H51   H     H_    0.996630 0.397418 0.282335 0.252756
H52   H     H_    0.898150 0.376743 0.331170 0.263627
H53   H     H_    0.880851 0.439810 0.231824 0.251161
H54   H     H_    0.813720 0.549891 0.350968 0.212822
H55   H     H_    0.900687 0.580096 0.298951 0.207521
H56   H     H_    0.766747 0.021399 0.252324 0.265445
H57   H     H_    0.041886 0.587976 0.718949 0.251272
H58   H     H_    0.160124 0.522864 0.759530 0.251101
H59   H     H_    0.144858 0.587331 0.661077 0.265541
H60   H     H_    0.097069 0.406442 0.697840 0.208214
H61   H     H_    0.192941 0.409622 0.638672 0.218002
H62   H     H_    0.841698 0.908258 0.208974 0.251305
H63   H     H_    0.816794 0.885548 0.361775 0.196292
H64   H     H_    0.769281 0.820127 0.295881 0.223048
N1    N     N_1   0.270550 0.499970 0.500020 -0.089480
N2    N     N_1   0.729450 0.500030 0.499980 -0.080886
O1    O     O_R   0.573650 0.500000 0.378020 -0.619594
O2    O     O_R   0.426350 0.500000 0.621980 -0.600222
O3    O     O_R   0.426300 0.500040 0.378020 -0.617264
O4    O     O_R   0.573700 0.499960 0.621980 -0.605237
O5    O     O_R   0.615760 0.367720 0.500000 -0.618587
O6    O     O_R   0.384240 0.632280 0.500000 -0.619989
O7    O     O_R   0.468410 0.367760 0.500000 -0.534663
O8    O     O_R   0.531590 0.632240 0.500000 -0.536008
Zn1   Zn    Zn3+2 0.598380 0.499970 0.500000 0.971037
Zn2   Zn    Zn3+2 0.401620 0.500030 0.500000 0.969194

loop_
_geom_bond_atom_site_label_1
_geom_bond_atom_site_label_2
_ccdc_geom_bond_type
C53   H44   S    
C21   C26   A    
C11   C18   S    
C34   C56   A    
C20   C25   A    
C23   C45   A    
C29   C33   A    
C27   C29   A    
C39   H2    S    
C18   N2    T    
C16   O5    A    
C42   H16   S    
C50   H30   S    
C48   H24   S    
C52   H37   S    
C53   C54   S    
C52   H36   S    
O4    Zn1   S    
C54   H41   S    
C61   H58   S    
C15   C53   S    
C36   C37   S    
C24   C26   A    
C38   C39   S    
C11   C14   A    
C50   H29   S    
C57   H46   S    
O2    Zn2   S    
C55   H50   S    
C43   H13   S    
C62   H23   S    
C4    C62   A    
C9    C58   S    
C62   C64   A    
C33   C35   A    
C41   H8    S    
C38   H5    S    
C47   H28   S    
O3    Zn2   S    
C50   H31   S    
C22   C25   A    
C48   H26   S    
C17   O6    A    
C44   H21   S    
C51   H39   S    
C37   H62   S    
C14   C55   S    
C49   H32   S    
C59   H51   S    
C12   O2    A    
C2    C6    S    
C1    O1    A    
C44   C46   S    
C19   N1    T    
C38   H6    S    
C52   H35   S    
C22   C31   A    
C54   H40   S    
C51   C52   S    
O8    Zn1   S    
O6    Zn2   S    
C49   H33   S    
C13   C19   S    
C57   H47   S    
C43   H14   S    
C3    C64   A    
C48   H25   S    
C17   C21   S    
C23   C44   S    
C40   H10   S    
C5    C64   S    
C60   C61   S    
C2    C4    A    
C24   C32   A    
C63   H34   S    
C36   H64   S    
C41   H9    S    
C47   C48   S    
C8    C12   S    
C58   H54   S    
C33   C34   A    
C39   H3    S    
C36   C45   S    
C16   C20   S    
C9    C11   A    
C6    C7    T    
N1    Zn2   S    
C46   H18   S    
C30   C35   A    
C24   H12   S    
C40   C41   S    
C21   C28   A    
C59   H52   S    
C23   C35   A    
C13   C15   A    
C31   C45   A    
C43   H15   S    
C58   C59   S    
C16   O7    A    
C42   C43   S    
C2    C63   A    
C53   H43   S    
N2    Zn1   S    
O5    Zn1   S    
C10   C60   S    
C58   H55   S    
C59   H53   S    
C47   H27   S    
C1    C7    S    
C60   H61   S    
C42   H17   S    
C10   C13   A    
C25   C42   S    
C5    C8    T    
C57   H48   S    
C20   C27   A    
C3    C63   A    
O1    Zn1   S    
C54   H42   S    
C4    C49   S    
C61   H57   S    
C46   H19   S    
C55   C57   S    
C28   F1    S    
C51   H38   S    
C28   C30   A    
C29   C31   A    
C27   F2    S    
C1    O3    A    
C36   H63   S    
C30   C32   A    
C26   C40   S    
C55   H49   S    
C60   H60   S    
O7    Zn2   S    
C39   H4    S    
C3    C51   S    
C17   O8    A    
C9    C15   A    
C22   H1    S    
C37   H45   S    
C41   H7    S    
C37   H56   S    
C38   C56   S    
C49   C50   S    
C12   O4    A    
C40   H11   S    
C61   H59   S    
C34   C47   S    
C44   H22   S    
C32   C56   A    
C10   C14   A    
C46   H20   S    
