data_mof_unit_39534.cif
_audit_creation_date              2012-12-11T16:43:20-0500
_audit_creation_method            fapswitch 2.2
_symmetry_space_group_name_H-M    P1
_symmetry_Int_Tables_number       1
_space_group_crystal_system       triclinic
_cell_length_a                    6.927723
_cell_length_b                    23.271309
_cell_length_c                    25.830399
_cell_angle_alpha                 104.826559
_cell_angle_beta                  90.215062
_cell_angle_gamma                 90.486331
_cell_volume                      4025.43247602

loop_
_atom_site_label
_atom_site_type_symbol
_atom_type_description
_atom_site_fract_x
_atom_site_fract_y
_atom_site_fract_z
_atom_type_partial_charge
O1    O     O_R   0.505750 0.453350 0.547660 -0.545931
O2    O     O_R   0.170990 0.432220 0.437590 -0.543799
O3    O     O_R   0.005600 0.546650 0.452340 -0.498685
C1    C     C_R   0.339827 0.415155 0.417623 0.713405
O4    O     O_R   0.175720 0.446240 0.546340 -0.547339
O5    O     O_R   0.010370 0.560770 0.561860 -0.540483
C2    C     C_R   0.344692 0.434088 0.562771 0.672287
O6    O     O_R   0.500990 0.439230 0.438140 -0.542930
O7    O     O_3   0.340820 0.537560 0.504970 -0.342299
V1    V     V_3+5 0.064050 0.493030 0.499080 1.453379
O8    O     O_R   0.680940 0.567780 0.562410 -0.543619
C3    C     C_R   0.850746 0.584552 0.582473 0.706654
O9    O     O_R   0.676210 0.553760 0.453660 -0.535118
C4    C     C_R   0.845450 0.566180 0.437411 0.751193
V2    V     V_3+5 0.564640 0.506970 0.500920 1.458107
O10   O     O_3   0.837740 0.462440 0.495030 -0.383586
C5    C     C_R   0.773593 0.870824 0.110457 -0.183796
H1    H     H_    0.643576 0.878782 0.090038 0.123108
C6    C     C_R   0.760749 0.835221 0.146560 -0.068162
H2    H     H_    0.621951 0.816053 0.152216 0.139300
C7    C     C_R   0.925142 0.823813 0.174343 0.128428
C8    C     C_R   0.103755 0.847886 0.164020 -0.140130
H3    H     H_    0.233155 0.840321 0.184887 0.157270
C9    C     C_R   0.117067 0.882987 0.127410 -0.165257
H4    H     H_    0.256512 0.901226 0.120864 0.127459
C10   C     C_R   0.951798 0.895292 0.100456 -0.055323
C11   C     C_R   0.054667 0.744569 0.215112 -0.217517
H5    H     H_    0.174994 0.738451 0.187663 0.141358
C12   C     C_R   0.043398 0.709258 0.251504 -0.145649
H6    H     H_    0.155439 0.677000 0.251168 0.123139
C13   C     C_R   0.887697 0.714651 0.287150 0.028552
C14   C     C_R   0.743997 0.756490 0.285623 -0.216856
H7    H     H_    0.624290 0.762518 0.313279 0.149807
C15   C     C_R   0.755591 0.792264 0.249549 0.620165
C16   C     C_R   0.911072 0.786487 0.213469 -0.039882
C17   C     C_R   0.699603 0.652523 0.336789 -0.140151
H8    H     H_    0.568867 0.659840 0.316355 0.125226
C18   C     C_R   0.690092 0.616896 0.373003 -0.219444
H9    H     H_    0.552168 0.597773 0.379447 0.210357
C19   C     C_R   0.856793 0.605176 0.399752 -0.185696
C20   C     C_R   0.033800 0.630571 0.389447 0.605265
C21   C     C_R   0.042912 0.665869 0.352991 -0.211740
H10   H     H_    0.180611 0.685149 0.346414 0.136174
C22   C     C_R   0.876412 0.677200 0.326106 0.039129
C23   C     C_R   0.712903 0.645057 0.668868 -0.221087
C24   C     C_R   0.864287 0.634283 0.631536 -0.080609
C25   C     C_R   0.031333 0.670413 0.641848 -0.209127
C26   C     C_R   0.047365 0.717006 0.688568 0.084944
C27   C     C_R   0.896374 0.726880 0.726231 0.053564
C28   C     C_R   0.729014 0.690566 0.716456 0.092143
C29   C     C_R   0.211911 0.753894 0.698353 -0.183855
C30   C     C_R   0.228038 0.799739 0.745373 -0.179059
C31   C     C_R   0.080302 0.809390 0.783573 0.090260
C32   C     C_R   0.912939 0.773078 0.773796 0.054095
C33   C     C_R   0.761945 0.782952 0.811459 0.089799
C34   C     C_R   0.597398 0.746064 0.801673 -0.191900
C35   C     C_R   0.581275 0.700218 0.754655 -0.182919
C36   C     C_R   0.096418 0.854896 0.831163 -0.220820
C37   C     C_R   0.945032 0.865670 0.868494 -0.083763
C38   C     C_R   0.777978 0.829545 0.858178 -0.218561
H11   H     H_    0.584375 0.617176 0.661436 0.122305
H12   H     H_    0.148321 0.662622 0.613195 0.136785
H13   H     H_    0.328975 0.747046 0.669779 0.139442
H14   H     H_    0.356964 0.827405 0.752030 0.137832
H15   H     H_    0.224950 0.882775 0.838597 0.124657
H16   H     H_    0.660986 0.837338 0.886831 0.127452
H17   H     H_    0.480332 0.752914 0.830247 0.133629
H18   H     H_    0.452350 0.672551 0.747998 0.135065
C39   C     C_R   0.288408 0.170345 0.140111 -0.212422
C40   C     C_R   0.456212 0.135334 0.131082 -0.085916
C41   C     C_R   0.604704 0.147248 0.169821 -0.216995
C42   C     C_R   0.584138 0.192413 0.217562 0.092120
C43   C     C_R   0.415457 0.227255 0.226065 0.053107
C44   C     C_R   0.267931 0.216446 0.186939 0.089821
C45   C     C_R   0.728315 0.203047 0.257286 -0.172336
C46   C     C_R   0.707516 0.248349 0.304445 -0.190020
C47   C     C_R   0.541460 0.283670 0.312983 0.088218
C48   C     C_R   0.393937 0.272863 0.273856 0.053424
C49   C     C_R   0.225250 0.307703 0.282363 0.094397
C50   C     C_R   0.081076 0.297070 0.242636 -0.181810
C51   C     C_R   0.101877 0.251768 0.195477 -0.194831
C52   C     C_R   0.520973 0.329763 0.359814 -0.213286
C53   C     C_R   0.353158 0.364767 0.368849 -0.086815
C54   C     C_R   0.204671 0.352861 0.330109 -0.220968
H19   H     H_    0.173357 0.161803 0.110471 0.128086
H20   H     H_    0.733683 0.120337 0.163495 0.126585
H21   H     H_    0.858151 0.176578 0.251734 0.141172
H22   H     H_    0.822185 0.255990 0.334141 0.135709
H23   H     H_    0.636016 0.338298 0.389457 0.126853
H24   H     H_    0.075682 0.379767 0.336442 0.122334
H25   H     H_    0.951237 0.323537 0.248191 0.136524
H26   H     H_    0.987206 0.244126 0.165782 0.133343
C55   C     C_R   0.274781 0.123959 0.884927 -0.159942
H27   H     H_    0.142190 0.111717 0.901628 0.121374
C56   C     C_R   0.263383 0.159551 0.848814 -0.142972
H28   H     H_    0.122750 0.174187 0.839321 0.099834
C57   C     C_R   0.431142 0.176741 0.825910 0.094791
C58   C     C_R   0.610972 0.157665 0.840533 -0.139258
H29   H     H_    0.743016 0.169290 0.823176 0.099558
C59   C     C_R   0.622490 0.122196 0.876865 -0.160238
H30   H     H_    0.763176 0.107975 0.886798 0.117605
C60   C     C_R   0.454400 0.104684 0.899421 -0.054794
C61   C     C_R   0.557096 0.258680 0.786959 -0.150486
H31   H     H_    0.674398 0.266991 0.815807 0.110289
C62   C     C_R   0.544206 0.293958 0.750555 -0.151523
H32   H     H_    0.652080 0.328383 0.752456 0.108786
C63   C     C_R   0.392035 0.285787 0.713018 0.080632
C64   C     C_R   0.253065 0.241334 0.712976 -0.147895
H33   H     H_    0.135761 0.233022 0.684128 0.113264
C65   C     C_R   0.265954 0.206057 0.749379 -0.149291
H34   H     H_    0.158076 0.171634 0.747478 0.111492
C66   C     C_R   0.418105 0.214235 0.786921 0.080560
C67   C     C_R   0.199025 0.342359 0.659444 -0.140488
H35   H     H_    0.067024 0.330712 0.676807 0.098931
C68   C     C_R   0.187388 0.377833 0.623121 -0.159945
H36   H     H_    0.046657 0.392033 0.613200 0.116001
C69   C     C_R   0.355410 0.395373 0.600554 -0.050686
C70   C     C_R   0.535091 0.376126 0.615035 -0.160697
H37   H     H_    0.667631 0.388394 0.598327 0.119849
C71   C     C_R   0.546607 0.340526 0.651141 -0.141548
H38   H     H_    0.687281 0.325909 0.660623 0.100767
C72   C     C_R   0.378909 0.323302 0.674048 0.094721
O11   O     O_R   0.308350 0.060850 0.061810 -0.538407
O12   O     O_R   0.633860 0.053770 0.953650 -0.542474
O13   O     O_R   0.798960 0.939210 0.938150 -0.539062
C73   C     C_R   0.464954 0.065962 0.937201 0.689272
O14   O     O_R   0.638360 0.067800 0.062400 -0.540648
O15   O     O_R   0.803500 0.953330 0.047670 -0.539192
C74   C     C_R   0.469518 0.084917 0.082331 0.715087
O16   O     O_R   0.303810 0.046730 0.952290 -0.540870
O17   O     O_3   0.468430 0.962490 0.995010 -0.369279
V3    V     V_3+5 0.745300 0.006960 0.000930 1.400268
O18   O     O_R   0.132880 0.946160 0.046390 -0.542656
C75   C     C_R   0.963723 0.934010 0.062746 0.697389
O19   O     O_R   0.128380 0.932130 0.937650 -0.542392
C76   C     C_R   0.958579 0.915398 0.917559 0.711172
V4    V     V_3+5 0.244670 0.992930 0.999140 1.399740
O20   O     O_3   0.971670 0.037510 0.005000 -0.369588
F1    F     F_    0.198387 0.622277 0.415131 -0.699552
F2    F     F_    0.617908 0.833882 0.251406 -0.700437

loop_
_geom_bond_atom_site_label_1
_geom_bond_atom_site_label_2
_ccdc_geom_bond_type
C33   C34   A    
O18   V4    S    
C55   H27   S    
C11   C12   A    
C20   C21   A    
C2    C69   S    
C56   H28   S    
C1    O6    A    
C25   H12   S    
C57   C58   A    
O19   C76   A    
C47   C48   A    
C64   H33   S    
C62   C63   A    
C52   H23   S    
C54   H24   S    
O17   V4    S    
C5    C10   A    
C47   C52   A    
C7    C8    A    
C17   H8    S    
C6    C7    A    
C9    C10   A    
O5    C3    A    
C18   H9    S    
C73   O16   A    
V3    O20   S    
V2    O10   S    
C58   H29   S    
C37   C76   S    
C34   C35   A    
O12   V3    S    
C15   C16   A    
C43   C44   A    
C15   F2    S    
C70   H37   S    
C65   H34   S    
C51   H26   S    
O8    V2    S    
C26   C29   A    
C67   C72   A    
C25   C26   A    
C68   C69   A    
C43   C48   A    
C40   C41   A    
O1    V2    S    
O7    V1    S    
C46   H22   S    
C38   H16   S    
C37   C38   A    
C55   C56   A    
C27   C32   A    
O9    C4    A    
O11   C74   A    
C21   C22   A    
C42   C45   A    
O15   V3    S    
C71   C72   A    
C70   C71   A    
C8    H3    S    
C13   C22   S    
C29   C30   A    
C29   H13   S    
C9    H4    S    
C3    C24   S    
C30   H14   S    
O4    C2    A    
C57   C66   S    
C48   C49   A    
C42   C43   A    
C11   C16   A    
C36   C37   A    
C23   C24   A    
C40   C74   S    
C61   C66   A    
C14   C15   A    
O2    C1    A    
C45   C46   A    
O14   C74   A    
C12   H6    S    
C10   C75   S    
O15   C75   A    
C41   H20   S    
C36   H15   S    
C53   C54   A    
C63   C64   A    
C59   C60   A    
C5    H1    S    
C39   C44   A    
C61   C62   A    
C24   C25   A    
C46   C47   A    
O14   V3    S    
O3    C4    A    
O13   C76   A    
C45   H21   S    
C19   C20   A    
C52   C53   A    
O6    V2    S    
C58   C59   A    
O9    V2    S    
O18   C75   A    
C8    C9    A    
C17   C22   A    
C21   H10   S    
C35   H18   S    
O17   V3    S    
O2    V1    S    
C61   H31   S    
C39   H19   S    
C30   C31   A    
O12   C73   A    
C67   H35   S    
V4    O20   S    
O19   V4    S    
C32   C33   A    
C26   C27   A    
O1    C2    A    
C28   C35   A    
C13   C14   A    
C50   C51   A    
C60   C73   S    
C55   C60   A    
O5    V1    S    
C31   C36   A    
C56   C57   A    
C31   C32   A    
C7    C16   S    
C34   H17   S    
C62   H32   S    
O11   V4    S    
C14   H7    S    
C6    H2    S    
C17   C18   A    
O7    V2    S    
O4    V1    S    
C12   C13   A    
O3    V1    S    
V1    O10   S    
C69   C70   A    
C18   C19   A    
O13   V3    S    
C49   C54   A    
C1    C53   S    
C23   C28   A    
C50   H25   S    
C23   H11   S    
C59   H30   S    
C5    C6    A    
C64   C65   A    
C39   C40   A    
C65   C66   A    
C20   F1    S    
C4    C19   S    
C49   C50   A    
C41   C42   A    
C27   C28   A    
C11   H5    S    
C71   H38   S    
C44   C51   A    
C63   C72   S    
C33   C38   A    
O16   V4    S    
C68   H36   S    
O8    C3    A    
C67   C68   A    
