data_mof_unit_20206.cif
_audit_creation_date              2012-12-11T15:26:06-0500
_audit_creation_method            fapswitch 2.2
_symmetry_space_group_name_H-M    P1
_symmetry_Int_Tables_number       1
_space_group_crystal_system       triclinic
_cell_length_a                    24.764289
_cell_length_b                    17.125326
_cell_length_c                    15.694065
_cell_angle_alpha                 91.883127
_cell_angle_beta                  50.339362
_cell_angle_gamma                 90.343294
_cell_volume                      5120.14979447

loop_
_atom_site_label
_atom_site_type_symbol
_atom_type_description
_atom_site_fract_x
_atom_site_fract_y
_atom_site_fract_z
_atom_type_partial_charge
C1    C     C_R   0.343569 0.135829 0.776118 -0.005788
C2    C     C_2   0.304862 0.854948 0.976795 -0.120300
C3    C     C_1   0.398397 0.309421 0.821420 0.318281
C4    C     C_1   0.766435 0.414960 0.063984 0.379822
C5    C     C_1   0.192173 0.691076 0.966974 0.302374
C6    C     C_1   0.094625 0.187901 0.182184 0.277480
C7    C     C_1   0.898394 0.809421 0.821425 0.318283
C8    C     C_2   0.345185 0.250670 0.881452 -0.095864
C9    C     C_2   0.649896 0.744903 0.126085 -0.074788
C10   C     C_2   0.180487 0.702117 0.069579 -0.110020
C11   C     C_2   0.804863 0.354947 0.976793 -0.120304
C12   C     C_2   0.845184 0.750669 0.881455 -0.095863
C13   C     C_2   0.149897 0.244904 0.126082 -0.074785
C14   C     C_2   0.714426 0.256070 0.083867 0.266483
C15   C     C_2   0.284580 0.780733 0.988486 0.335752
C16   C     C_2   0.276683 0.274392 0.961611 0.314808
C17   C     C_R   0.655541 0.862913 0.225028 -0.004364
C18   C     C_2   0.717616 0.720392 0.043133 0.336227
C19   C     C_2   0.214426 0.756070 0.083867 0.266484
C20   C     C_2   0.784579 0.280732 0.988485 0.335754
C21   C     C_2   0.776681 0.774390 0.961612 0.314801
C22   C     C_2   0.217618 0.220394 0.043132 0.336222
C23   C     C_R   0.592969 0.140109 0.594519 -0.071933
C24   C     C_R   0.384057 0.903395 0.408395 -0.012815
C25   C     C_R   0.385425 0.104357 0.410142 -0.041130
C26   C     C_R   0.610573 0.887056 0.591354 -0.013799
C27   C     C_R   0.092969 0.640110 0.594519 -0.071934
C28   C     C_R   0.664664 0.112129 0.204553 0.011263
C29   C     C_R   0.884057 0.403394 0.408395 -0.012818
C30   C     C_R   0.885425 0.604357 0.410142 -0.041129
C31   C     C_R   0.110573 0.387057 0.591354 -0.013799
C32   C     C_R   0.663291 0.142912 0.411476 -0.080268
C33   C     C_R   0.311139 0.900882 0.590136 -0.101897
C34   C     C_R   0.310838 0.098256 0.591486 -0.165740
C35   C     C_R   0.687146 0.893541 0.408825 -0.154532
C36   C     C_R   0.163291 0.642912 0.411476 -0.080269
C37   C     C_R   0.811139 0.400882 0.590136 -0.101896
C38   C     C_R   0.810838 0.598256 0.591486 -0.165739
C39   C     C_R   0.333194 0.894923 0.801610 0.012169
C40   C     C_R   0.187146 0.393542 0.408825 -0.154534
C41   C     C_R   0.574027 0.118136 0.207175 0.448607
C42   C     C_R   0.422167 0.897258 0.803502 0.504442
C43   C     C_R   0.429237 0.130496 0.785016 0.441109
C44   C     C_R   0.566617 0.864452 0.223633 0.464078
C45   C     C_R   0.074027 0.618136 0.207174 0.448606
C46   C     C_R   0.922167 0.397257 0.803501 0.504439
C47   C     C_R   0.929237 0.630496 0.785017 0.441110
C48   C     C_R   0.066618 0.364452 0.223631 0.464076
C49   C     C_R   0.367729 0.171265 0.826316 -0.017518
C50   C     C_R   0.843569 0.635829 0.776118 -0.005788
C51   C     C_R   0.628427 0.824340 0.180858 -0.037015
C52   C     C_R   0.641363 0.144173 0.153785 0.018620
C53   C     C_R   0.352706 0.879597 0.864097 -0.042838
C54   C     C_R   0.867729 0.671265 0.826317 -0.017519
C55   C     C_R   0.128428 0.324341 0.180857 -0.037014
C56   C     C_R   0.141364 0.644173 0.153785 0.018620
C57   C     C_R   0.852707 0.379595 0.864095 -0.042837
C58   C     C_R   0.641489 0.185749 0.505942 0.104294
C59   C     C_R   0.315373 0.890077 0.498148 0.063051
C60   C     C_R   0.317276 0.118290 0.502377 0.123650
C61   C     C_R   0.155541 0.362914 0.225027 -0.004363
C62   C     C_R   0.677449 0.867890 0.498939 0.126944
C63   C     C_R   0.141488 0.685749 0.505942 0.104294
C64   C     C_R   0.815373 0.390077 0.498148 0.063052
C65   C     C_R   0.817276 0.618290 0.502377 0.123653
C66   C     C_R   0.177450 0.367891 0.498939 0.126943
C67   C     C_R   0.260427 0.244313 0.574421 -0.264912
C68   C     C_R   0.732131 0.740644 0.428744 -0.266248
C69   C     C_R   0.724951 0.292766 0.406801 -0.240816
C70   C     C_R   0.192366 0.854290 0.600400 -0.252709
C71   C     C_R   0.760432 0.744316 0.574414 -0.264914
C72   C     C_R   0.164664 0.612128 0.204553 0.011262
C73   C     C_R   0.232136 0.240648 0.428738 -0.266245
C74   C     C_R   0.224951 0.792766 0.406800 -0.240817
C75   C     C_R   0.692366 0.354290 0.600401 -0.252707
C76   C     C_R   0.732140 0.809935 0.567430 0.502313
C77   C     C_R   0.260442 0.174825 0.435838 0.506327
C78   C     C_R   0.268105 0.848039 0.400845 0.509713
C79   C     C_R   0.648127 0.300387 0.606668 0.484895
C80   C     C_R   0.232136 0.309933 0.567437 0.502307
C81   C     C_R   0.760438 0.674823 0.435843 0.506334
C82   C     C_R   0.768105 0.348039 0.400846 0.509715
C83   C     C_R   0.833194 0.394922 0.801610 0.012171
C84   C     C_R   0.148127 0.800388 0.606667 0.484896
C85   C     C_R   0.718163 0.807585 0.494298 -0.105738
C86   C     C_R   0.274749 0.177276 0.508647 -0.096405
C87   C     C_R   0.257411 0.869757 0.498325 -0.067581
C88   C     C_R   0.669764 0.261146 0.508254 -0.072468
C89   C     C_R   0.218163 0.307586 0.494298 -0.105735
C90   C     C_R   0.774750 0.677276 0.508646 -0.096409
C91   C     C_R   0.757411 0.369757 0.498325 -0.067577
C92   C     C_R   0.169763 0.761147 0.508254 -0.072466
C93   C     C_1   0.277072 0.154566 0.804713 0.143212
C94   C     C_2   0.680486 0.202118 0.069580 -0.110018
C95   C     C_1   0.724642 0.847935 0.188619 0.130535
C96   C     C_1   0.737027 0.094510 0.151494 0.183559
C97   C     C_1   0.261827 0.907465 0.846430 0.067509
C98   C     C_1   0.777072 0.654567 0.804712 0.143214
C99   C     C_1   0.224641 0.347934 0.188620 0.130536
C100  C     C_1   0.237027 0.594509 0.151495 0.183560
C101  C     C_1   0.761828 0.407464 0.846430 0.067510
C102  C     C_1   0.266433 0.914960 0.063986 0.379820
C103  C     C_1   0.692171 0.191078 0.966976 0.302375
C104  C     C_1   0.594624 0.687901 0.182187 0.277482
Cl1   Cl    Cl    0.533290 0.116097 0.148161 -0.555643
Cl2   Cl    Cl    0.276121 0.090602 0.354754 -0.528300
Cl3   Cl    Cl    0.332586 0.885867 0.269204 -0.477606
Cl4   Cl    Cl    0.568754 0.286132 0.740397 -0.618977
Cl5   Cl    Cl    0.217006 0.394222 0.648213 -0.532998
Cl6   Cl    Cl    0.776113 0.590597 0.354766 -0.528307
Cl7   Cl    Cl    0.832585 0.385868 0.269205 -0.477606
Cl8   Cl    Cl    0.068753 0.786134 0.740396 -0.618979
Cl9   Cl    Cl    0.343020 0.708991 0.882873 -0.594690
Cl10  Cl    Cl    0.681509 0.285873 0.219390 -0.677603
Cl11  Cl    Cl    0.736203 0.619649 0.039037 -0.661564
Cl12  Cl    Cl    0.462289 0.915579 0.862078 -0.489594
Cl13  Cl    Cl    0.255841 0.373309 0.958752 -0.596661
Cl14  Cl    Cl    0.843018 0.208989 0.882872 -0.594689
Cl15  Cl    Cl    0.181509 0.785873 0.219390 -0.677604
Cl16  Cl    Cl    0.236204 0.119651 0.039037 -0.661561
Cl17  Cl    Cl    0.755838 0.873306 0.958752 -0.596658
Cl18  Cl    Cl    0.456292 0.122433 0.864185 -0.459078
Cl19  Cl    Cl    0.522594 0.851350 0.170723 -0.535986
Cl20  Cl    Cl    0.033291 0.616097 0.148159 -0.555641
Cl21  Cl    Cl    0.962290 0.415576 0.862077 -0.489597
Cl22  Cl    Cl    0.956292 0.622433 0.864185 -0.459083
Cl23  Cl    Cl    0.022595 0.351352 0.170721 -0.535984
Cl24  Cl    Cl    0.717015 0.894227 0.648199 -0.533001
H1    H     H_    0.572089 0.148321 0.677849 0.223519
H2    H     H_    0.263871 0.906034 0.674834 0.114321
H3    H     H_    0.261765 0.087626 0.671891 0.134521
H4    H     H_    0.737243 0.900305 0.328602 0.138292
H5    H     H_    0.202824 0.658213 0.327109 0.134779
H6    H     H_    0.763871 0.406034 0.674834 0.114321
H7    H     H_    0.761765 0.587626 0.671891 0.134522
H8    H     H_    0.237243 0.400306 0.328602 0.138292
H9    H     H_    0.274246 0.246947 0.627522 0.190472
H10   H     H_    0.718659 0.738720 0.375148 0.189168
H11   H     H_    0.737991 0.272094 0.329948 0.216145
H12   H     H_    0.403065 0.917431 0.327854 0.226044
H13   H     H_    0.177642 0.878819 0.677103 0.182149
H14   H     H_    0.774255 0.746951 0.627510 0.190473
H15   H     H_    0.218668 0.238725 0.375137 0.189168
H16   H     H_    0.237991 0.772094 0.329948 0.216146
H17   H     H_    0.677642 0.378819 0.677103 0.182149
H18   H     H_    0.405668 0.107261 0.326178 0.212629
H19   H     H_    0.587183 0.877525 0.675956 0.196933
H20   H     H_    0.072089 0.648321 0.677849 0.223519
H21   H     H_    0.903066 0.417430 0.327854 0.226044
H22   H     H_    0.905667 0.607262 0.326178 0.212626
H23   H     H_    0.087183 0.377526 0.675957 0.196937
H24   H     H_    0.702825 0.158213 0.327109 0.134778
N1    N     N_R   0.388930 0.078160 0.705470 -0.094670
N2    N     N_R   0.419500 0.922160 0.443350 -0.069323
N3    N     N_R   0.419500 0.077840 0.443350 -0.059839
N4    N     N_R   0.580500 0.922160 0.556650 -0.060045
N5    N     N_R   0.080500 0.577840 0.556650 -0.056194
N6    N     N_R   0.919500 0.422160 0.443350 -0.069322
N7    N     N_R   0.919500 0.577840 0.443350 -0.059839
N8    N     N_R   0.080500 0.422160 0.556650 -0.060045
N9    N     N_R   0.626210 0.077590 0.443410 -0.058703
N10   N     N_R   0.373790 0.922410 0.556590 -0.052780
N11   N     N_R   0.373790 0.077590 0.556590 -0.055718
N12   N     N_R   0.611070 0.921840 0.294530 -0.095202
N13   N     N_R   0.626210 0.922410 0.443410 -0.059708
N14   N     N_R   0.126210 0.577590 0.443410 -0.058703
N15   N     N_R   0.873790 0.422410 0.556590 -0.052780
N16   N     N_R   0.873790 0.577590 0.556590 -0.055718
N17   N     N_R   0.126210 0.422410 0.443410 -0.059707
N18   N     N_R   0.554800 0.077270 0.294580 -0.099566
N19   N     N_R   0.445200 0.922730 0.705420 -0.112570
N20   N     N_R   0.445200 0.077270 0.705420 -0.110488
N21   N     N_R   0.554800 0.922730 0.294580 -0.104059
N22   N     N_R   0.054800 0.577270 0.294580 -0.099566
N23   N     N_R   0.611070 0.078160 0.294530 -0.094772
N24   N     N_R   0.945200 0.422730 0.705420 -0.112570
N25   N     N_R   0.945200 0.577270 0.705420 -0.110488
N26   N     N_R   0.054800 0.422730 0.294580 -0.104059
N27   N     N_1   0.222804 0.171364 0.831513 -0.040540
N28   N     N_1   0.780985 0.834483 0.155570 -0.037600
N29   N     N_1   0.795067 0.080250 0.108848 -0.011797
N30   N     N_1   0.204155 0.917650 0.883980 -0.053506
N31   N     N_1   0.722804 0.671366 0.831511 -0.040538
N32   N     N_1   0.280984 0.334481 0.155574 -0.037600
N33   N     N_1   0.295067 0.580249 0.108849 -0.011796
N34   N     N_R   0.388930 0.921840 0.705470 -0.087073
N35   N     N_1   0.704155 0.417649 0.883980 -0.053506
N36   N     N_1   0.235854 0.962548 0.134389 0.071908
N37   N     N_1   0.701401 0.182336 0.885076 0.015208
N38   N     N_1   0.550448 0.642506 0.227017 -0.023708
N39   N     N_1   0.440251 0.356971 0.773344 0.015131
N40   N     N_1   0.735858 0.462549 0.134386 0.071912
N41   N     N_1   0.201405 0.682333 0.885073 0.015206
N42   N     N_1   0.050449 0.142506 0.227015 -0.023707
N43   N     N_1   0.940247 0.856972 0.773351 0.015134
N44   N     N_R   0.888930 0.578160 0.705470 -0.094670
N45   N     N_R   0.111070 0.421840 0.294530 -0.095203
N46   N     N_R   0.111070 0.578160 0.294530 -0.094771
N47   N     N_R   0.888930 0.421840 0.705470 -0.087073
N48   N     N_R   0.580500 0.077840 0.556650 -0.056195
Ni1   Ni    Ni4+2 0.382710 1.000000 0.629850 0.217399
Ni2   Ni    Ni4+2 0.617290 0.000000 0.370150 0.223175
Ni3   Ni    Ni4+2 0.882710 0.500000 0.629850 0.217400
Ni4   Ni    Ni4+2 0.117290 0.500000 0.370150 0.223175
Ni5   Ni    Ni4+2 0.513020 1.000000 0.629850 0.307628
Ni6   Ni    Ni4+2 0.486980 0.000000 0.370150 0.297100
Ni7   Ni    Ni4+2 0.013020 0.500000 0.629850 0.307628
Ni8   Ni    Ni4+2 0.986980 0.500000 0.370150 0.297100

loop_
_geom_bond_atom_site_label_1
_geom_bond_atom_site_label_2
_ccdc_geom_bond_type
C78   C87   A    
C33   H2    S    
C23   C58   A    
N22   Ni8   S    
C69   H11   S    
N48   Ni5   S    
N25   N44   A    
C25   N3    A    
C18   C21   S    
C4    N40   T    
C46   Cl21  S    
C26   N4    A    
N5    Ni7   S    
C32   C58   A    
C96   N29   T    
N17   Ni4   S    
N3    Ni6   S    
C13   C55   S    
C36   H5    S    
C17   C51   A    
C48   N26   A    
C93   N27   T    
C97   N30   T    
C37   N15   A    
C24   H12   S    
C38   N16   A    
C40   H8    S    
C50   C54   A    
C41   Cl1   S    
C68   C81   A    
N12   Ni2   S    
N24   Ni7   S    
N20   Ni5   S    
C48   Cl23  S    
N18   Ni6   S    
C24   C59   A    
C42   C53   A    
C72   C100  S    
C71   C76   A    
C39   C97   S    
C2    C102  S    
C77   Cl2   S    
C55   C61   A    
C80   C89   A    
N7    N16   A    
C23   H1    S    
N45   Ni4   S    
C34   H3    S    
C65   C90   S    
C74   C92   A    
C98   N31   T    
C79   C88   A    
C69   C82   A    
C39   N34   A    
C68   H10   S    
C45   C56   A    
C27   H20   S    
C56   C72   A    
N26   Ni8   S    
C63   C92   S    
C13   C22   D    
N8    N17   A    
C15   Cl9   S    
C52   C94   S    
N21   Ni6   S    
C17   C95   S    
C25   C60   A    
N15   Ni3   S    
N19   Ni5   S    
C36   C63   A    
C70   C84   A    
C41   C52   A    
C31   N8    A    
N19   N34   A    
C75   C91   A    
C67   C86   A    
C33   C59   A    
C29   C64   A    
C19   Cl15  S    
C8    C16   D    
C40   C66   A    
C34   C60   A    
C68   C85   A    
C61   C99   S    
C50   N44   A    
N47   Ni3   S    
C70   C87   A    
C20   Cl14  S    
C40   N17   A    
C24   N2    A    
N6    N15   A    
C66   C89   S    
N1    Ni1   S    
N18   N23   A    
C45   Cl20  S    
C30   N7    A    
C62   C85   S    
C11   C20   D    
C50   C98   S    
N22   N46   A    
N10   Ni1   S    
C14   C20   S    
N9    Ni2   S    
N7    Ni8   S    
C44   N21   A    
C34   N11   A    
C61   N45   A    
C48   C55   A    
C60   C86   S    
C43   C49   A    
N14   Ni4   S    
N3    N11   A    
C14   Cl10  S    
C72   N46   A    
C12   C21   D    
C75   H17   S    
C82   C91   A    
N25   Ni7   S    
N34   Ni1   S    
C78   Cl3   S    
C4    C11   S    
C80   Cl5   S    
C15   C19   S    
N13   Ni2   S    
N4    Ni5   S    
C17   N12   A    
C3    N39   T    
C31   H23   S    
C95   N28   T    
C32   H24   S    
C38   C65   A    
C10   C19   D    
C43   N20   A    
C104  N38   T    
C32   N9    A    
C35   H4    S    
C57   C83   A    
C99   N32   T    
N12   N21   A    
C84   Cl8   S    
C38   H7    S    
N44   Ni3   S    
C1    N1    A    
C2    C15   D    
C43   Cl18  S    
C22   Cl16  S    
N2    Ni6   S    
C69   C88   A    
C27   C63   A    
C47   C54   A    
C103  N37   T    
C81   C90   A    
C44   C51   A    
C42   Cl12  S    
N26   N45   A    
C94   C103  S    
C3    C8    S    
C71   H14   S    
C46   C57   A    
N46   Ni4   S    
C76   Cl24  S    
C46   N24   A    
C7    C12   S    
N24   N47   A    
C83   N47   A    
C6    N42   T    
C37   C64   A    
C10   C56   S    
C47   Cl22  S    
C5    N41   T    
C73   H15   S    
C74   H16   S    
N11   Ni1   S    
C70   H13   S    
C16   C22   S    
C83   C101  S    
N9    N48   A    
C8    C49   S    
C31   C66   A    
N2    N10   A    
C67   C80   A    
N23   Ni2   S    
C2    C53   S    
C58   C88   S    
C18   Cl11  S    
C77   C86   A    
N5    N14   A    
C28   N23   A    
C29   N6    A    
C27   N5    A    
C41   N18   A    
C44   Cl19  S    
N16   Ni3   S    
C28   C96   S    
N6    Ni8   S    
C9    C51   S    
C33   N10   A    
C26   C62   A    
C73   C89   A    
C5    C10   S    
C47   N25   A    
C101  N35   T    
C45   N22   A    
C82   Cl7   S    
C6    C13   S    
C28   C52   A    
C39   C53   A    
C71   C90   A    
C75   C79   A    
N4    N13   A    
C9    C104  S    
C23   N48   A    
N1    N20   A    
C1    C49   A    
C35   N13   A    
C79   Cl4   S    
C100  N33   T    
C35   C62   A    
C21   Cl17  S    
C26   H19   S    
C67   H9    S    
C59   C87   S    
C30   C65   A    
C30   H22   S    
C42   N19   A    
C29   H21   S    
C9    C18   D    
C25   H18   S    
C81   Cl6   S    
C1    C93   S    
C36   N14   A    
C74   C78   A    
C73   C77   A    
C37   H6    S    
C16   Cl13  S    
C84   C92   A    
C64   C91   S    
C102  N36   T    
C11   C57   S    
C7    N43   T    
C76   C85   A    
C14   C94   D    
C12   C54   S    
N8    Ni7   S    
