data_mof_unit_17137.cif
_audit_creation_date              2012-12-10T21:41:18-0500
_audit_creation_method            fapswitch 2.2
_symmetry_space_group_name_H-M    P1
_symmetry_Int_Tables_number       1
_space_group_crystal_system       triclinic
_cell_length_a                    23.411693
_cell_length_b                    24.25502
_cell_length_c                    16.259519
_cell_angle_alpha                 90.170179
_cell_angle_beta                  95.036733
_cell_angle_gamma                 89.672771
_cell_volume                      9197.15511561

loop_
_atom_site_label
_atom_site_type_symbol
_atom_type_description
_atom_site_fract_x
_atom_site_fract_y
_atom_site_fract_z
_atom_type_partial_charge
C1    C     C_R   0.576088 0.076056 0.511671 0.834224
C2    C     C_R   0.424859 0.922028 0.488211 0.861908
C3    C     C_R   0.424001 0.076281 0.488499 0.836710
C4    C     C_R   0.575896 0.922309 0.511675 0.861103
C5    C     C_R   0.075640 0.576464 0.511461 0.883499
C6    C     C_R   0.925783 0.421272 0.488651 0.849996
C7    C     C_R   0.924773 0.577758 0.489095 0.889846
C8    C     C_R   0.075152 0.422005 0.511371 0.847456
C9    C     C_R   0.516759 0.000762 0.110584 0.131300
C10   C     C_R   0.482951 0.000810 0.889319 0.132835
C11   C     C_R   0.018438 0.499597 0.110738 0.145162
C12   C     C_R   0.984325 0.499231 0.889471 0.134125
C13   C     C_R   0.565680 0.989623 0.164958 -0.190144
C14   C     C_R   0.434179 0.989819 0.834675 -0.195601
C15   C     C_R   0.067629 0.492153 0.166496 -0.201996
C16   C     C_R   0.935511 0.487218 0.835325 -0.193343
C17   C     C_R   0.561619 0.990935 0.251902 0.034088
C18   C     C_R   0.438391 0.991261 0.747813 0.032477
C19   C     C_R   0.062412 0.494569 0.253141 0.030747
C20   C     C_R   0.938948 0.489928 0.748378 0.023568
C21   C     C_R   0.624114 0.882267 0.519448 -0.235546
C22   C     C_R   0.381766 0.120021 0.479741 -0.253384
C23   C     C_R   0.379888 0.879399 0.479910 -0.232138
C24   C     C_R   0.619242 0.118597 0.520770 -0.251371
C25   C     C_R   0.119205 0.378247 0.516873 -0.218431
C26   C     C_R   0.886896 0.626472 0.484465 -0.210076
C27   C     C_R   0.884352 0.375304 0.482967 -0.222867
C28   C     C_R   0.116181 0.621395 0.518288 -0.214142
C29   C     C_R   0.640365 0.857472 0.446161 -0.155558
C30   C     C_R   0.396979 0.173122 0.509265 -0.156723
C31   C     C_R   0.366498 0.851747 0.552278 -0.163148
C32   C     C_R   0.605406 0.171938 0.490800 -0.159782
C33   C     C_R   0.126338 0.347892 0.444029 -0.147987
C34   C     C_R   0.896629 0.669516 0.543404 -0.147126
C35   C     C_R   0.875583 0.346851 0.556643 -0.153995
C36   C     C_R   0.100781 0.671702 0.478524 -0.133047
C37   C     C_R   0.697911 0.843434 0.440902 0.468712
C38   C     C_R   0.359529 0.216936 0.488623 0.486965
C39   C     C_R   0.311626 0.830150 0.555323 0.468270
C40   C     C_R   0.644237 0.214512 0.510535 0.489308
C41   C     C_R   0.180469 0.326922 0.431568 0.477087
C42   C     C_R   0.860347 0.715876 0.540446 0.364365
C43   C     C_R   0.822299 0.322987 0.564825 0.464050
C44   C     C_R   0.140493 0.714709 0.482375 0.458247
C45   C     C_R   0.735008 0.838994 0.513868 0.110177
C46   C     C_R   0.303254 0.206106 0.453118 0.095491
C47   C     C_R   0.275905 0.823785 0.481318 0.116445
C48   C     C_R   0.700362 0.201887 0.545153 0.101729
C49   C     C_R   0.222671 0.323232 0.499175 0.108242
C50   C     C_R   0.812338 0.717871 0.481472 0.170849
C51   C     C_R   0.783746 0.314898 0.493841 0.120697
C52   C     C_R   0.196927 0.705494 0.519532 0.098300
C53   C     C_R   0.717546 0.857743 0.589735 -0.140531
C54   C     C_R   0.287499 0.152612 0.426012 -0.110311
C55   C     C_R   0.291004 0.845834 0.406451 -0.155677
C56   C     C_R   0.714774 0.148167 0.572828 -0.113054
C57   C     C_R   0.214051 0.348519 0.575233 -0.154747
C58   C     C_R   0.801663 0.674579 0.424186 -0.124181
C59   C     C_R   0.795351 0.337047 0.417079 -0.154701
C60   C     C_R   0.211994 0.655023 0.558789 -0.122371
C61   C     C_R   0.661327 0.878424 0.593255 -0.109450
C62   C     C_R   0.327424 0.109089 0.438218 -0.095461
C63   C     C_R   0.343940 0.873002 0.405198 -0.100577
C64   C     C_R   0.673560 0.106050 0.561630 -0.094464
C65   C     C_R   0.161548 0.375504 0.584734 -0.106732
C66   C     C_R   0.838859 0.628676 0.425695 -0.132657
C67   C     C_R   0.846640 0.366410 0.411054 -0.123142
C68   C     C_R   0.171438 0.612381 0.558058 -0.112791
C69   C     C_R   0.461772 0.011690 0.231365 -0.061976
C70   C     C_R   0.538066 0.011530 0.768822 -0.064108
C71   C     C_R   0.961234 0.504707 0.229851 -0.057744
C72   C     C_R   0.038032 0.512366 0.768428 -0.056930
C73   C     C_R   0.465422 0.015907 0.144964 0.389507
C74   C     C_R   0.534247 0.015792 0.855212 0.389751
C75   C     C_R   0.965485 0.509659 0.143818 0.399283
C76   C     C_R   0.034701 0.516119 0.854884 0.380643
N1    N     N_2   0.783366 0.803834 0.513984 -0.095078
N2    N     N_2   0.259097 0.246151 0.451946 -0.095232
N3    N     N_2   0.228509 0.788362 0.480083 -0.077511
N4    N     N_2   0.745170 0.240745 0.546200 -0.090005
N5    N     N_2   0.270040 0.287288 0.496250 -0.071068
N6    N     N_2   0.768526 0.757913 0.485363 -0.101172
N7    N     N_2   0.736710 0.278835 0.495468 -0.066449
N8    N     N_2   0.241656 0.744019 0.514993 -0.085257
N9    N     N_R   0.509690 0.000000 0.283730 -0.181740
N10   N     N_R   0.490310 0.000000 0.716270 -0.182158
N11   N     N_R   0.009690 0.500000 0.283730 -0.179297
N12   N     N_R   0.990310 0.500000 0.716270 -0.181945
N13   N     N_2   0.522579 0.000281 0.023095 -0.054581
N14   N     N_2   0.477050 0.000352 0.976788 -0.054108
N15   N     N_2   0.024659 0.499619 0.023299 -0.047628
N16   N     N_2   0.979120 0.497969 0.977000 -0.052924
O1    O     O_R   0.554580 0.058040 0.577230 -0.640784
O2    O     O_R   0.445420 0.941960 0.422770 -0.592073
O3    O     O_R   0.445420 0.058040 0.422770 -0.640019
O4    O     O_R   0.554580 0.941960 0.577230 -0.590696
O5    O     O_R   0.054580 0.558040 0.577230 -0.597987
O6    O     O_R   0.945420 0.441960 0.422770 -0.601182
O7    O     O_R   0.945420 0.558040 0.422770 -0.655738
O8    O     O_R   0.054580 0.441960 0.577230 -0.600873
O9    O     O_R   0.560810 0.058060 0.438340 -0.648469
O10   O     O_R   0.439190 0.941940 0.561660 -0.631889
O11   O     O_R   0.439190 0.058060 0.561660 -0.648175
O12   O     O_R   0.560810 0.941940 0.438340 -0.634518
O13   O     O_R   0.060810 0.558060 0.438340 -0.661907
O14   O     O_R   0.939190 0.441940 0.561660 -0.633172
O15   O     O_R   0.939190 0.558060 0.561660 -0.618764
O16   O     O_R   0.060810 0.441940 0.438340 -0.610485
Zn1   Zn    Zn3+2 0.495820 0.000000 0.592740 0.942023
Zn2   Zn    Zn3+2 0.504180 0.000000 0.407260 0.941741
Zn3   Zn    Zn3+2 0.995820 0.500000 0.592740 0.965418
Zn4   Zn    Zn3+2 0.004180 0.500000 0.407260 0.949629
C77   C     C_2   0.451408 0.182899 0.562554 0.418351
H1    H     H_    0.484430 0.151505 0.570074 0.058368
O17   O     O_2   0.459619 0.225828 0.601073 -0.535464
C78   C     C_2   0.596150 0.843568 0.377283 0.616150
H2    H     H_    0.550961 0.845398 0.387384 0.051732
O18   O     O_2   0.609135 0.828842 0.309479 -0.460139
C79   C     C_2   0.551172 0.183164 0.437613 0.421889
H3    H     H_    0.517326 0.152893 0.430471 0.055411
O19   O     O_2   0.544075 0.225982 0.398668 -0.535914
C80   C     C_2   0.411293 0.842316 0.622261 0.621879
H4    H     H_    0.456323 0.846531 0.612444 0.056096
O20   O     O_2   0.398984 0.829148 0.690915 -0.460195
C81   C     C_2   0.941792 0.665835 0.613321 0.429105
H5    H     H_    0.930662 0.673214 0.675789 0.074393
O21   O     O_2   0.991750 0.657058 0.601587 -0.608083
C82   C     C_2   0.076487 0.337703 0.381862 0.612843
H6    H     H_    0.033115 0.344241 0.398776 0.049543
O22   O     O_2   0.082759 0.321611 0.311995 -0.477624
C83   C     C_2   0.043458 0.678851 0.431191 0.469949
H7    H     H_    0.007854 0.652939 0.443689 0.098640
O23   O     O_2   0.035526 0.712853 0.376085 -0.537302
C84   C     C_2   0.923287 0.340282 0.623453 0.612149
H8    H     H_    0.967239 0.347479 0.610037 0.048756
O24   O     O_2   0.914661 0.326250 0.693320 -0.476303
O25   O     O_3   0.377079 0.270385 0.506311 -0.548388
C85   C     C_3   0.400677 0.292037 0.436341 0.104669
H9    H     H_    0.370562 0.287532 0.379683 0.107620
H10   H     H_    0.441664 0.270489 0.426682 0.182342
C86   C     C_3   0.412685 0.353273 0.450610 -0.287750
H11   H     H_    0.372018 0.375029 0.461121 0.234674
H12   H     H_    0.443088 0.358470 0.506472 0.248972
C87   C     C_3   0.438295 0.379041 0.376752 -0.949086
H13   H     H_    0.479148 0.358038 0.365302 0.290010
H14   H     H_    0.447167 0.423311 0.389474 0.273598
H15   H     H_    0.407760 0.375738 0.320681 0.264143
O26   O     O_3   0.715896 0.826957 0.365641 -0.534474
C88   C     C_3   0.758947 0.862909 0.342299 0.144619
H16   H     H_    0.801051 0.851523 0.374994 0.128232
H17   H     H_    0.749169 0.906884 0.356248 0.143901
C89   C     C_3   0.763231 0.857221 0.249447 -0.231703
H18   H     H_    0.774613 0.813954 0.234748 0.247352
H19   H     H_    0.720979 0.867156 0.215983 0.277601
C90   C     C_3   0.808433 0.895759 0.219893 -0.954971
H20   H     H_    0.797111 0.939372 0.232212 0.273069
H21   H     H_    0.810628 0.890384 0.152403 0.284794
H22   H     H_    0.851220 0.886146 0.251823 0.267808
O27   O     O_3   0.628375 0.268543 0.492849 -0.554903
C91   C     C_3   0.602024 0.290409 0.560747 0.102864
H23   H     H_    0.630376 0.285881 0.619143 0.109222
H24   H     H_    0.560755 0.269053 0.567564 0.185583
C92   C     C_3   0.589755 0.351607 0.545715 -0.300162
H25   H     H_    0.630620 0.373317 0.537877 0.226993
H26   H     H_    0.560935 0.356590 0.488130 0.249995
C93   C     C_3   0.561427 0.377664 0.617483 -0.937783
H27   H     H_    0.520613 0.356389 0.626803 0.291590
H28   H     H_    0.551947 0.421767 0.603863 0.272576
H29   H     H_    0.590504 0.375008 0.675099 0.263356
O28   O     O_3   0.295889 0.807673 0.628328 -0.547410
C94   C     C_3   0.251140 0.839382 0.658195 0.133489
H30   H     H_    0.218599 0.853415 0.608336 0.095783
H31   H     H_    0.269583 0.876306 0.690935 0.206414
C95   C     C_3   0.220627 0.804474 0.718849 -0.273394
H32   H     H_    0.203220 0.766765 0.686944 0.234106
H33   H     H_    0.251852 0.791634 0.770813 0.265581
C96   C     C_3   0.171479 0.836290 0.753106 -0.971820
H34   H     H_    0.187954 0.873807 0.786386 0.284174
H35   H     H_    0.150367 0.809783 0.796911 0.279047
H36   H     H_    0.139079 0.848500 0.702332 0.256742
O29   O     O_3   0.866342 0.754761 0.603420 -0.620104
C97   C     C_3   0.913935 0.789443 0.594101 0.130554
H37   H     H_    0.898306 0.827943 0.562539 0.182815
H38   H     H_    0.947017 0.770871 0.556822 0.111173
C98   C     C_3   0.942292 0.803841 0.679987 -0.289342
H39   H     H_    0.910483 0.823821 0.717350 0.275401
H40   H     H_    0.957628 0.765583 0.712292 0.205654
C99   C     C_3   0.993062 0.842390 0.675478 -0.965925
H41   H     H_    0.026492 0.822315 0.641187 0.258663
H42   H     H_    0.012029 0.852004 0.738857 0.279135
H43   H     H_    0.978844 0.881553 0.644751 0.281049
O30   O     O_3   0.190737 0.307057 0.354092 -0.550375
C100  C     C_3   0.232293 0.340201 0.320004 0.130024
H44   H     H_    0.275800 0.323535 0.338271 0.129237
H45   H     H_    0.230938 0.384119 0.340513 0.154711
C101  C     C_3   0.221938 0.338626 0.225965 -0.236402
H46   H     H_    0.225372 0.295365 0.204089 0.242160
H47   H     H_    0.177970 0.354095 0.206980 0.279559
C102  C     C_3   0.265276 0.374066 0.185629 -0.938125
H48   H     H_    0.261487 0.417793 0.205061 0.273376
H49   H     H_    0.256812 0.371746 0.117441 0.292075
H50   H     H_    0.309593 0.359064 0.203144 0.255455
O31   O     O_3   0.125872 0.763798 0.442462 -0.544914
C103  C     C_3   0.100053 0.799648 0.497181 0.114315
H51   H     H_    0.125036 0.801574 0.558782 0.101568
H52   H     H_    0.055727 0.785662 0.505359 0.148733
C104  C     C_3   0.097604 0.857506 0.459874 -0.241956
H53   H     H_    0.141958 0.872894 0.456501 0.240480
H54   H     H_    0.076136 0.855782 0.396163 0.263505
C105  C     C_3   0.065048 0.897835 0.510819 -1.009026
H55   H     H_    0.019540 0.885133 0.510374 0.272575
H56   H     H_    0.066333 0.939670 0.483535 0.286417
H57   H     H_    0.084943 0.899591 0.575342 0.270458
O32   O     O_3   0.809535 0.304862 0.641881 -0.551488
C106  C     C_3   0.766270 0.338915 0.670936 0.128396
H58   H     H_    0.723454 0.324738 0.644908 0.126369
H59   H     H_    0.770912 0.383040 0.653754 0.160964
C107  C     C_3   0.769278 0.334862 0.764937 -0.231247
H60   H     H_    0.763182 0.291256 0.782972 0.238961
H61   H     H_    0.812246 0.348464 0.791682 0.282521
C108  C     C_3   0.723415 0.370672 0.800067 -0.948083
H62   H     H_    0.729261 0.414616 0.783811 0.276179
H63   H     H_    0.726911 0.366923 0.868367 0.288294
H64   H     H_    0.680016 0.357053 0.775435 0.254816
C109  C     C_2   0.757296 0.853192 0.665997 0.496962
H65   H     H_    0.740942 0.847116 0.725663 0.054065
O33   O     O_2   0.808925 0.857776 0.663161 -0.556207
C110  C     C_2   0.227617 0.141821 0.390947 0.552591
H66   H     H_    0.206785 0.103351 0.403750 0.081474
O34   O     O_2   0.201094 0.175606 0.346814 -0.503325
C111  C     C_2   0.253046 0.837731 0.328475 0.464014
H67   H     H_    0.270281 0.840045 0.268843 0.067538
O35   O     O_2   0.201789 0.829156 0.329542 -0.519309
C112  C     C_2   0.774514 0.135527 0.607245 0.550091
H68   H     H_    0.794070 0.096047 0.595025 0.083751
O36   O     O_2   0.802375 0.168928 0.650162 -0.505558
C113  C     C_2   0.259061 0.344796 0.646158 0.462545
H69   H     H_    0.247713 0.348801 0.709147 0.063518
O37   O     O_2   0.309596 0.338294 0.635178 -0.502065
C114  C     C_2   0.748100 0.674995 0.367437 0.535569
H70   H     H_    0.724065 0.637303 0.355261 0.081451
O38   O     O_2   0.730991 0.717089 0.332350 -0.498568
C115  C     C_2   0.754943 0.327450 0.342042 0.448527
H71   H     H_    0.770209 0.327841 0.280988 0.063019
O39   O     O_2   0.703846 0.319985 0.347251 -0.500227
C116  C     C_2   0.272089 0.645584 0.594534 0.549391
H72   H     H_    0.292654 0.605847 0.587768 0.081341
O40   O     O_2   0.298985 0.681880 0.632693 -0.502560
C117  C     C_2   0.641908 0.893381 0.674871 0.415793
H73   H     H_    0.669232 0.917796 0.718136 0.076645
O41   O     O_2   0.596632 0.875963 0.696091 -0.526085
C118  C     C_2   0.312559 0.051429 0.411987 0.390510
H74   H     H_    0.332295 0.016757 0.445892 0.031543
O42   O     O_2   0.279913 0.041860 0.350957 -0.547150
C119  C     C_2   0.361306 0.892537 0.324800 0.412706
H75   H     H_    0.332316 0.918121 0.285372 0.073534
O43   O     O_2   0.406631 0.877456 0.300055 -0.524093
C120  C     C_2   0.687134 0.048102 0.587898 0.389653
H76   H     H_    0.666654 0.013888 0.553996 0.030781
O44   O     O_2   0.719566 0.037858 0.648938 -0.546229
C121  C     C_2   0.151632 0.399682 0.666043 0.394240
H77   H     H_    0.183239 0.426982 0.697028 0.078862
O45   O     O_2   0.109639 0.386710 0.700987 -0.525751
C122  C     C_2   0.824600 0.580589 0.371314 0.386765
H78   H     H_    0.829609 0.539189 0.396021 0.032130
O46   O     O_2   0.807591 0.586823 0.298768 -0.536344
C123  C     C_2   0.860699 0.385618 0.328916 0.417209
H79   H     H_    0.828748 0.407527 0.288963 0.085012
O47   O     O_2   0.906806 0.374024 0.303372 -0.518028
C124  C     C_2   0.186943 0.557027 0.593722 0.403657
H80   H     H_    0.167387 0.520127 0.566151 0.017123
O48   O     O_2   0.220230 0.552006 0.655401 -0.538620
C125  C     C_2   0.594346 0.018483 0.735375 0.537416
H81   H     H_    0.602466 0.999696 0.677784 0.099083
O49   O     O_2   0.633090 0.044563 0.772146 -0.525717
C126  C     C_2   0.405442 0.018762 0.264945 0.540465
H82   H     H_    0.397438 0.999889 0.322312 0.098170
O50   O     O_2   0.366508 0.045057 0.228507 -0.525457
C127  C     C_2   0.093936 0.520500 0.734684 0.577760
H83   H     H_    0.102818 0.500632 0.678190 0.088280
O51   O     O_2   0.131435 0.548839 0.770023 -0.526533
C128  C     C_2   0.903791 0.502411 0.260759 0.536857
H84   H     H_    0.899237 0.499882 0.325212 0.091597
O52   O     O_2   0.860071 0.500538 0.214008 -0.509297
O53   O     O_3   0.581138 0.033613 0.905897 -0.556652
C129  C     C_3   0.574824 0.090843 0.919945 0.125518
H85   H     H_    0.533326 0.100350 0.945800 0.096724
H86   H     H_    0.576619 0.114158 0.861295 0.160818
C130  C     C_3   0.623550 0.110100 0.981771 -0.279733
H87   H     H_    0.622254 0.086840 0.040354 0.210128
H88   H     H_    0.665342 0.101642 0.956522 0.261295
C131  C     C_3   0.618661 0.171626 0.999888 -0.945655
H89   H     H_    0.620734 0.195856 0.942364 0.275191
H90   H     H_    0.654634 0.184286 0.044911 0.280079
H91   H     H_    0.577593 0.180770 0.026716 0.261755
O54   O     O_3   0.418329 0.033851 0.094521 -0.555890
C132  C     C_3   0.424161 0.091057 0.080853 0.125452
H92   H     H_    0.465540 0.100426 0.054941 0.096731
H93   H     H_    0.422261 0.114402 0.139681 0.160459
C133  C     C_3   0.375203 0.110443 0.019292 -0.277383
H94   H     H_    0.376604 0.087152 0.960534 0.210434
H95   H     H_    0.333522 0.102127 0.044610 0.261700
C134  C     C_3   0.379572 0.171948 0.001592 -0.949172
H96   H     H_    0.377386 0.196206 0.059304 0.275336
H97   H     H_    0.343441 0.184706 0.956756 0.279556
H98   H     H_    0.420523 0.180953 0.974705 0.261718
O55   O     O_3   0.081324 0.535020 0.905110 -0.552165
C135  C     C_3   0.073273 0.591951 0.919844 0.122264
H99   H     H_    0.032667 0.599686 0.949166 0.097822
H100  H     H_    0.071863 0.615548 0.860970 0.157899
C136  C     C_3   0.123243 0.612897 0.978053 -0.267504
H101  H     H_    0.124926 0.589712 0.037078 0.218661
H102  H     H_    0.164129 0.605740 0.949603 0.263007
C137  C     C_3   0.116897 0.674290 0.996130 -0.948311
H103  H     H_    0.116081 0.698448 0.938090 0.272045
H104  H     H_    0.153794 0.688182 0.038552 0.283118
H105  H     H_    0.076733 0.682204 0.025995 0.263665
O56   O     O_3   0.917505 0.523974 0.092335 -0.547471
C138  C     C_3   0.914962 0.582074 0.086510 0.113829
H106  H     H_    0.955263 0.598851 0.064715 0.097890
H107  H     H_    0.907976 0.600630 0.147652 0.162046
C139  C     C_3   0.864975 0.598349 0.024498 -0.269236
H108  H     H_    0.871619 0.580172 0.963219 0.203315
H109  H     H_    0.824408 0.581834 0.045106 0.264975
C140  C     C_3   0.859844 0.660852 0.015992 -0.941976
H110  H     H_    0.852222 0.679919 0.076296 0.285448
H111  H     H_    0.823221 0.671285 0.970533 0.274905
H112  H     H_    0.899628 0.678087 0.993971 0.257113
C141  C     C_2   0.622118 0.980202 0.130951 0.526285
H113  H     H_    0.661349 0.994724 0.164272 0.059565
O57   O     O_2   0.625579 0.955604 0.065928 -0.489579
C142  C     C_2   0.377716 0.980342 0.868200 0.532362
H114  H     H_    0.338328 0.994031 0.834087 0.059257
O58   O     O_2   0.374388 0.956606 0.933715 -0.485318
C143  C     C_2   0.125194 0.484077 0.135023 0.482449
H115  H     H_    0.163877 0.494994 0.173042 0.056535
O59   O     O_2   0.130391 0.464267 0.066949 -0.494635
C144  C     C_2   0.879817 0.475089 0.869493 0.513162
H116  H     H_    0.839660 0.487639 0.836326 0.057895
O60   O     O_2   0.878012 0.450289 0.934446 -0.483568
C145  C     C_2   0.613925 0.982305 0.308479 0.401882
H117  H     H_    0.623184 0.008269 0.361755 0.103308
O61   O     O_2   0.647715 0.945367 0.296141 -0.607639
C146  C     C_2   0.386228 0.983358 0.690933 0.413185
H118  H     H_    0.376069 0.010899 0.639803 0.098758
O62   O     O_2   0.353653 0.945322 0.700604 -0.608550
C147  C     C_2   0.114289 0.489126 0.310822 0.438744
H119  H     H_    0.128113 0.522536 0.351737 0.075623
O63   O     O_2   0.143114 0.447080 0.311411 -0.617086
C148  C     C_2   0.886783 0.481836 0.691894 0.412545
H120  H     H_    0.875891 0.510076 0.641751 0.091092
O64   O     O_2   0.855417 0.442699 0.700384 -0.617523

loop_
_geom_bond_atom_site_label_1
_geom_bond_atom_site_label_2
_ccdc_geom_bond_type
C139  H109  S    
C119  O43   D    
C51   N7    S    
C141  O57   D    
C34   C42   A    
C134  H97   S    
C5    O13   A    
C94   H31   S    
C128  H84   S    
C7    O7    A    
C99   H43   S    
C17   N9    A    
C92   H26   S    
C19   N11   A    
C101  C102  S    
C139  C140  S    
C30   C38   A    
C52   N8    S    
C9    C13   A    
C97   H37   S    
C53   C109  S    
C4    O4    A    
C11   C15   A    
C12   C16   A    
C70   C74   A    
C104  C105  S    
C135  C136  S    
C79   O19   D    
C102  H48   S    
C70   C125  S    
C90   H22   S    
C112  O36   D    
N4    N7    D    
C35   C84   S    
C41   C49   A    
C110  H66   S    
C42   O29   S    
C19   C147  S    
C91   C92   S    
N9    Zn2   S    
C86   C87   S    
C143  O59   D    
C101  H46   S    
N11   Zn4   S    
C27   C35   A    
C137  H103  S    
C21   C29   A    
C97   C98   S    
C23   C31   A    
C106  H58   S    
C24   C32   A    
C134  H96   S    
C16   C20   A    
C6    O14   A    
C95   C96   S    
C85   H10   S    
O54   C132  S    
O13   Zn4   S    
C124  O48   D    
C36   C83   S    
C37   C45   A    
C1    O9    A    
C133  H94   S    
C39   C47   A    
C3    O11   A    
C40   C48   A    
C129  C130  S    
C26   C34   A    
C71   C128  S    
C87   H13   S    
C85   C86   S    
O4    Zn1   S    
C60   C68   A    
C131  H90   S    
O12   Zn2   S    
C126  H82   S    
N1    N6    D    
C34   C81   S    
C4    O12   A    
C78   O18   D    
C127  O51   D    
C148  H120  S    
C143  H115  S    
C11   N15   S    
O8    Zn3   S    
C1    O1    A    
C100  H44   S    
C90   H20   S    
C81   O21   D    
O10   Zn1   S    
C3    O3    A    
C57   C113  S    
C118  H74   S    
C77   O17   D    
C30   C77   S    
C129  H86   S    
C138  H107  S    
C40   O27   S    
C82   H6    S    
C16   C144  S    
C117  H73   S    
C7    C26   S    
C28   C68   A    
C88   H17   S    
C121  H77   S    
C98   H40   S    
C147  O63   D    
O28   C94   S    
C2    O10   A    
C49   C57   A    
C99   H42   S    
C140  H111  S    
C95   H32   S    
C52   C60   A    
C59   C67   A    
N12   Zn3   S    
C53   C61   A    
C122  H78   S    
C96   H35   S    
C55   C63   A    
C102  H50   S    
C56   C64   A    
C35   C43   A    
C133  C134  S    
C44   C52   A    
C45   C53   A    
C113  H69   S    
C93   H28   S    
C132  H93   S    
C56   C112  S    
C87   H15   S    
C135  H100  S    
C109  H65   S    
O14   Zn3   S    
C145  O61   D    
O6    Zn4   S    
C26   C66   A    
C2    O2    A    
C142  H114  S    
C10   C14   A    
C106  C107  S    
N15   N16   D    
C91   H24   S    
C108  H62   S    
C44   O31   S    
C107  H61   S    
C100  C101  S    
C130  H87   S    
C28   C36   A    
C42   C50   A    
C17   C145  S    
C5    O5    A    
C144  O60   D    
C136  H102  S    
C7    O15   A    
C32   C79   S    
C80   O20   D    
C69   N9    A    
C107  C108  S    
C116  H72   S    
C22   C30   A    
O15   Zn3   S    
C12   N16   S    
C65   C121  S    
C126  O50   D    
C123  H79   S    
C84   H8    S    
C105  H57   S    
C105  H56   S    
C13   C17   A    
C120  H76   S    
C8    O8    A    
C11   C75   A    
C62   C118  S    
C114  H70   S    
C109  O33   D    
C97   H38   S    
C38   C46   A    
C27   C67   A    
C103  H51   S    
C1    C24   S    
C61   C117  S    
C2    C23   S    
C104  H54   S    
C3    C22   S    
C45   N1    S    
C89   H18   S    
C43   O32   S    
O1    Zn1   S    
C90   H21   S    
C94   H30   S    
C110  O34   D    
O29   C97   S    
C15   C19   A    
C18   N10   A    
C73   O54   S    
C6    O6    A    
C108  H64   S    
C86   H12   S    
O5    Zn3   S    
C137  H104  S    
C115  H71   S    
C130  C131  S    
C141  H113  S    
C49   N5    S    
C127  H83   S    
C69   C73   A    
C21   C61   A    
C137  H105  S    
C23   C63   A    
C139  H108  S    
C24   C64   A    
C8    C25   S    
C66   C122  S    
C133  H95   S    
C134  H98   S    
C94   C95   S    
O55   C135  S    
C50   C58   A    
C55   C111  S    
N10   Zn1   S    
C87   H14   S    
C9    N13   S    
C147  H119  S    
C46   N2    S    
C54   C62   A    
C74   O53   S    
O2    Zn2   S    
C104  H53   S    
O53   C129  S    
O27   C91   S    
C89   C90   S    
C46   C54   A    
C111  O35   D    
C148  O64   D    
C54   C110  S    
C71   N11   A    
C101  H47   S    
C12   C76   A    
C81   H5    S    
C112  H68   S    
C83   H7    S    
C75   O56   S    
C50   N6    S    
C118  O42   D    
C77   H1    S    
C89   H19   S    
C128  O52   D    
C31   C80   S    
C57   C65   A    
O3    Zn2   S    
C82   O22   D    
C79   H3    S    
O11   Zn1   S    
C33   C41   A    
O9    Zn2   S    
C88   H16   S    
O30   C100  S    
C123  O47   D    
N2    N5    D    
C43   C51   A    
C98   H39   S    
N3    N8    D    
C20   N12   A    
C38   O25   S    
C37   O26   S    
C140  H110  S    
C95   H33   S    
C85   H9    S    
C138  H106  S    
O16   Zn4   S    
C10   N14   S    
C122  O46   D    
C96   H34   S    
C29   C37   A    
C102  H49   S    
C124  H80   S    
N13   N14   D    
C18   C146  S    
C14   C142  S    
O31   C103  S    
C60   C116  S    
C132  H92   S    
C14   C18   A    
C92   H25   S    
C47   N3    S    
C72   C76   A    
C145  H117  S    
C131  H89   S    
C13   C141  S    
C39   O28   S    
C106  H59   S    
C129  H85   S    
C78   H2    S    
C59   C115  S    
C20   C148  S    
C125  O49   D    
C58   C66   A    
C63   C119  S    
C100  H45   S    
C103  C104  S    
C76   O55   S    
C138  C139  S    
C9    C73   A    
C58   C114  S    
C92   C93   S    
C8    O16   A    
C72   N12   A    
C64   C120  S    
C116  O40   D    
C117  O41   D    
C25   C65   A    
O26   C88   S    
C88   C89   S    
C121  O45   D    
O32   C106  S    
C98   C99   S    
C84   O24   D    
C136  H101  S    
C115  O39   D    
C33   C82   S    
C99   H41   S    
C140  H112  S    
C120  O44   D    
C68   C124  S    
O56   C138  S    
C22   C62   A    
C5    C28   S    
C67   C123  S    
C6    C27   S    
C96   H36   S    
C114  O38   D    
C125  H81   S    
C146  H118  S    
C29   C78   S    
C103  H52   S    
C105  H55   S    
C113  O37   D    
C93   H27   S    
C132  C133  S    
C51   C59   A    
C119  H75   S    
C70   N10   A    
C135  H99   S    
C47   C55   A    
C48   C56   A    
C69   C126  S    
C41   O30   S    
C131  H91   S    
C15   C143  S    
C83   O23   D    
O25   C85   S    
C72   C127  S    
C91   H23   S    
C48   N4    S    
C108  H63   S    
C86   H11   S    
C71   C75   A    
C4    C21   S    
C10   C74   A    
C107  H60   S    
O7    Zn4   S    
C130  H88   S    
C31   C39   A    
C32   C40   A    
C36   C44   A    
C142  O58   D    
C93   H29   S    
C144  H116  S    
C146  O62   D    
C136  C137  S    
C25   C33   A    
C111  H67   S    
C80   H4    S    
