data_mof_unit_57798.cif
_audit_creation_date              2012-12-11T13:59:54-0500
_audit_creation_method            fapswitch 2.2
_symmetry_space_group_name_H-M    P1
_symmetry_Int_Tables_number       1
_space_group_crystal_system       triclinic
_cell_length_a                    11.218558
_cell_length_b                    11.254364
_cell_length_c                    18.652669
_cell_angle_alpha                 89.558242
_cell_angle_beta                  90.31041
_cell_angle_gamma                 120.346225
_cell_volume                      2032.31145712

loop_
_atom_site_label
_atom_site_type_symbol
_atom_type_description
_atom_site_fract_x
_atom_site_fract_y
_atom_site_fract_z
_atom_type_partial_charge
C1    C     C_R   0.540864 0.478197 0.852872 0.583492
C2    C     C_R   0.482838 0.540068 0.349516 0.640199
C3    C     C_R   0.061377 0.518308 0.351058 0.605631
C4    C     C_R   0.460022 0.941743 0.349852 0.616383
C5    C     C_2   0.034963 0.526374 0.590811 -0.062914
C6    C     C_2   0.568060 0.448509 0.563486 -0.126508
C7    C     C_2   0.553566 0.125549 0.562822 -0.137567
C8    C     C_2   0.510759 0.019026 0.415997 -0.070305
C9    C     C_2   0.509804 0.491275 0.416259 -0.024569
C10   C     C_2   0.018978 0.500106 0.424826 -0.001467
C11   C     C_2   0.115303 0.523874 0.474678 0.222354
C12   C     C_R   0.521274 0.062148 0.852871 0.584167
C13   C     C_2   0.638841 0.534654 0.440101 0.227326
C14   C     C_2   0.460272 0.096680 0.440863 0.220196
C15   C     C_2   0.451176 0.111111 0.518587 0.198308
C16   C     C_2   0.667123 0.535631 0.517670 0.204264
C17   C     C_2   0.070284 0.460448 0.544355 0.217409
C18   C     C_2   0.007576 0.509128 0.921743 -0.125694
C19   C     C_2   0.491315 0.496217 0.922058 -0.132926
C20   C     C_2   0.502887 0.993537 0.922222 -0.127788
C21   C     C_2   0.509826 0.007140 0.078013 -0.124294
C22   C     C_2   0.497842 0.491716 0.078339 -0.128873
C23   C     C_R   0.937860 0.458964 0.852744 0.577155
C24   C     C_2   0.994298 0.503452 0.077644 -0.125478
C25   C     C_2   0.010594 0.613518 0.038610 -0.023175
C26   C     C_2   0.388312 0.395047 0.039984 -0.016228
C27   C     C_2   0.605562 0.993453 0.039970 -0.022802
C28   C     C_2   0.613249 0.009055 0.960868 -0.024473
C29   C     C_2   0.396432 0.386374 0.961094 -0.017652
C30   C     C_2   0.995537 0.605798 0.959450 -0.023116
C31   C     C_2   0.041085 0.745482 0.072946 0.660813
C32   C     C_2   0.255302 0.292330 0.074355 0.656762
C33   C     C_2   0.708348 0.964638 0.075325 0.644488
C34   C     C_R   0.478739 0.541124 0.147254 0.573971
C35   C     C_2   0.745580 0.039438 0.926218 0.661681
C36   C     C_2   0.294794 0.252687 0.927498 0.656765
C37   C     C_2   0.969342 0.709704 0.923533 0.642003
C38   C     C_R   0.062486 0.521561 0.147080 0.566927
C39   C     C_R   0.459295 0.937929 0.147182 0.571512
C40   C     C_R   0.584925 0.449323 0.640994 0.563252
C41   C     C_R   0.550895 0.135699 0.640878 0.553431
C42   C     C_R   0.941160 0.460010 0.650198 0.555903
Cl1   Cl    Cl    0.294531 0.625140 0.458824 -0.573663
Cl2   Cl    Cl    0.781221 0.609151 0.380431 -0.496899
Cl3   Cl    Cl    0.377843 0.159499 0.383398 -0.498223
Cl4   Cl    Cl    0.292701 0.091899 0.549126 -0.397596
Cl5   Cl    Cl    0.831615 0.665369 0.547562 -0.459917
Cl6   Cl    Cl    0.036245 0.289946 0.554844 -0.448442
Cr1   Cr    Cr6+3 0.464030 0.233680 0.750360 1.139222
Cr2   Cr    Cr6+3 0.766320 0.230350 0.750360 1.125492
Cr3   Cr    Cr6+3 0.769650 0.535970 0.750360 1.123660
Cr4   Cr    Cr6+3 0.233680 0.464030 0.249640 1.151071
Cr5   Cr    Cr6+3 0.230350 0.766320 0.249640 1.173877
Cr6   Cr    Cr6+3 0.535970 0.769650 0.249640 1.138649
H1    H     H_    0.909607 0.437475 0.437225 0.092191
H2    H     H_    0.402259 0.952941 0.946940 0.139416
H3    H     H_    0.551680 0.596942 0.946312 0.146333
H4    H     H_    0.045863 0.447770 0.947059 0.151437
H5    H     H_    0.988564 0.839307 0.147767 0.353008
H6    H     H_    0.047484 0.198604 0.073434 0.369329
H7    H     H_    0.850843 0.014114 0.153319 0.336522
H8    H     H_    0.839467 0.987733 0.850898 0.352563
H9    H     H_    0.204307 0.045818 0.929335 0.370450
H10   H     H_    0.022338 0.852006 0.845096 0.339564
H11   H     H_    0.420385 0.438382 0.450687 0.146239
H12   H     H_    0.567508 0.987214 0.450852 0.110286
H13   H     H_    0.648485 0.138304 0.540314 0.094710
H14   H     H_    0.470803 0.367222 0.543390 0.134795
H15   H     H_    0.061729 0.631767 0.578635 0.168316
H16   H     H_    0.953493 0.403043 0.053236 0.138730
H17   H     H_    0.598514 0.553082 0.053647 0.147617
H18   H     H_    0.449247 0.046586 0.052876 0.153646
O1    O     O_R   0.434100 0.092480 0.829780 -0.481894
O2    O     O_R   0.362730 0.477510 0.175360 -0.482919
O3    O     O_R   0.114780 0.637270 0.175360 -0.481637
O4    O     O_R   0.522490 0.885220 0.175360 -0.485846
O5    O     O_R   0.432250 0.092620 0.670380 -0.427873
O6    O     O_R   0.907380 0.339630 0.670380 -0.453673
O7    O     O_R   0.660370 0.567750 0.670380 -0.419032
O8    O     O_R   0.092620 0.432250 0.329620 -0.480536
O9    O     O_R   0.339630 0.907380 0.329620 -0.419683
O10   O     O_R   0.567750 0.660370 0.329620 -0.443277
O11   O     O_R   0.475790 0.362860 0.676880 -0.469341
O12   O     O_R   0.907520 0.341620 0.829780 -0.468116
O13   O     O_R   0.637140 0.112930 0.676880 -0.464996
O14   O     O_R   0.887070 0.524210 0.676880 -0.492768
O15   O     O_R   0.362860 0.475790 0.323120 -0.454048
O16   O     O_R   0.112930 0.637140 0.323120 -0.440011
O17   O     O_R   0.524210 0.887070 0.323120 -0.489123
O18   O     O_3   0.666667 0.333333 0.749450 -0.362761
O19   O     O_3   0.333333 0.666667 0.250550 -0.304431
O20   O     O_2   0.135410 0.855023 0.050364 -0.484053
O21   O     O_R   0.958890 0.743610 0.129573 -0.635876
O22   O     O_2   0.255300 0.222460 0.124942 -0.459182
O23   O     O_R   0.658380 0.565900 0.829780 -0.468043
O24   O     O_R   0.130571 0.272461 0.046590 -0.660683
O25   O     O_2   0.727348 0.874165 0.052124 -0.469415
O26   O     O_R   0.785041 0.043567 0.133936 -0.674215
O27   O     O_2   0.855610 0.132664 0.948892 -0.479977
O28   O     O_R   0.743486 0.958316 0.869236 -0.639422
O29   O     O_2   0.222990 0.250610 0.877360 -0.459875
O30   O     O_R   0.277806 0.129596 0.955623 -0.664258
O31   O     O_2   0.879544 0.730642 0.946289 -0.468390
O32   O     O_R   0.049830 0.785018 0.864799 -0.668786
O33   O     O_R   0.092480 0.434100 0.170220 -0.491440
O34   O     O_R   0.341620 0.907520 0.170220 -0.469392
O35   O     O_R   0.565900 0.658380 0.170220 -0.472736
O36   O     O_R   0.477510 0.362730 0.824640 -0.474745
O37   O     O_R   0.637270 0.114780 0.824640 -0.471938
O38   O     O_R   0.885220 0.522490 0.824640 -0.476557

loop_
_geom_bond_atom_site_label_1
_geom_bond_atom_site_label_2
_ccdc_geom_bond_type
C25   C31   S    
C39   O34   A    
C32   O22   D    
C5    C42   S    
C26   C32   S    
H7    O26   S    
C17   Cl6   S    
Cr1   O18   S    
C20   H2    S    
C24   H16   S    
C19   H3    S    
C8    H12   S    
C29   C36   S    
Cr6   O35   S    
C34   O35   A    
Cr5   O9    S    
Cr4   O2    S    
Cr3   O18   S    
C41   O5    A    
C5    C17   D    
C16   Cl5   S    
C36   O30   S    
C33   O26   S    
C9    C13   D    
C5    H15   S    
Cr2   O13   S    
Cr5   O34   S    
C18   H4    S    
C4    O9    A    
C28   C35   S    
Cr5   O19   S    
C24   C38   S    
C11   Cl1   S    
C42   O14   A    
Cr1   O36   S    
C33   O25   D    
C4    C8    S    
C6    H14   S    
C21   C27   D    
C12   O1    A    
C40   O11   A    
Cr5   O3    S    
H9    O30   S    
C35   O27   D    
C3    O8    A    
Cr2   O6    S    
Cr3   O14   S    
C12   O37   A    
Cr2   O18   S    
C14   Cl3   S    
C9    H11   S    
C38   O3    A    
C22   C34   S    
C1    C19   S    
C23   O12   A    
C21   H18   S    
Cr2   O12   S    
C18   C23   S    
C24   C25   D    
Cr6   O17   S    
C37   O31   D    
C20   C28   D    
C31   O21   S    
C7    H13   S    
Cr2   O37   S    
C27   C33   S    
C30   C37   S    
C36   O29   D    
C21   C39   S    
C1    O23   A    
C12   C20   S    
H8    O28   S    
C40   O7    A    
C2    O15   A    
C39   O4    A    
C10   H1    S    
C34   O2    A    
C18   C30   D    
H6    O24   S    
C32   O24   S    
Cr4   O33   S    
C42   O6    A    
Cr3   O38   S    
Cr1   O1    S    
C2    O10   A    
C35   O28   S    
C19   C29   D    
C22   H17   S    
Cr6   O10   S    
C4    O17   A    
C25   C30   S    
H10   O32   S    
C23   O38   A    
C11   C17   S    
C8    C14   D    
C3    O16   A    
Cr6   O4    S    
Cr4   O15   S    
C37   O32   S    
C41   O13   A    
Cr1   O11   S    
C38   O33   A    
Cr6   O19   S    
C3    C10   S    
C7    C15   D    
Cr1   O5    S    
Cr5   O16   S    
C6    C40   S    
C7    C41   S    
Cr3   O7    S    
C10   C11   D    
C1    O36   A    
C6    C16   D    
C26   C29   S    
C31   O20   D    
C22   C26   D    
C13   C16   S    
C27   C28   S    
C14   C15   S    
Cr4   O19   S    
H5    O21   S    
C15   Cl4   S    
Cr4   O8    S    
C2    C9    S    
C13   Cl2   S    
Cr3   O23   S    
