data_mof_unit_52052.cif
_audit_creation_date              2013-03-05T16:07:30-0500
_audit_creation_method            fapswitch 2.2
_symmetry_space_group_name_H-M    P1
_symmetry_Int_Tables_number       1
_space_group_crystal_system       triclinic
_cell_length_a                    11.07987
_cell_length_b                    10.802037
_cell_length_c                    9.946022
_cell_angle_alpha                 89.293455
_cell_angle_beta                  92.041938
_cell_angle_gamma                 94.120228
_cell_volume                      1186.50376062

loop_
_atom_site_label
_atom_site_type_symbol
_atom_site_description
_atom_site_fract_x
_atom_site_fract_y
_atom_site_fract_z
_atom_type_partial_charge
O1    O     O_R   0.499990 0.319660 0.618740 -0.539685
O2    O     O_R   0.500010 0.680340 0.381260 -0.537990
O3    O     O_R   0.499990 0.319630 0.381170 -0.577928
O4    O     O_R   0.500010 0.680370 0.618830 -0.574192
C1    C     C_R   0.496906 0.263046 0.501019 0.837084
C2    C     C_R   0.488819 0.735281 0.498499 0.788526
O5    O     O_R   0.319650 0.500020 0.618780 -0.608838
O6    O     O_R   0.680350 0.499980 0.381220 -0.639693
O7    O     O_R   0.319640 0.500000 0.381210 -0.545040
O8    O     O_R   0.680360 0.500000 0.618790 -0.529700
C3    C     C_R   0.263403 0.500667 0.497386 0.803706
C4    C     C_R   0.737113 0.501321 0.501468 0.755002
Cu1   Cu    Cu3+1 0.500000 0.500020 0.640660 1.004879
Cu2   Cu    Cu3+1 0.500000 0.499980 0.359340 1.000882
C5    C     C_R   0.147324 0.449010 0.023926 0.142865
C6    C     C_R   0.802776 0.319248 0.881861 0.239464
C7    C     C_R   0.132853 0.495151 0.152969 0.192483
C8    C     C_R   0.853033 0.357925 0.762780 0.204006
C9    C     C_R   0.097368 0.413506 0.257390 -0.029652
C10   C     C_R   0.899389 0.482657 0.746869 -0.093208
C11   C     C_R   0.076016 0.284619 0.234235 0.013239
C12   C     C_R   0.901675 0.567403 0.852841 0.039149
C13   C     C_R   0.085268 0.238578 0.102535 -0.017963
C14   C     C_R   0.850294 0.528041 0.975769 -0.061398
C15   C     C_R   0.114844 0.322218 0.995316 -0.096591
C16   C     C_R   0.802883 0.402304 0.989299 -0.124184
C17   C     C_R   0.929203 0.470083 0.386896 -0.263598
C18   C     C_R   0.072537 0.537158 0.608082 -0.267272
H1    H     H_    0.875184 0.434252 0.305192 0.178813
H2    H     H_    0.126474 0.564253 0.695279 0.187145
C19   C     C_R   0.872573 0.502900 0.501794 -0.061100
C20   C     C_R   0.129500 0.504466 0.492332 -0.071518
C21   C     C_R   0.946657 0.521095 0.617202 0.015842
C22   C     C_R   0.054439 0.466329 0.380908 -0.020920
C23   C     C_R   0.553562 0.062451 0.414333 -0.186993
C24   C     C_R   0.406708 0.927493 0.594210 -0.100770
C25   C     C_R   0.515548 0.940422 0.387271 0.025528
C26   C     C_R   0.401519 0.058141 0.584551 0.038047
C27   C     C_R   0.468087 0.868262 0.493519 -0.124986
C28   C     C_R   0.486184 0.126861 0.503165 -0.110952
C29   C     C_R   0.459052 0.397353 0.071615 -0.002526
C30   C     C_R   0.545202 0.601160 0.928121 0.025848
C31   C     C_R   0.460696 0.396926 0.925400 0.138789
C32   C     C_R   0.544139 0.601477 0.074878 0.189114
N1    N     N_R   0.500030 0.500030 0.852070 -0.197797
N2    N     N_R   0.499970 0.499970 0.147930 -0.209540
C33   C     C_2   0.111489 0.280584 0.852661 0.277670
H3    H     H_    0.137533 0.344793 0.773009 0.135264
O9    O     O_2   0.074950 0.175753 0.819915 -0.557513
C34   C     C_2   0.756900 0.352374 0.115527 0.192614
H4    H     H_    0.692673 0.399361 0.170037 0.127059
O10   O     O_2   0.796943 0.258899 0.162979 -0.547409
N3    N     N_3   0.414446 0.289737 0.851766 -0.543612
H5    H     H_    0.378180 0.216686 0.910313 0.187563
H6    H     H_    0.342453 0.318572 0.792520 0.258112
N4    N     N_3   0.591955 0.708383 0.148539 -0.516832
H7    H     H_    0.656534 0.681418 0.219277 0.258250
H8    H     H_    0.635094 0.777557 0.090190 0.208651
N5    N     N_3   0.189473 0.532533 0.919452 -0.601784
H9    H     H_    0.262177 0.495680 0.875497 0.205171
H10   H     H_    0.225735 0.617485 0.957129 0.304492
N6    N     N_3   0.747895 0.194632 0.889571 -0.515928
H11   H     H_    0.798404 0.142271 0.956779 0.273733
H12   H     H_    0.659544 0.196905 0.922613 0.229338
N7    N     N_3   0.145948 0.627165 0.174093 -0.496252
H13   H     H_    0.065655 0.656937 0.210023 0.260598
H14   H     H_    0.214963 0.648220 0.245807 0.270203
N8    N     N_3   0.859607 0.266348 0.660126 -0.507389
H15   H     H_    0.945545 0.273732 0.620273 0.244080
H16   H     H_    0.794402 0.279480 0.584292 0.188334
C35   C     C_2   0.042811 0.200948 0.349845 0.490917
H17   H     H_    0.065293 0.231097 0.451282 0.100193
O11   O     O_2   0.988100 0.099761 0.334258 -0.469167
C36   C     C_2   0.957117 0.695665 0.829837 0.538927
H18   H     H_    0.936140 0.744729 0.736992 0.084325
O12   O     O_2   0.032022 0.744134 0.909355 -0.468690
C37   C     C_2   0.073028 0.102845 0.079688 0.625685
H19   H     H_    0.997759 0.061573 0.019034 0.121321
O13   O     O_2   0.147738 0.036383 0.129205 -0.463757
C38   C     C_2   0.842663 0.616568 0.088089 0.337003
H20   H     H_    0.820025 0.583629 0.186267 0.060734
O14   O     O_2   0.855739 0.728827 0.072298 -0.493810
C39   C     C_2   0.666365 0.116372 0.356642 0.431229
H21   H     H_    0.698099 0.211627 0.377080 0.087695
O15   O     O_2   0.728942 0.051854 0.291928 -0.465689
C40   C     C_2   0.337149 0.852246 0.695362 0.341174
H22   H     H_    0.293323 0.762521 0.668235 0.089439
O16   O     O_2   0.332127 0.887492 0.811052 -0.531967
C41   C     C_2   0.478391 0.913606 0.245537 0.501495
H23   H     H_    0.525798 0.961630 0.164309 0.074061
O17   O     O_2   0.389267 0.844252 0.217730 -0.491069
C42   C     C_2   0.297894 0.116941 0.640609 0.380905
H24   H     H_    0.252553 0.077300 0.727090 0.175621
O18   O     O_2   0.257683 0.207712 0.585895 -0.591641
C43   C     C_2   0.415281 0.282014 0.138774 0.446657
H25   H     H_    0.458239 0.196594 0.121950 0.037312
O19   O     O_2   0.329028 0.280204 0.211091 -0.514695
C44   C     C_2   0.599340 0.712185 0.859924 0.460672
H26   H     H_    0.565144 0.802219 0.876402 0.085706
O20   O     O_2   0.685197 0.705152 0.787939 -0.541376

loop_
_geom_bond_atom_site_label_1
_geom_bond_atom_site_label_2
_geom_bond_distance
_ccdc_geom_bond_type
C26   C28   1.423189 A    
C17   H1    1.052717 S    
C43   H25   1.085604 S    
Cu2   N2    2.102678 S    
N3    H5    1.040670 S    
O5    C3    1.339033 A    
C36   O12   1.220426 D    
C11   C35   1.493700 S    
O1    C1    1.325846 A    
C9    C11   1.415642 A    
C14   C16   1.427159 A    
C16   C34   1.454672 S    
C40   O16   1.220854 D    
C5    C15   1.420495 A    
C8    N8    1.437658 S    
C26   C42   1.480438 S    
N4    H7    1.039635 S    
O4    Cu1   1.957538 S    
N6    H12   1.045685 S    
C31   N3    1.431261 S    
C33   H3    1.079779 S    
C32   N2    1.377776 A    
N8    H15   1.041791 S    
N7    H14   1.041797 S    
C34   O10   1.215254 D    
C29   N2    1.390823 A    
C19   C21   1.394711 A    
N4    H8    1.039877 S    
C41   O17   1.221556 D    
C15   C33   1.492101 S    
C37   O13   1.220984 D    
N5    H9    1.036337 S    
Cu1   Cu2   2.798021 S    
C29   C31   1.455081 A    
O2    C2    1.328622 A    
C30   C32   1.460164 A    
C14   C38   1.488055 S    
N3    H6    1.038364 S    
C17   C22   1.394510 A    
C6    C16   1.403638 A    
N5    H10   1.043412 S    
C36   H18   1.085351 S    
C17   C19   1.385046 A    
C18   C20   1.393659 A    
O4    C2    1.334934 A    
C35   O11   1.220030 D    
C23   C39   1.472697 S    
C40   H22   1.085095 S    
C24   C40   1.487238 S    
C37   H19   1.084226 S    
O8    Cu1   2.017875 S    
C30   N1    1.389552 A    
C20   C22   1.409217 A    
O7    Cu2   2.017876 S    
N6    H11   1.043756 S    
O7    C3    1.332523 A    
C32   N4    1.433976 S    
C39   H21   1.082480 S    
O6    C4    1.331046 A    
C42   O18   1.219988 D    
C34   H4    1.069643 S    
C13   C37   1.482293 S    
C31   N1    1.376644 A    
O3    Cu2   1.957538 S    
O8    C4    1.344553 A    
C10   C21   1.453819 S    
C38   O14   1.219756 D    
C39   O15   1.221895 D    
C10   C12   1.402902 A    
C3    C20   1.486184 S    
C44   H26   1.085164 S    
C44   O20   1.218023 D    
C11   C13   1.416557 A    
C4    C19   1.499633 S    
C12   C14   1.414827 A    
O1    Cu1   1.963077 S    
C12   C36   1.493042 S    
C5    C7    1.401189 A    
O6    Cu2   2.002345 S    
C23   C25   1.381411 A    
C5    N5    1.436219 S    
C24   C27   1.414802 A    
C38   H20   1.067279 S    
O3    C1    1.333265 A    
C9    C22   1.469348 S    
C18   C21   1.399089 A    
C43   O19   1.215319 D    
C33   O9    1.219060 D    
C7    N7    1.440209 S    
C25   C41   1.480612 S    
C30   C44   1.470966 S    
C23   C28   1.399579 A    
C35   H17   1.079131 S    
C25   C27   1.400432 A    
Cu1   N1    2.102678 S    
C29   C43   1.466080 S    
C24   C26   1.418498 A    
C42   H24   1.079990 S    
C7    C9    1.402744 A    
C18   H2    1.067311 S    
C8    C10   1.416092 A    
C13   C15   1.421083 A    
O2    Cu2   1.963077 S    
O5    Cu1   2.002346 S    
C6    C8    1.374312 A    
N7    H13   1.043641 S    
C1    C28   1.467291 S    
N8    H16   1.041263 S    
C2    C27   1.470883 S    
C41   H23   1.085571 S    
C6    N6    1.439030 S    
