data_mof_unit_24538.cif
_audit_creation_date              2012-12-10T18:11:09-0500
_audit_creation_method            fapswitch 2.2
_symmetry_space_group_name_H-M    P1
_symmetry_Int_Tables_number       1
_space_group_crystal_system       triclinic
_cell_length_a                    10.7346
_cell_length_b                    9.498323
_cell_length_c                    10.694406
_cell_angle_alpha                 88.659504
_cell_angle_beta                  88.380614
_cell_angle_gamma                 90.165717
_cell_volume                      1089.66841545

loop_
_atom_site_label
_atom_site_type_symbol
_atom_type_description
_atom_site_fract_x
_atom_site_fract_y
_atom_site_fract_z
_atom_type_partial_charge
C1    C     C_R   0.260004 0.500028 0.499630 0.754189
C2    C     C_3   0.495579 0.505500 0.124528 -0.136465
C3    C     C_3   0.071907 0.653490 0.503159 -0.379281
C4    C     C_3   0.068198 0.416882 0.614094 -0.377423
C5    C     C_3   0.929619 0.653578 0.499890 -0.364411
C6    C     C_3   0.924575 0.416979 0.613077 -0.340033
C7    C     C_3   0.075950 0.432042 0.377903 -0.359142
C8    C     C_3   0.122093 0.500460 0.498636 0.145341
C9    C     C_3   0.878329 0.500576 0.497270 0.134911
C10   C     C_3   0.931911 0.430826 0.377695 -0.396026
C11   C     C_3   0.581281 0.081017 0.599710 -0.171314
C12   C     C_3   0.580179 0.914745 0.601140 -0.137644
C13   C     C_3   0.373544 0.082145 0.526197 -0.263331
C14   C     C_3   0.373595 0.915635 0.526795 -0.271127
C15   C     C_3   0.546216 0.087477 0.378730 0.163332
C16   C     C_3   0.545489 0.918784 0.378500 0.147112
C17   C     C_R   0.497138 0.501765 0.260210 0.828753
C18   C     C_R   0.739991 0.500269 0.498245 0.778694
C19   C     C_R   0.500529 0.498346 0.740950 0.889053
C20   C     C_3   0.505712 0.636167 0.037495 -0.157105
C21   C     C_3   0.390068 0.444723 0.048645 -0.170896
C22   C     C_3   0.401044 0.574241 0.957771 -0.301507
C23   C     C_3   0.500145 0.495421 0.878747 -0.230707
C24   C     C_3   0.603272 0.556931 0.958256 0.460941
C25   C     C_3   0.489109 0.367645 0.969707 0.498691
C26   C     C_3   0.594455 0.427496 0.047731 -0.275503
Cu1   Cu    Cu3+1 0.499860 0.642410 0.500060 0.922710
Cu2   Cu    Cu3+1 0.499860 0.357590 0.500060 0.933915
H1    H     H_    0.321339 0.634228 0.919864 0.175646
H2    H     H_    0.899058 0.487825 0.292730 0.175798
H3    H     H_    0.898837 0.320167 0.373453 0.169502
H4    H     H_    0.549453 0.117257 0.691762 0.247262
H5    H     H_    0.546269 0.876693 0.695173 0.204327
H6    H     H_    0.678273 0.120567 0.587993 0.150313
H7    H     H_    0.676875 0.875130 0.590749 0.176794
H8    H     H_    0.333960 0.119334 0.616513 0.212778
H9    H     H_    0.335098 0.874332 0.618199 0.177213
H10   H     H_    0.479094 0.121865 0.307137 0.180739
H11   H     H_    0.477887 0.887857 0.306789 0.126133
H12   H     H_    0.309573 0.120882 0.453045 0.147501
H13   H     H_    0.309054 0.879737 0.454442 0.149614
H14   H     H_    0.512799 0.746804 0.067867 0.171669
H15   H     H_    0.301972 0.398681 0.088490 0.167259
H16   H     H_    0.674186 0.367485 0.085605 0.183628
H17   H     H_    0.110082 0.717117 0.421991 0.169191
H18   H     H_    0.102168 0.306264 0.613527 0.179208
H19   H     H_    0.101924 0.704739 0.590017 0.172341
H20   H     H_    0.100111 0.464742 0.701731 0.164039
H21   H     H_    0.891641 0.709391 0.582699 0.217411
H22   H     H_    0.886936 0.464710 0.699664 0.233256
H23   H     H_    0.901040 0.712987 0.414746 0.165538
H24   H     H_    0.890056 0.306369 0.612436 0.171151
H25   H     H_    0.113012 0.491676 0.293986 0.159099
H26   H     H_    0.110993 0.322167 0.371678 0.168647
N1    N     N_3   0.500250 0.143650 0.502780 -0.156155
N2    N     N_3   0.500250 0.856350 0.502780 -0.150996
O1    O     O_R   0.317570 0.620260 0.500070 -0.604594
O2    O     O_R   0.317570 0.379740 0.500070 -0.596081
O3    O     O_R   0.499850 0.620240 0.316900 -0.605727
O4    O     O_R   0.499850 0.379760 0.316900 -0.588961
O5    O     O_R   0.682190 0.620260 0.500030 -0.580185
O6    O     O_R   0.682190 0.379740 0.500030 -0.604939
O7    O     O_R   0.499910 0.620280 0.683200 -0.563165
O8    O     O_R   0.499910 0.379720 0.683200 -0.553136
C27   C     C_3   0.674010 0.150815 0.330314 -0.752758
H27   H     H_    0.694587 0.117937 0.233302 0.221636
H28   H     H_    0.678756 0.264638 0.317319 0.256192
H29   H     H_    0.752009 0.119829 0.390536 0.197949
C28   C     C_3   0.672239 0.857497 0.329880 -0.753396
H30   H     H_    0.693204 0.895612 0.232949 0.227477
H31   H     H_    0.749977 0.885371 0.390436 0.199463
H32   H     H_    0.675448 0.744303 0.316892 0.266370
S1    S     S_3+6 0.748653 0.635060 0.910805 -0.038631
O9    O     O_2   0.745252 0.682520 0.776203 -0.348406
O10   O     O_2   0.772611 0.759892 0.990646 -0.293698
O11   O     O_3   0.862888 0.516537 0.930293 -0.570766
H33   H     H_    0.941222 0.569594 0.912306 0.362932
S2    S     S_3+6 0.473352 0.183769 0.946382 -0.036391
O12   O     O_2   0.380273 0.158833 0.847071 -0.343703
O13   O     O_2   0.598101 0.123474 0.910026 -0.316862
O14   O     O_3   0.421714 0.105706 0.080588 -0.575522
H34   H     H_    0.424370 0.003433 0.064576 0.360271

loop_
_geom_bond_atom_site_label_1
_geom_bond_atom_site_label_2
_ccdc_geom_bond_type
C7    C10   S    
C14   N2    S    
C22   H1    S    
C1    C8    S    
S1    O9    D    
C4    C8    S    
C6    C9    S    
O14   H34   S    
C26   H16   S    
C7    C8    S    
C4    H18   S    
C24   C26   S    
S2    O13   D    
C24   S1    S    
C15   C16   S    
C15   C27   S    
C28   H31   S    
C13   H12   S    
Cu1   O5    S    
C21   H15   S    
C10   H3    S    
C20   C24   S    
C19   O7    A    
C27   H28   S    
C23   C24   S    
C9    C10   S    
C21   C22   S    
C2    C17   S    
S1    O10   D    
C5    H21   S    
Cu2   N1    S    
Cu2   O4    S    
C2    C20   S    
C25   S2    S    
O11   H33   S    
C13   H8    S    
C4    C6    S    
C3    C8    S    
Cu1   O1    S    
Cu1   N2    S    
C18   O6    A    
C16   H11   S    
C25   C26   S    
C3    H17   S    
C15   N1    S    
C28   H32   S    
C19   C23   S    
C16   N2    S    
C15   H10   S    
C5    C9    S    
C1    O1    A    
C10   H2    S    
C19   O8    A    
C27   H29   S    
C2    C21   S    
C2    C26   S    
C6    H22   S    
C12   H7    S    
C12   N2    S    
Cu1   O7    S    
C17   O3    A    
C14   H13   S    
Cu2   O8    S    
C20   C22   S    
C11   H4    S    
S1    O11   S    
C7    H25   S    
C11   N1    S    
C4    H20   S    
C21   C25   S    
S2    O12   D    
C11   H6    S    
C16   C28   S    
C3    C5    S    
C20   H14   S    
C11   C12   S    
C18   O5    A    
Cu2   O2    S    
Cu1   O3    S    
C1    O2    A    
C14   H9    S    
S2    O14   S    
C3    H19   S    
C23   C25   S    
C28   H30   S    
C17   O4    A    
C9    C18   S    
C27   H27   S    
Cu1   Cu2   S    
C22   C23   S    
C5    H23   S    
C7    H26   S    
C6    H24   S    
C12   H5    S    
C13   C14   S    
C13   N1    S    
Cu2   O6    S    
