data_mof_unit_63250.cif
_audit_creation_date              2013-03-05T16:08:43-0500
_audit_creation_method            fapswitch 2.2
_symmetry_space_group_name_H-M    P1
_symmetry_Int_Tables_number       1
_space_group_crystal_system       triclinic
_cell_length_a                    27.777876
_cell_length_b                    11.570259
_cell_length_c                    10.764005
_cell_angle_alpha                 90.000019
_cell_angle_beta                  90.000026
_cell_angle_gamma                 90.000048
_cell_volume                      3459.5212808

loop_
_atom_site_label
_atom_site_type_symbol
_atom_site_description
_atom_site_fract_x
_atom_site_fract_y
_atom_site_fract_z
_atom_type_partial_charge
O1    O     O_R   0.500000 0.334450 0.602530 -0.609888
O2    O     O_R   0.500000 0.665550 0.397470 -0.609888
O3    O     O_R   0.500000 0.665550 0.602530 -0.609863
O4    O     O_R   0.500000 0.334450 0.397470 -0.609863
C1    C     C_R   0.500000 0.281140 0.500000 0.898099
C2    C     C_R   0.500000 0.718860 0.500000 0.898099
O5    O     O_R   0.428750 0.500000 0.602520 -0.560905
O6    O     O_R   0.571250 0.500000 0.397480 -0.560890
O7    O     O_R   0.571250 0.500000 0.602520 -0.560889
O8    O     O_R   0.428750 0.500000 0.397480 -0.560906
C3    C     C_R   0.405581 0.500000 0.500000 0.963575
C4    C     C_R   0.594419 0.500000 0.500000 0.963566
Zn1   Zn    Zn3+2 0.500000 0.500000 0.636920 1.083652
Zn2   Zn    Zn3+2 0.500000 0.500000 0.363080 1.083652
C5    C     C_R   0.177071 0.398772 0.478067 0.646549
C6    C     C_R   0.822929 0.601211 0.477992 0.646566
C7    C     C_R   0.177071 0.601230 0.521938 0.646549
C8    C     C_R   0.822930 0.398786 0.522018 0.646567
O9    O     O_2   0.202392 0.300894 0.458508 -0.426762
O10   O     O_2   0.797608 0.699073 0.458360 -0.426774
O11   O     O_2   0.202392 0.699108 0.541496 -0.426762
O12   O     O_2   0.797608 0.300924 0.541651 -0.426774
N1    N     N_R   0.200868 0.500001 0.500002 -0.349280
N2    N     N_R   0.799132 0.499999 0.500005 -0.349280
C9    C     C_R   0.277145 0.516465 0.611192 -0.152904
C10   C     C_R   0.722855 0.483619 0.611195 -0.152898
C11   C     C_R   0.277145 0.483538 0.388810 -0.152904
C12   C     C_R   0.722855 0.516378 0.388810 -0.152901
C13   C     C_R   0.327151 0.516659 0.611774 0.582907
C14   C     C_R   0.672849 0.483426 0.611775 0.582908
C15   C     C_R   0.327151 0.483344 0.388227 0.582908
C16   C     C_R   0.672850 0.516571 0.388227 0.582909
C17   C     C_R   0.252195 0.500002 0.500001 0.067760
C18   C     C_R   0.747805 0.499998 0.500003 0.067729
C19   C     C_R   0.101278 0.500000 0.500003 -0.220376
C20   C     C_R   0.898722 0.499999 0.500005 -0.220392
C21   C     C_R   0.126631 0.396457 0.477215 -0.235118
C22   C     C_R   0.873369 0.603527 0.477138 -0.235101
C23   C     C_R   0.126630 0.603545 0.522791 -0.235120
C24   C     C_R   0.873370 0.396471 0.522872 -0.235098
C25   C     C_R   0.100974 0.294558 0.451612 0.622288
C26   C     C_R   0.899026 0.705408 0.451459 0.622294
C27   C     C_R   0.100974 0.705443 0.548394 0.622290
C28   C     C_R   0.899026 0.294590 0.548552 0.622293
C29   C     C_R   0.352752 0.500001 0.500000 -0.360434
C30   C     C_R   0.647248 0.499999 0.500001 -0.360367
H1    H     H_    0.257611 0.470878 0.302769 0.201517
H2    H     H_    0.742389 0.528971 0.302769 0.201518
H3    H     H_    0.257612 0.529125 0.697234 0.201517
H4    H     H_    0.742388 0.471025 0.697237 0.201519
C31   C     C_R   0.974833 0.394190 0.510014 -0.089248
C32   C     C_R   0.025167 0.605817 0.509934 -0.089262
C33   C     C_R   0.974832 0.605810 0.489995 -0.089247
C34   C     C_R   0.025168 0.394183 0.490074 -0.089262
C35   C     C_R   0.949534 0.499999 0.500005 -0.051045
C36   C     C_R   0.050466 0.500000 0.500004 -0.051045
C37   C     C_R   0.949040 0.293714 0.543771 0.621795
C38   C     C_R   0.050960 0.706315 0.543614 0.621798
C39   C     C_R   0.949040 0.706285 0.456239 0.621795
C40   C     C_R   0.050960 0.293685 0.456394 0.621798
C41   C     C_1   0.500000 0.161035 0.500000 -0.127608
C42   C     C_1   0.500000 0.838965 0.500000 -0.127608
C43   C     C_1   0.500000 0.059148 0.500000 0.042174
C44   C     C_1   0.500000 0.940852 0.500000 0.042174
N3    N     N_1   0.500000 0.500000 0.180630 -0.051386
N4    N     N_1   0.500000 0.500000 0.819370 -0.051385
C45   C     C_1   0.500000 0.500000 0.069722 0.133419
C46   C     C_1   0.500000 0.500000 0.930278 0.133420
F1    F     F_    0.350151 0.465874 0.278489 -0.604264
F2    F     F_    0.649850 0.533950 0.278486 -0.604280
F3    F     F_    0.350151 0.534128 0.721512 -0.604264
F4    F     F_    0.649849 0.466048 0.721515 -0.604281
F5    F     F_    0.123898 0.195266 0.419407 -0.505341
F6    F     F_    0.876102 0.804678 0.419179 -0.505385
F7    F     F_    0.123898 0.804735 0.580598 -0.505340
F8    F     F_    0.876103 0.195320 0.580831 -0.505385
F9    F     F_    0.971791 0.197381 0.585427 -0.504930
F10   F     F_    0.028210 0.802674 0.585198 -0.504884
F11   F     F_    0.971790 0.802618 0.414583 -0.504931
F12   F     F_    0.028210 0.197325 0.414811 -0.504884

loop_
_geom_bond_atom_site_label_1
_geom_bond_atom_site_label_2
_geom_bond_distance
_ccdc_geom_bond_type
N4    C46   1.193820 T    
C19   C23   1.411173 A    
O3    C2    1.264304 A    
C33   C39   1.413083 A    
C34   C40   1.413089 A    
C11   C17   1.396106 A    
O5    C3    1.277492 A    
C7    N1    1.365487 A    
O1    C1    1.264304 A    
C19   C21   1.411173 A    
C22   C26   1.404946 A    
C10   H4    1.083245 S    
C9    C13   1.389065 A    
C28   F8    1.358465 S    
C7    C23   1.401402 A    
C41   C43   1.178865 T    
O7    Zn1   2.013514 S    
C5    C21   1.401402 A    
C20   C24   1.411159 A    
C42   C44   1.178865 T    
C27   C38   1.390280 A    
C10   C18   1.395980 A    
C40   F12   1.357477 S    
N1    C17   1.425747 S    
N2    C18   1.425747 S    
C31   C37   1.413083 A    
C24   C28   1.404948 A    
O3    Zn1   1.950898 S    
C6    O10   1.349622 S    
C5    N1    1.365488 A    
C12   C18   1.395984 A    
C6    N2    1.365465 A    
C21   C25   1.404951 A    
O2    C2    1.264304 A    
Zn1   N4    1.963892 S    
C33   C35   1.415712 A    
C27   F7    1.358472 S    
C34   C36   1.415716 A    
C26   F6    1.358465 S    
C11   C15   1.389065 A    
C45   C46   1.500966 S    
C37   F9    1.357478 S    
C12   C16   1.389063 A    
C4    C30   1.467466 S    
O8    Zn2   2.013514 S    
C39   F11   1.357477 S    
C16   F2    1.357921 S    
N3    C45   1.193820 T    
C7    O11   1.349651 S    
C13   C29   1.410813 A    
C5    O9    1.349651 S    
O5    Zn1   2.013513 S    
C28   C37   1.390281 A    
O6    C4    1.277490 A    
C1    C41   1.389637 S    
C32   C38   1.413089 A    
C10   C14   1.389065 A    
C8    N2    1.365467 A    
C3    C29   1.467461 S    
O1    Zn1   1.950899 S    
C32   C33   1.414573 A    
C11   H1    1.083341 S    
C12   H2    1.083246 S    
O6    Zn2   2.013513 S    
C19   C36   1.411438 A    
C8    O12   1.349619 S    
C16   C30   1.410690 A    
C14   C30   1.410690 A    
C25   C40   1.390281 A    
O4    C1    1.264304 A    
C26   C39   1.390281 A    
C14   F4    1.357918 S    
C31   C34   1.414572 A    
C2    C42   1.389637 S    
C20   C22   1.411160 A    
C20   C35   1.411441 A    
Zn2   N3    1.963893 S    
C31   C35   1.415713 A    
O4    Zn2   1.950899 S    
O2    Zn2   1.950898 S    
O7    C4    1.277491 A    
C9    H3    1.083342 S    
O8    C3    1.277492 A    
C38   F10   1.357475 S    
C25   F5    1.358471 S    
C43   C44   1.368714 S    
C15   F1    1.358062 S    
C8    C24   1.401399 A    
C23   C27   1.404949 A    
C15   C29   1.410812 A    
C9    C17   1.396104 A    
C32   C36   1.415714 A    
C6    C22   1.401402 A    
C13   F3    1.358063 S    
