data_mof_unit_66083.cif
_audit_creation_date              2012-12-10T19:34:02-0500
_audit_creation_method            fapswitch 2.2
_symmetry_space_group_name_H-M    P1
_symmetry_Int_Tables_number       1
_space_group_crystal_system       triclinic
_cell_length_a                    23.664883
_cell_length_b                    23.661396
_cell_length_c                    16.377041
_cell_angle_alpha                 90.085624
_cell_angle_beta                  94.555089
_cell_angle_gamma                 89.994538
_cell_volume                      9141.25363001

loop_
_atom_site_label
_atom_site_type_symbol
_atom_type_description
_atom_site_fract_x
_atom_site_fract_y
_atom_site_fract_z
_atom_type_partial_charge
C1    C     C_R   0.425883 0.077965 0.488199 0.954708
C2    C     C_R   0.573807 0.921776 0.511711 0.952569
C3    C     C_R   0.574584 0.077539 0.512000 0.961269
C4    C     C_R   0.426204 0.921762 0.488204 0.956320
C5    C     C_R   0.925349 0.577485 0.488072 0.961770
C6    C     C_R   0.074325 0.422232 0.511820 0.953132
C7    C     C_R   0.074717 0.577427 0.512027 0.960670
C8    C     C_R   0.926106 0.421858 0.488172 0.954661
C9    C     C_R   0.538427 0.008402 0.848422 -0.271766
C10   C     C_R   0.461601 0.991447 0.151579 -0.272503
C11   C     C_R   0.038434 0.508359 0.848422 -0.272514
C12   C     C_R   0.961594 0.491486 0.151579 -0.272393
C13   C     C_R   0.486342 0.009291 0.883483 0.056334
C14   C     C_R   0.513690 0.990638 0.116532 0.056740
C15   C     C_R   0.986350 0.509302 0.883482 0.055963
C16   C     C_R   0.013683 0.490646 0.116532 0.056488
C17   C     C_R   0.436013 0.005436 0.832509 -0.263455
C18   C     C_R   0.564009 0.994592 0.167508 -0.262519
C19   C     C_R   0.936017 0.505494 0.832507 -0.262925
C20   C     C_R   0.064005 0.494569 0.167507 -0.262466
C21   C     C_R   0.438693 0.000815 0.747922 0.011819
C22   C     C_R   0.561313 0.999249 0.252089 0.009686
C23   C     C_R   0.938693 0.500868 0.747921 0.008941
C24   C     C_R   0.061313 0.499224 0.252088 0.007918
C25   C     C_2   0.484348 0.016709 0.973415 0.386513
C26   C     C_2   0.515696 0.983214 0.026606 0.386618
C27   C     C_2   0.984362 0.516728 0.973414 0.386615
C28   C     C_2   0.015685 0.483214 0.026607 0.386335
C29   C     C_R   0.393343 0.870207 0.479940 -0.208264
C30   C     C_R   0.613479 0.124549 0.521602 -0.277725
C31   C     C_R   0.606838 0.870340 0.519802 -0.207780
C32   C     C_R   0.390686 0.127896 0.479494 -0.270977
C33   C     C_R   0.892509 0.370820 0.479738 -0.210024
C34   C     C_R   0.114551 0.623641 0.521785 -0.280343
C35   C     C_R   0.111313 0.373658 0.520449 -0.208302
C36   C     C_R   0.885878 0.624016 0.478584 -0.281959
C37   C     C_R   0.407087 0.823569 0.531131 0.359697
C38   C     C_R   0.605880 0.172835 0.472083 0.348793
C39   C     C_R   0.593452 0.823729 0.468193 0.359643
C40   C     C_R   0.402154 0.175381 0.529962 0.354018
C41   C     C_R   0.905688 0.323884 0.530542 0.360703
C42   C     C_R   0.107952 0.672093 0.472476 0.347109
C43   C     C_R   0.101470 0.325939 0.469925 0.368195
C44   C     C_R   0.892630 0.672242 0.528575 0.347100
C45   C     C_R   0.373855 0.774888 0.522890 0.301457
C46   C     C_R   0.646128 0.215985 0.480093 0.362722
C47   C     C_R   0.626865 0.775178 0.476332 0.301159
C48   C     C_R   0.366397 0.222259 0.521318 0.380362
C49   C     C_R   0.871545 0.275825 0.522441 0.297626
C50   C     C_R   0.149164 0.714334 0.480494 0.362400
C51   C     C_R   0.139855 0.281111 0.476596 0.306306
C52   C     C_R   0.851792 0.714836 0.520669 0.363047
C53   C     C_R   0.327434 0.773383 0.463956 -0.013359
C54   C     C_R   0.693366 0.210250 0.537237 -0.309840
C55   C     C_R   0.673066 0.773764 0.535624 -0.012677
C56   C     C_R   0.319914 0.221253 0.462340 -0.249793
C57   C     C_R   0.824863 0.275229 0.463912 -0.013064
C58   C     C_R   0.196406 0.707508 0.537392 -0.309137
C59   C     C_R   0.187385 0.284593 0.533409 -0.157328
C60   C     C_R   0.804802 0.708609 0.463160 -0.309665
C61   C     C_R   0.316833 0.817763 0.408196 0.482769
C62   C     C_R   0.698060 0.164021 0.591824 0.444611
C63   C     C_R   0.683326 0.818112 0.591717 0.483790
C64   C     C_R   0.311822 0.175711 0.406750 0.472142
C65   C     C_R   0.814691 0.319927 0.408585 0.482213
C66   C     C_R   0.200308 0.661013 0.591547 0.443633
C67   C     C_R   0.194834 0.330096 0.588072 0.489551
C68   C     C_R   0.800838 0.662399 0.408308 0.445092
C69   C     C_R   0.350483 0.866216 0.416411 -0.337332
C70   C     C_R   0.657802 0.121473 0.583060 -0.194606
C71   C     C_R   0.649524 0.866441 0.583572 -0.333232
C72   C     C_R   0.347456 0.129297 0.416313 -0.175787
C73   C     C_R   0.849219 0.367758 0.416707 -0.341718
C74   C     C_R   0.159055 0.619414 0.582820 -0.197663
C75   C     C_R   0.156032 0.374590 0.581504 -0.319877
C76   C     C_R   0.841681 0.620415 0.416970 -0.191584
C77   C     C_2   0.282611 0.732513 0.473091 0.547816
C78   C     C_2   0.742173 0.246961 0.528989 0.333932
C79   C     C_2   0.718081 0.733093 0.526566 0.547603
C80   C     C_2   0.273265 0.260398 0.472299 0.421916
C81   C     C_2   0.779637 0.234825 0.472884 0.548288
C82   C     C_2   0.245573 0.743916 0.530081 0.331384
C83   C     C_2   0.234878 0.246331 0.525048 0.543078
C84   C     C_2   0.755733 0.745107 0.470727 0.331262
C85   C     C_R   0.539502 0.003288 0.763234 0.631201
C86   C     C_R   0.460508 0.996588 0.236762 0.629749
C87   C     C_R   0.039505 0.503240 0.763234 0.630255
C88   C     C_R   0.960506 0.496622 0.236762 0.629484
H1    H     H_    0.422385 0.986959 0.113260 0.175537
H2    H     H_    0.577655 0.012813 0.886733 0.176359
H3    H     H_    0.922375 0.487023 0.113260 0.175804
H4    H     H_    0.077667 0.512735 0.886732 0.176370
H5    H     H_    0.662280 0.084779 0.622650 0.213202
H6    H     H_    0.341872 0.901703 0.375488 0.192875
H7    H     H_    0.340270 0.093339 0.375675 0.210242
H8    H     H_    0.657878 0.901910 0.624763 0.193618
H9    H     H_    0.162862 0.582529 0.622105 0.212711
H10   H     H_    0.840977 0.403509 0.376157 0.192472
H11   H     H_    0.837784 0.583735 0.377131 0.214841
H12   H     H_    0.162032 0.411051 0.621441 0.188853
H13   H     H_    0.599877 0.001332 0.292133 0.160402
H14   H     H_    0.400122 0.998810 0.707884 0.162221
H15   H     H_    0.099878 0.501283 0.292133 0.160523
H16   H     H_    0.900120 0.498902 0.707880 0.160651
H17   H     H_    0.395153 0.006329 0.857951 0.182428
H18   H     H_    0.604872 0.993753 0.142073 0.182665
H19   H     H_    0.895157 0.506429 0.857947 0.183007
H20   H     H_    0.104867 0.493707 0.142071 0.182666
N1    N     N_R   0.489810 0.000000 0.715580 -0.106227
N2    N     N_R   0.510190 0.000000 0.284420 -0.106423
N3    N     N_R   0.989810 0.500000 0.715580 -0.106429
N4    N     N_R   0.010190 0.500000 0.284420 -0.107185
O1    O     O_R   0.445750 0.057890 0.422600 -0.563108
O2    O     O_R   0.554250 0.942110 0.577400 -0.556760
O3    O     O_R   0.554250 0.057890 0.577400 -0.560485
O4    O     O_R   0.445750 0.942110 0.422600 -0.557846
O5    O     O_R   0.945750 0.557890 0.422600 -0.560619
O6    O     O_R   0.054250 0.442110 0.577400 -0.556385
O7    O     O_R   0.054250 0.557890 0.577400 -0.563453
O8    O     O_R   0.945750 0.442110 0.422600 -0.561059
O9    O     O_R   0.439220 0.057900 0.561040 -0.597053
O10   O     O_R   0.560780 0.942100 0.438960 -0.603658
O11   O     O_R   0.560780 0.057900 0.438960 -0.601599
O12   O     O_R   0.439220 0.942100 0.561040 -0.601400
O13   O     O_R   0.939220 0.557900 0.561040 -0.602590
O14   O     O_R   0.060780 0.442100 0.438960 -0.605499
O15   O     O_R   0.060780 0.557900 0.438960 -0.600980
O16   O     O_R   0.939220 0.442100 0.561040 -0.601510
Zn1   Zn    Zn3+2 0.504350 0.000000 0.407560 1.069840
Zn2   Zn    Zn3+2 0.495650 1.000000 0.592440 1.073610
Zn3   Zn    Zn3+2 0.004350 0.500000 0.407560 1.068336
Zn4   Zn    Zn3+2 0.995650 0.500000 0.592440 1.069521
Cl1   Cl    Cl    0.466250 0.824997 0.604386 -0.462389
Cl2   Cl    Cl    0.545892 0.179980 0.401143 -0.460037
Cl3   Cl    Cl    0.534515 0.825025 0.394544 -0.472625
Cl4   Cl    Cl    0.461524 0.177088 0.602828 -0.466143
Cl5   Cl    Cl    0.965253 0.324230 0.603118 -0.460957
Cl6   Cl    Cl    0.047979 0.680575 0.401863 -0.447798
Cl7   Cl    Cl    0.040975 0.321506 0.399357 -0.467547
Cl8   Cl    Cl    0.952326 0.680031 0.599920 -0.457500
O17   O     O_3   0.252950 0.791558 0.579008 -0.741652
H21   H     H_    0.221552 0.793117 0.615645 0.378316
O18   O     O_3   0.776741 0.188160 0.421376 -0.689255
H22   H     H_    0.747110 0.161607 0.436584 0.334396
O19   O     O_3   0.748942 0.793319 0.423096 -0.742617
H23   H     H_    0.780697 0.795224 0.387126 0.379134
O20   O     O_3   0.239904 0.196514 0.569126 -0.731838
H24   H     H_    0.207430 0.194204 0.603728 0.369871
O21   O     O_3   0.749091 0.295280 0.576567 -0.741496
H25   H     H_    0.717505 0.297208 0.612841 0.378909
O22   O     O_3   0.279093 0.686628 0.420157 -0.686970
H26   H     H_    0.250346 0.659370 0.436234 0.334750
O23   O     O_3   0.268314 0.310266 0.428335 -0.748951
H27   H     H_    0.300668 0.312418 0.393491 0.367941
O24   O     O_3   0.720914 0.686591 0.578171 -0.686790
H28   H     H_    0.750278 0.659796 0.562652 0.334345
O25   O     O_3   0.271460 0.814074 0.349880 -0.658088
H29   H     H_    0.269627 0.849060 0.316499 0.357133
O26   O     O_3   0.742488 0.157160 0.650995 -0.685778
H30   H     H_    0.764618 0.192589 0.657088 0.379101
O27   O     O_3   0.728530 0.814518 0.650312 -0.658119
H31   H     H_    0.730129 0.849472 0.683913 0.358759
O28   O     O_3   0.268028 0.173392 0.345810 -0.680150
H32   H     H_    0.250330 0.211151 0.338858 0.370727
O29   O     O_3   0.768948 0.317151 0.350771 -0.660368
H33   H     H_    0.767525 0.352250 0.317643 0.357291
O30   O     O_3   0.244746 0.653008 0.650381 -0.687305
H34   H     H_    0.267922 0.687774 0.656288 0.379802
O31   O     O_3   0.241734 0.331337 0.643978 -0.675389
H35   H     H_    0.240768 0.366444 0.676998 0.358524
O32   O     O_3   0.756657 0.655030 0.348850 -0.683981
H36   H     H_    0.733937 0.690089 0.343006 0.379369
Cl9   Cl    Cl    0.639144 0.275871 0.415554 -0.385114
Cl10  Cl    Cl    0.388077 0.716874 0.589356 -0.417666
Cl11  Cl    Cl    0.377585 0.280975 0.587636 -0.384892
Cl12  Cl    Cl    0.613163 0.717240 0.409306 -0.418470
Cl13  Cl    Cl    0.143158 0.774570 0.416545 -0.386053
Cl14  Cl    Cl    0.885014 0.217508 0.588577 -0.421105
Cl15  Cl    Cl    0.857855 0.774708 0.585590 -0.387309
Cl16  Cl    Cl    0.130249 0.221876 0.411001 -0.426342
O33   O     O_3   0.589767 0.002670 0.726092 -0.741593
H37   H     H_    0.621799 0.005502 0.768776 0.324074
O34   O     O_3   0.410238 0.997109 0.273893 -0.740162
H38   H     H_    0.378217 0.994191 0.231205 0.323201
O35   O     O_3   0.089770 0.502575 0.726091 -0.743457
H39   H     H_    0.121806 0.505368 0.768773 0.323473
O36   O     O_3   0.910236 0.497165 0.273896 -0.741969
H40   H     H_    0.878210 0.494285 0.231210 0.323427
O37   O     O_3   0.549070 0.941133 0.996613 -0.766117
H41   H     H_    0.565875 0.918595 0.043410 0.359897
O38   O     O_3   0.450973 0.058783 0.003423 -0.766297
H42   H     H_    0.434184 0.081344 0.956639 0.359955
O39   O     O_3   0.049029 0.441108 0.996618 -0.767264
H43   H     H_    0.065820 0.418563 0.043417 0.359226
O40   O     O_3   0.951016 0.558828 0.003420 -0.765421
H44   H     H_    0.934246 0.581400 0.956636 0.360273

loop_
_geom_bond_atom_site_label_1
_geom_bond_atom_site_label_2
_ccdc_geom_bond_type
C16   C28   S    
O32   H36   S    
O25   H29   S    
C42   Cl6   S    
O8    Zn3   S    
C60   C84   S    
O31   H35   S    
C14   C18   A    
C12   H3    S    
C53   C77   S    
O20   H24   S    
C34   C42   A    
C48   C56   A    
O9    Zn2   S    
C77   O22   S    
O19   H23   S    
C65   C73   A    
C80   O23   S    
C87   O35   S    
C39   Cl3   S    
C84   O19   S    
C67   O31   S    
C76   H11   S    
C15   C19   A    
C40   Cl4   S    
C62   C70   A    
O29   H33   S    
C22   H13   S    
O1    Zn1   S    
C66   O30   S    
O14   Zn3   S    
C47   C55   A    
C86   N2    A    
C59   C83   S    
C85   N1    A    
C80   C83   D    
O26   H30   S    
C79   C84   D    
C68   O32   S    
O21   H25   S    
C87   N3    A    
O18   H22   S    
C66   C74   A    
C5    C36   S    
C65   O29   S    
C49   C57   A    
C6    C35   S    
C4    O12   A    
N2    Zn1   S    
C63   O27   S    
C9    C13   A    
C36   C76   A    
C59   C67   A    
C72   H7    S    
C11   C15   A    
C11   H4    S    
C8    O16   A    
C88   O36   S    
O4    Zn1   S    
C12   C16   A    
C10   H1    S    
C11   C87   A    
C22   N2    A    
C55   C63   A    
O22   H26   S    
C56   C64   A    
C43   Cl7   S    
C52   C60   A    
O10   Zn1   S    
C41   Cl5   S    
C47   Cl12  S    
C48   Cl11  S    
C9    C85   A    
C44   C52   A    
C31   C71   A    
C45   C53   A    
C44   Cl8   S    
O11   Zn1   S    
O2    Zn2   S    
C13   C25   S    
C1    O1    A    
C64   O28   S    
O16   Zn4   S    
C20   H20   S    
C41   C49   A    
C30   C70   A    
C26   O37   S    
C58   C66   A    
O7    Zn4   S    
C74   H9    S    
C29   C69   A    
C2    O10   A    
C73   H10   S    
O24   H28   S    
C12   C88   A    
O38   H42   S    
C50   C58   A    
C7    O7    A    
C70   H5    S    
C6    O14   A    
C32   C72   A    
C69   H6    S    
C10   C14   A    
O30   H34   S    
O13   Zn4   S    
C71   H8    S    
C54   C62   A    
C25   C26   D    
O33   H37   S    
C1    C32   S    
C17   C21   A    
C5    O5    A    
C2    C31   S    
C3    C30   S    
C19   C23   A    
O34   H38   S    
C18   H18   S    
C17   H17   S    
C55   C79   S    
C15   C27   S    
C23   H16   S    
C16   C20   A    
C35   C75   A    
C46   C54   A    
C28   O39   S    
C46   Cl9   S    
O12   Zn2   S    
C14   C26   S    
C63   C71   A    
C34   C74   A    
C83   O20   S    
C61   O25   S    
C33   C73   A    
C42   C50   A    
C25   O38   S    
C86   O34   S    
C7    C34   S    
C37   Cl1   S    
C36   C44   A    
C67   C75   A    
C21   H14   S    
C53   C61   A    
C51   Cl16  S    
C27   C28   D    
C32   C40   A    
C35   C43   A    
C8    O8    A    
C39   C47   A    
C49   Cl14  S    
C61   C69   A    
C40   C48   A    
C10   C86   A    
C38   Cl2   S    
C85   O33   S    
C1    O9    A    
C18   C22   A    
C4    O4    A    
C50   Cl13  S    
C4    C29   S    
C57   C65   A    
C9    H2    S    
C21   N1    A    
C68   C76   A    
C23   N3    A    
C56   C80   S    
C13   C17   A    
C24   H15   S    
C33   C41   A    
C58   C82   S    
C52   Cl15  S    
O36   H40   S    
C3    O3    A    
O17   H21   S    
C2    O2    A    
C78   C81   D    
C43   C51   A    
O35   H39   S    
C27   O40   S    
O27   H31   S    
C77   C82   D    
C3    O11   A    
C75   H12   S    
C31   C39   A    
C5    O13   A    
C57   C81   S    
C8    C33   S    
C64   C72   A    
N4    Zn3   S    
O37   H41   S    
O5    Zn3   S    
O15   Zn3   S    
C24   N4    A    
C38   C46   A    
O28   H32   S    
O6    Zn4   S    
C79   O24   S    
O40   H44   S    
C88   N4    A    
N3    Zn4   S    
C81   O18   S    
C51   C59   A    
C60   C68   A    
O39   H43   S    
C29   C37   A    
N1    Zn2   S    
C62   O26   S    
C30   C38   A    
C7    O15   A    
O23   H27   S    
C45   Cl10  S    
C37   C45   A    
C82   O17   S    
C20   C24   A    
C78   O21   S    
C6    O6    A    
C54   C78   S    
O3    Zn2   S    
C19   H19   S    
