data_mof_unit_53326.cif
_audit_creation_date              2013-03-05T16:45:43-0500
_audit_creation_method            fapswitch 2.2
_symmetry_space_group_name_H-M    P1
_symmetry_Int_Tables_number       1
_space_group_crystal_system       triclinic
_cell_length_a                    17.383985
_cell_length_b                    10.863161
_cell_length_c                    9.96973
_cell_angle_alpha                 88.88755
_cell_angle_beta                  91.066385
_cell_angle_gamma                 93.972551
_cell_volume                      1877.57500675

loop_
_atom_site_label
_atom_site_type_symbol
_atom_site_description
_atom_site_fract_x
_atom_site_fract_y
_atom_site_fract_z
_atom_type_partial_charge
O1    O     O_R   0.500010 0.316790 0.614690 -0.641868
O2    O     O_R   0.500000 0.316760 0.385350 -0.602635
C1    C     C_R   0.499643 0.260502 0.500293 0.930645
O3    O     O_R   0.389120 0.500020 0.614710 -0.566993
O4    O     O_R   0.389110 0.499990 0.385370 -0.585530
C2    C     C_R   0.352726 0.503019 0.498788 0.914102
Zn1   Zn    Zn3+2 0.500010 0.500020 0.653130 1.057871
Zn2   Zn    Zn3+2 0.499990 0.499980 0.346870 1.085251
O5    O     O_R   0.500000 0.683240 0.614650 -0.566021
O6    O     O_R   0.499990 0.683210 0.385310 -0.563172
O7    O     O_R   0.610890 0.500010 0.614630 -0.536127
O8    O     O_R   0.610880 0.499980 0.385290 -0.582032
C3    C     C_R   0.502092 0.739816 0.497979 0.939220
C4    C     C_R   0.647019 0.496660 0.501538 0.970958
C5    C     C_R   0.848958 0.443647 0.627554 -0.374970
H1    H     H_    0.883851 0.447492 0.718701 0.164515
C6    C     C_R   0.774254 0.484795 0.625626 0.532366
C7    C     C_R   0.729538 0.473027 0.505698 -0.210691
C8    C     C_R   0.762276 0.427783 0.389962 -0.280375
H2    H     H_    0.727377 0.414664 0.300194 0.250396
C9    C     C_R   0.839070 0.395187 0.390644 0.557942
C10   C     C_R   0.880785 0.401799 0.511574 -0.015789
C11   C     C_1   0.961403 0.390079 0.512849 0.072473
C12   C     C_1   0.030001 0.396036 0.513586 0.023069
C13   C     C_R   0.149788 0.462225 0.626357 -0.270298
H3    H     H_    0.117009 0.467691 0.717009 0.145060
C14   C     C_R   0.228721 0.501665 0.621947 0.513824
C15   C     C_R   0.267315 0.495747 0.498091 -0.243222
C16   C     C_R   0.223889 0.468741 0.378752 0.266320
C17   C     C_R   0.146800 0.425906 0.388277 -0.189386
H4    H     H_    0.113043 0.404334 0.298126 0.200478
C18   C     C_R   0.111005 0.419771 0.511335 0.019230
C19   C     C_R   0.454209 0.055097 0.584558 0.005498
C20   C     C_R   0.498562 0.128549 0.495236 -0.281614
C21   C     C_R   0.534652 0.072146 0.388135 0.221984
C22   C     C_R   0.532221 0.943287 0.382578 0.200761
C23   C     C_R   0.500164 0.871745 0.490431 -0.262161
C24   C     C_R   0.461785 0.930490 0.588164 -0.100494
C25   C     C_3   0.463339 0.923378 0.738222 0.359235
C26   C     C_3   0.446789 0.059259 0.734186 0.043954
H5    H     H_    0.415397 0.860660 0.777669 0.163437
H6    H     H_    0.490809 0.120327 0.785953 0.123992
C27   C     C_R   0.436513 0.455342 0.070541 0.183707
N1    N     N_R   0.499490 0.499140 0.142800 -0.179265
C28   C     C_R   0.560929 0.549806 0.072494 0.297351
C29   C     C_R   0.556252 0.566006 0.931006 0.274106
N2    N     N_R   0.499490 0.499180 0.857150 -0.177345
C30   C     C_R   0.437041 0.453807 0.928605 0.100067
C31   C     C_3   0.402599 0.325714 0.926309 -0.361181
C32   C     C_3   0.402358 0.325918 0.077969 -0.414023
H7    H     H_    0.344140 0.318995 0.879214 0.245751
H8    H     H_    0.444132 0.264363 0.887849 0.215407
H9    H     H_    0.343763 0.317987 0.119866 0.256791
H10   H     H_    0.442251 0.261453 0.124927 0.245534
N3    N     N_R   0.569916 0.888409 0.274960 0.264311
O9    O     O_R   0.528541 0.847166 0.173197 -0.275617
O10   O     O_R   0.643652 0.913222 0.260303 -0.282299
O11   O     O_3   0.535200 0.900553 0.802829 -0.534366
C33   C     C_3   0.602146 0.958139 0.741926 -0.034322
H11   H     H_    0.596604 0.054950 0.708767 0.086856
H12   H     H_    0.620009 0.903513 0.656601 0.161712
H13   H     H_    0.650178 0.960860 0.816705 0.220605
N4    N     N_R   0.367691 0.076847 0.774114 0.195480
O12   O     O_R   0.345956 0.045844 0.895028 -0.356798
O13   O     O_R   0.320399 0.131308 0.693546 -0.385184
N5    N     N_R   0.633365 0.579644 0.138249 0.241105
O14   O     O_R   0.640898 0.672293 0.218611 -0.279180
O15   O     O_R   0.695203 0.538046 0.089576 -0.458653
N6    N     N_R   0.604967 0.667300 0.875629 0.247720
O16   O     O_R   0.620890 0.678647 0.750093 -0.349629
O17   O     O_R   0.631325 0.756290 0.953059 -0.305877
O18   O     O_3   0.742401 0.529543 0.740509 -0.560987
C34   C     C_3   0.795395 0.611702 0.809477 -0.137067
H14   H     H_    0.830491 0.673508 0.740037 0.128363
H15   H     H_    0.832948 0.559898 0.878367 0.134672
H16   H     H_    0.763049 0.672014 0.872786 0.250071
O19   O     O_3   0.873795 0.348061 0.279572 -0.598190
C35   C     C_3   0.854442 0.410155 0.159282 -0.214363
H17   H     H_    0.852657 0.511592 0.172148 0.171902
H18   H     H_    0.799030 0.369323 0.117363 0.224181
H19   H     H_    0.899457 0.396368 0.084658 0.178628
O20   O     O_3   0.269188 0.557526 0.729703 -0.609341
C36   C     C_3   0.237422 0.527212 0.855996 -0.150128
H20   H     H_    0.223364 0.426165 0.868385 0.171776
H21   H     H_    0.186279 0.580454 0.872929 0.173216
H22   H     H_    0.281103 0.554959 0.934058 0.239595
N7    N     N_R   0.254366 0.492968 0.247250 0.206733
O21   O     O_R   0.226814 0.427401 0.147299 -0.474816
O22   O     O_R   0.291252 0.598833 0.221066 -0.370443
N8    N     N_R   0.579431 0.144166 0.291334 0.246580
O23   O     O_R   0.640425 0.210786 0.330442 -0.404040
O24   O     O_R   0.564781 0.132225 0.163601 -0.338307

loop_
_geom_bond_atom_site_label_1
_geom_bond_atom_site_label_2
_geom_bond_distance
_ccdc_geom_bond_type
N5    O15   1.300192 A    
N3    O9    1.301231 A    
N4    O13   1.302092 A    
C34   H14   1.114996 S    
C4    C7    1.474397 S    
C8    H2    1.078006 S    
N7    O21   1.300864 A    
C25   H5    1.112010 S    
O19   C35   1.411182 S    
Zn1   O7    1.972381 S    
C16   C17   1.392136 A    
C26   N4    1.464731 S    
O4    C2    1.307923 A    
C22   C23   1.414420 A    
C8    C9    1.404523 A    
C7    C8    1.407859 A    
C17   H4    1.084701 S    
O7    C4    1.303135 A    
C35   H18   1.110108 S    
C5    H1    1.082995 S    
Zn1   O5    2.019669 S    
C20   C21   1.418713 A    
N6    O17   1.301870 A    
O5    C3    1.304893 A    
C29   N6    1.448276 S    
C5    C10   1.388833 A    
C2    C15   1.481313 S    
C21   C22   1.399669 A    
C31   H7    1.109886 S    
C11   C12   1.189678 T    
C27   C30   1.415697 A    
C3    C23   1.436364 S    
C13   C18   1.389577 A    
C26   H6    1.104663 S    
N5    O14   1.296587 A    
C33   H11   1.106322 S    
C9    C10   1.395780 A    
C34   H15   1.110769 S    
O3    Zn1   1.958394 S    
C19   C20   1.391733 A    
C33   H12   1.107773 S    
C32   H9    1.105330 S    
C19   C26   1.501530 S    
N2    C30   1.367476 A    
O3    C2    1.308117 A    
C25   C26   1.522951 S    
C35   H17   1.114471 S    
C1    C20   1.434106 S    
C13   H3    1.082118 S    
C28   C29   1.419658 A    
C25   O11   1.429592 S    
O1    C1    1.304206 A    
Zn1   N2    2.034053 S    
C27   N1    1.362242 A    
C12   C18   1.414408 S    
C23   C24   1.381700 A    
N8    O24   1.301215 A    
C36   H20   1.112916 S    
Zn2   O8    1.958394 S    
C31   H8    1.095156 S    
C6    C7    1.416949 A    
C32   H10   1.110404 S    
C30   C31   1.476670 S    
C36   H21   1.110896 S    
O8    C4    1.309048 A    
C31   C32   1.512146 S    
N3    O10   1.301779 A    
C34   H16   1.106406 S    
C14   C15   1.420883 A    
N1    C28   1.366173 A    
C5    C6    1.402081 A    
C29   N2    1.391873 A    
C15   C16   1.421616 A    
C33   H13   1.108217 S    
O1    Zn1   2.034308 S    
C14   O20   1.398310 S    
O2    Zn2   2.019669 S    
Zn2   N1    2.034575 S    
O18   C34   1.415764 S    
O6    C3    1.289731 A    
O4    Zn2   1.972381 S    
C27   C32   1.488845 S    
C13   C14   1.410113 A    
C19   C24   1.368781 A    
N7    O22   1.301639 A    
O2    C1    1.288128 A    
O11   C33   1.423057 S    
C22   N3    1.428681 S    
C17   C18   1.384316 A    
C35   H19   1.109288 S    
N8    O23   1.299722 A    
C24   C25   1.496364 S    
N6    O16   1.288557 A    
C16   N7    1.435939 S    
N4    O12   1.301136 A    
C21   N8    1.436561 S    
C36   H22   1.108403 S    
C6    O18   1.391869 S    
Zn2   O6    2.034308 S    
O20   C36   1.408305 S    
C9    O19   1.393713 S    
C28   N5    1.428794 S    
C10   C11   1.415794 S    
