data_mof_unit_34167.cif
_audit_creation_date              2013-03-05T15:42:11-0500
_audit_creation_method            fapswitch 2.2
_symmetry_space_group_name_H-M    P1
_symmetry_Int_Tables_number       1
_space_group_crystal_system       triclinic
_cell_length_a                    7.768274
_cell_length_b                    8.571984
_cell_length_c                    16.632129
_cell_angle_alpha                 92.043938
_cell_angle_beta                  79.858568
_cell_angle_gamma                 93.896383
_cell_volume                      1087.38488466

loop_
_atom_site_label
_atom_site_type_symbol
_atom_site_description
_atom_site_fract_x
_atom_site_fract_y
_atom_site_fract_z
_atom_type_partial_charge
O1    O     O_R   0.388470 0.738640 0.505270 -0.613687
O2    O     O_R   0.611530 0.261360 0.494730 -0.605349
O3    O     O_R   0.679650 0.711510 0.491500 -0.631518
O4    O     O_R   0.320350 0.288490 0.508500 -0.624980
C1    C     C_R   0.546356 0.794887 0.497840 0.953839
C2    C     C_R   0.453669 0.205102 0.501982 0.980562
O5    O     O_R   0.337210 0.515200 0.623500 -0.558273
O6    O     O_R   0.662790 0.484800 0.376500 -0.578709
O7    O     O_R   0.628380 0.488060 0.609730 -0.623804
O8    O     O_R   0.371620 0.511940 0.390270 -0.630681
C3    C     C_R   0.476059 0.504501 0.654848 0.902988
C4    C     C_R   0.524976 0.502538 0.345370 0.942077
Zn1   Zn    Zn3+2 0.305580 0.518120 0.509190 1.009765
Zn2   Zn    Zn3+2 0.694420 0.481880 0.490810 1.002515
C5    C     C_R   0.462665 0.520016 0.743320 -0.217229
C6    C     C_R   0.551434 0.549130 0.260597 -0.184035
C7    C     C_R   0.594529 0.460709 0.778830 -0.205602
C8    C     C_R   0.448670 0.666336 0.241436 -0.248505
C9    C     C_R   0.599364 0.487254 0.861125 0.232408
C10   C     C_R   0.481741 0.731058 0.164686 0.217376
C11   C     C_R   0.472657 0.578113 0.908211 0.036595
C12   C     C_R   0.618450 0.677255 0.105840 0.053495
C13   C     C_R   0.336327 0.631485 0.874446 -0.203894
C14   C     C_R   0.730653 0.570437 0.126497 -0.210607
C15   C     C_R   0.328847 0.602765 0.792319 0.328346
C16   C     C_R   0.696127 0.501948 0.202954 0.309489
C17   C     C_2   0.473301 0.612777 0.993955 -0.149084
C18   C     C_2   0.611046 0.687393 0.019583 -0.128427
H1    H     H_    0.694584 0.393335 0.742442 0.209229
H2    H     H_    0.343358 0.709501 0.286556 0.193790
H3    H     H_    0.728151 0.723271 0.976598 0.193340
H4    H     H_    0.358616 0.572103 0.037309 0.194095
H5    H     H_    0.236102 0.697238 0.911980 0.191801
H6    H     H_    0.834316 0.528111 0.080239 0.202056
C19   C     C_2   0.570787 0.958390 0.496452 -0.336165
C20   C     C_2   0.429277 0.041566 0.503058 -0.338248
H7    H     H_    0.704294 0.009777 0.490109 0.186810
H8    H     H_    0.295776 0.990172 0.509367 0.185789
N1    N     N_2   0.953500 0.457650 0.478520 -0.165709
N2    N     N_2   0.046500 0.542350 0.521480 -0.156468
H9    H     H_    0.023187 0.379826 0.439168 0.211553
H10   H     H_    0.976808 0.620151 0.560848 0.219633
N3    N     N_R   0.802137 0.379362 0.219060 0.223367
O9    O     O_R   0.967497 0.382277 0.186562 -0.366025
O10   O     O_R   0.729562 0.254554 0.256636 -0.370509
N4    N     N_R   0.188839 0.663642 0.759746 0.213841
O11   O     O_R   0.064028 0.568275 0.740566 -0.373781
O12   O     O_R   0.164514 0.812476 0.767498 -0.379064
I1    I     I_    0.316081 0.903702 0.139440 -0.232830
I2    I     I_    0.794118 0.376823 0.909730 -0.261575

loop_
_geom_bond_atom_site_label_1
_geom_bond_atom_site_label_2
_geom_bond_distance
_ccdc_geom_bond_type
O7    Zn2   1.953701 S    
C10   I1    2.125078 S    
C8    H2    1.083731 S    
O7    C3    1.298285 A    
C19   C20   1.336879 D    
O6    C4    1.288513 A    
N3    O9    1.301911 A    
C17   C18   1.335640 D    
C20   H8    1.087889 S    
C11   C17   1.447123 S    
N1    H9    1.029382 S    
C12   C18   1.451783 S    
O5    C3    1.287852 A    
N3    O10   1.301787 A    
C9    I2    2.125646 S    
O2    C2    1.273825 A    
O3    Zn2   1.979002 S    
O8    C4    1.295711 A    
O1    C1    1.273796 A    
C1    C19   1.401961 S    
O4    C2    1.284843 A    
C7    C9    1.386129 A    
C2    C20   1.402084 S    
C16   N3    1.438575 S    
C8    C10   1.385267 A    
C13   C15   1.389885 A    
C11   C13   1.392804 A    
C6    C16   1.414488 A    
Zn2   N1    2.011070 S    
O2    Zn2   1.954654 S    
C12   C14   1.397327 A    
C5    C15   1.417244 A    
O1    Zn1   1.954655 S    
C10   C12   1.402423 A    
N4    O12   1.300938 A    
O5    Zn1   1.960709 S    
C7    H1    1.083677 S    
C13   H5    1.084881 S    
C6    C8    1.403449 A    
N1    N2    1.277931 D    
C5    C7    1.400654 A    
N4    O11   1.301038 A    
Zn1   N2    2.011070 S    
O6    Zn2   1.960707 S    
C19   H7    1.087872 S    
C17   H4    1.088439 S    
C9    C11   1.406398 A    
C3    C5    1.458678 S    
C15   N4    1.433024 S    
C18   H3    1.087151 S    
C14   H6    1.083355 S    
C4    C6    1.454880 S    
O4    Zn1   1.979002 S    
C14   C16   1.394786 A    
N2    H10   1.029409 S    
O3    C1    1.284859 A    
O8    Zn1   1.953699 S    
