data_mof_unit_21136.cif
_audit_creation_date              2013-03-05T15:49:18-0500
_audit_creation_method            fapswitch 2.2
_symmetry_space_group_name_H-M    P1
_symmetry_Int_Tables_number       1
_space_group_crystal_system       triclinic
_cell_length_a                    10.639815
_cell_length_b                    11.996736
_cell_length_c                    12.896832
_cell_angle_alpha                 93.921806
_cell_angle_beta                  91.333577
_cell_angle_gamma                 83.803802
_cell_volume                      1632.53224538

loop_
_atom_site_label
_atom_site_type_symbol
_atom_site_description
_atom_site_fract_x
_atom_site_fract_y
_atom_site_fract_z
_atom_type_partial_charge
O1    O     O_R   0.506170 0.421690 0.658830 -0.610578
O2    O     O_R   0.491330 0.609320 0.646410 -0.643606
C1    C     C_R   0.494427 0.522913 0.700328 0.913238
O3    O     O_R   0.690660 0.406170 0.506210 -0.549234
O4    O     O_R   0.675810 0.593790 0.493790 -0.615326
C2    C     C_R   0.740156 0.498580 0.509423 0.883313
Zn1   Zn    Zn3+2 0.509910 0.374720 0.508290 1.044576
Zn2   Zn    Zn3+2 0.490090 0.625280 0.491710 0.973377
O5    O     O_R   0.508670 0.390680 0.353590 -0.582757
O6    O     O_R   0.493830 0.578310 0.341170 -0.632328
O7    O     O_R   0.324190 0.406210 0.506210 -0.611210
O8    O     O_R   0.309340 0.593830 0.493790 -0.619751
C3    C     C_R   0.504113 0.477043 0.299091 0.907250
C4    C     C_R   0.260118 0.502017 0.496342 0.854457
H1    H     H_    0.872934 0.509944 0.345431 0.170309
C5    C     C_R   0.903455 0.449492 0.700557 0.169987
C6    C     C_R   0.973519 0.468971 0.793829 0.304260
C7    C     C_R   0.089378 0.512708 0.789884 -0.233301
C8    C     C_R   0.141573 0.526332 0.694659 -0.227199
C9    C     C_R   0.072978 0.507346 0.601567 0.080823
C10   C     C_R   0.947574 0.482913 0.605018 -0.062213
C11   C     C_R   0.874567 0.491208 0.511328 -0.056466
C12   C     C_R   0.929350 0.504838 0.416456 -0.122948
C13   C     C_R   0.057288 0.509262 0.412175 -0.173192
C14   C     C_R   0.127679 0.509823 0.504054 -0.045906
C15   C     C_R   0.506655 0.462312 0.186753 -0.202378
C16   C     C_R   0.486637 0.538624 0.811398 -0.098623
C17   C     C_R   0.513297 0.651847 0.970796 0.323646
C18   C     C_R   0.503871 0.642309 0.862909 -0.251029
C19   C     C_R   0.470905 0.445483 0.866195 -0.158633
C20   C     C_R   0.483526 0.451854 0.972461 0.074795
C21   C     C_R   0.503795 0.555264 0.026048 0.053326
C22   C     C_R   0.511095 0.559517 0.133218 -0.213835
C23   C     C_R   0.496997 0.357398 0.131814 0.321168
C24   C     C_R   0.480785 0.354276 0.024799 -0.171717
N1    N     N_R   0.523130 0.207800 0.519340 -0.127346
N2    N     N_R   0.476870 0.792180 0.480660 -0.124143
C25   C     C_R   0.404972 0.952835 0.383185 0.219408
C26   C     C_R   0.413959 0.836620 0.397348 -0.034724
C27   C     C_R   0.532555 0.859787 0.553374 -0.019124
C28   C     C_R   0.527758 0.976702 0.542992 0.031591
C29   C     C_R   0.465214 0.024337 0.456160 -0.048378
C30   C     C_R   0.466826 0.141482 0.445492 0.083250
C31   C     C_R   0.577731 0.162439 0.605601 0.090298
C32   C     C_R   0.583403 0.046871 0.617990 -0.246575
H2    H     H_    0.629223 0.012985 0.686674 0.177440
H3    H     H_    0.470367 0.274619 0.982057 0.189008
H4    H     H_    0.516340 0.714350 0.819358 0.191880
H5    H     H_    0.455031 0.365723 0.825758 0.172058
H6    H     H_    0.422625 0.180947 0.379256 0.201852
H7    H     H_    0.615225 0.216108 0.666424 0.206950
N3    N     N_R   0.332510 0.995663 0.296445 0.232815
O9    O     O_R   0.334415 0.937032 0.207681 -0.285394
O10   O     O_R   0.247177 0.081228 0.310852 -0.340799
H8    H     H_    0.368706 0.781373 0.341909 0.170945
H9    H     H_    0.581632 0.822364 0.619060 0.141340
N4    N     N_R   0.808622 0.373636 0.699306 0.205949
O11   O     O_R   0.827649 0.279473 0.642820 -0.363846
O12   O     O_R   0.726929 0.381675 0.773426 -0.389767
N5    N     N_R   0.934209 0.435833 0.891730 0.238053
O13   O     O_R   0.923476 0.330471 0.903787 -0.278201
O14   O     O_R   0.936655 0.505215 0.973681 -0.352527
H10   H     H_    0.144317 0.527137 0.860384 0.196004
H11   H     H_    0.235340 0.552874 0.694316 0.153293
H12   H     H_    0.101408 0.513075 0.337722 0.161835
H13   H     H_    0.517955 0.639513 0.175692 0.223189
N6    N     N_R   0.505246 0.253748 0.181915 0.206292
O15   O     O_R   0.423851 0.182348 0.157552 -0.308700
O16   O     O_R   0.609618 0.219173 0.230027 -0.333100
N7    N     N_R   0.539134 0.757577 0.021508 0.210962
O17   O     O_R   0.481749 0.850677 0.989607 -0.309062
O18   O     O_R   0.636671 0.762381 0.083819 -0.335019

loop_
_geom_bond_atom_site_label_1
_geom_bond_atom_site_label_2
_geom_bond_distance
_ccdc_geom_bond_type
C23   N6    1.433567 S    
O4    Zn2   1.971266 S    
N7    O18   1.301485 A    
C12   C13   1.370521 A    
C30   H6    1.078705 S    
C27   C28   1.413404 A    
N7    O17   1.301324 A    
C16   C18   1.397401 A    
C28   C29   1.412173 A    
C15   C22   1.400837 A    
C17   N7    1.437224 S    
C8    C9    1.408420 A    
N1    C31   1.362268 A    
C8    H11   1.079689 S    
Zn2   O8    2.000494 S    
C24   H3    1.085050 S    
C21   C22   1.380286 A    
N3    O10   1.301209 A    
H1    C12   1.085017 S    
C6    C7    1.394156 A    
C13   C14   1.386999 A    
N2    C26   1.361826 A    
O1    Zn1   1.984336 S    
C32   H2    1.083488 S    
C31   C32   1.401142 A    
C16   C19   1.389208 A    
Zn1   O7    1.971266 S    
N6    O16   1.301527 A    
N4    O11   1.301045 A    
C19   C20   1.371665 A    
Zn1   N1    2.006833 S    
C13   H12   1.084472 S    
O3    Zn1   2.000497 S    
C31   H7    1.077404 S    
C1    C16   1.435106 S    
C17   C18   1.390450 A    
C19   H5    1.085632 S    
O8    C4    1.272336 A    
C22   H13   1.080629 S    
C25   C29   1.418658 A    
N2    C27   1.364592 A    
O2    C1    1.284259 A    
C5    N4    1.428963 S    
C4    C14   1.407505 S    
N5    O14   1.301384 A    
O4    C2    1.292389 A    
C3    C15   1.448022 S    
O7    C4    1.284063 A    
C20   C24   1.393984 A    
C7    H10   1.083478 S    
N4    O12   1.298664 A    
C25   N3    1.436237 S    
Zn2   N2    2.006595 S    
C18   H4    1.083807 S    
N6    O15   1.301183 A    
C2    C11   1.423019 S    
C5    C6    1.419413 A    
C17   C21   1.414958 A    
C25   C26   1.411227 A    
C9    C10   1.398981 A    
O3    C2    1.275472 A    
C23   C24   1.385364 A    
C9    C14   1.401466 A    
O2    Zn2   2.016904 S    
Zn1   O5    2.016903 S    
O5    C3    1.287246 A    
C11   C12   1.394517 A    
C7    C8    1.386422 A    
N1    C30   1.368061 A    
C28   C32   1.401525 A    
C6    N5    1.433986 S    
O1    C1    1.287688 A    
C10   C11   1.424566 A    
C5    C10   1.426341 A    
C15   C23   1.413958 A    
Zn2   O6    1.984337 S    
C26   H8    1.081825 S    
C20   C21   1.413049 A    
C29   C30   1.423389 A    
N3    O9    1.301354 A    
N5    O13   1.301449 A    
C27   H9    1.082915 S    
O6    C3    1.290845 A    
