data_mof_unit_54878.cif
_audit_creation_date              2012-12-10T18:09:37-0500
_audit_creation_method            fapswitch 2.2
_symmetry_space_group_name_H-M    P1
_symmetry_Int_Tables_number       1
_space_group_crystal_system       triclinic
_cell_length_a                    15.464422
_cell_length_b                    14.895678
_cell_length_c                    9.492739
_cell_angle_alpha                 89.99988
_cell_angle_beta                  90.00233
_cell_angle_gamma                 90.000115
_cell_volume                      2186.68138508

loop_
_atom_site_label
_atom_site_type_symbol
_atom_type_description
_atom_site_fract_x
_atom_site_fract_y
_atom_site_fract_z
_atom_type_partial_charge
C1    C     C_R   0.119790 0.379673 0.500211 0.781053
C2    C     C_R   0.119786 0.620331 0.500211 0.781050
C3    C     C_R   0.619787 0.879669 0.500211 0.781058
C4    C     C_R   0.619784 0.120333 0.500211 0.781055
C5    C     C_3   0.090429 0.500000 0.083182 -0.222681
C6    C     C_3   0.090421 0.500000 0.916871 -0.223345
C7    C     C_3   0.590429 0.999999 0.083182 -0.222678
C8    C     C_3   0.590421 0.999998 0.916871 -0.223333
C9    C     C_R   0.880177 0.379861 0.500208 0.781716
C10   C     C_R   0.880179 0.620142 0.500208 0.781706
C11   C     C_R   0.380178 0.879859 0.500208 0.781720
C12   C     C_R   0.380182 0.120146 0.500208 0.781709
C13   C     C_3   0.785131 0.286176 0.654270 -0.364252
C14   C     C_3   0.842460 0.224600 0.425531 -0.330995
C15   C     C_3   0.785178 0.713876 0.654272 -0.364188
C16   C     C_3   0.842442 0.775382 0.425443 -0.330968
C17   C     C_3   0.285171 0.786131 0.654272 -0.364200
C18   C     C_3   0.342445 0.724616 0.425456 -0.330971
C19   C     C_3   0.285244 0.213948 0.654274 -0.364105
C20   C     C_3   0.342419 0.275358 0.425321 -0.330932
C21   C     C_3   0.212429 0.716515 0.654238 -0.353969
C22   C     C_3   0.271140 0.652124 0.428402 -0.410491
C23   C     C_3   0.212504 0.283566 0.654243 -0.354081
C24   C     C_3   0.271116 0.347850 0.428265 -0.410464
C25   C     C_3   0.712392 0.216557 0.654234 -0.353908
C26   C     C_3   0.771153 0.152112 0.428472 -0.410492
C27   C     C_3   0.712437 0.783493 0.654238 -0.353983
C28   C     C_3   0.771137 0.847873 0.428388 -0.410480
C29   C     C_3   0.729668 0.347073 0.423972 -0.410341
C30   C     C_3   0.729651 0.652909 0.424058 -0.410357
C31   C     C_3   0.229653 0.847089 0.424045 -0.410354
C32   C     C_3   0.229627 0.152884 0.424176 -0.410367
C33   C     C_3   0.810949 0.310977 0.500951 0.126344
C34   C     C_3   0.810953 0.689028 0.500951 0.126315
C35   C     C_3   0.310952 0.810973 0.500951 0.126317
C36   C     C_3   0.310959 0.189035 0.500951 0.126273
C37   C     C_3   0.188837 0.689349 0.500964 0.120156
C38   C     C_3   0.188844 0.310658 0.500964 0.120216
C39   C     C_3   0.688834 0.189353 0.500963 0.120114
C40   C     C_3   0.688838 0.810651 0.500964 0.120156
C41   C     C_3   0.158362 0.774553 0.421198 -0.329080
C42   C     C_3   0.158334 0.225417 0.421333 -0.329123
C43   C     C_3   0.658377 0.274538 0.421131 -0.329065
C44   C     C_3   0.658360 0.725444 0.421213 -0.329085
C45   C     C_3   0.956115 0.580403 0.083791 0.277542
C46   C     C_3   0.956122 0.580410 0.916164 0.277896
C47   C     C_3   0.956115 0.419596 0.083791 0.277549
C48   C     C_3   0.956122 0.419590 0.916164 0.277882
C49   C     C_3   0.456117 0.080404 0.083791 0.277533
C50   C     C_3   0.456124 0.080410 0.916164 0.277906
C51   C     C_3   0.456114 0.919597 0.083791 0.277544
C52   C     C_3   0.456121 0.919591 0.916164 0.277889
Cu1   Cu    Cu3+1 0.000100 0.500000 0.642410 0.987225
Cu2   Cu    Cu3+1 0.000100 0.500000 0.357590 0.988445
Cu3   Cu    Cu3+1 0.500100 0.000000 0.642410 0.987223
Cu4   Cu    Cu3+1 0.500100 0.000000 0.357590 0.988442
H1    H     H_    0.763345 0.347040 0.712434 0.169211
H2    H     H_    0.858941 0.239794 0.314132 0.222337
H3    H     H_    0.763409 0.653030 0.712500 0.169244
H4    H     H_    0.858888 0.760156 0.314040 0.222345
H5    H     H_    0.263401 0.846979 0.712492 0.169243
H6    H     H_    0.358894 0.739837 0.314053 0.222345
H7    H     H_    0.263496 0.153128 0.712589 0.169293
H8    H     H_    0.358819 0.260086 0.313915 0.222353
H9    H     H_    0.841753 0.257936 0.711193 0.224524
H10   H     H_    0.901922 0.198511 0.477427 0.167010
H11   H     H_    0.841817 0.742134 0.711128 0.224518
H12   H     H_    0.901921 0.801486 0.477270 0.167005
H13   H     H_    0.341807 0.757874 0.711137 0.224520
H14   H     H_    0.401922 0.698515 0.477291 0.167004
H15   H     H_    0.341905 0.242230 0.711040 0.224510
H16   H     H_    0.401919 0.301483 0.477058 0.166999
H17   H     H_    0.233483 0.656601 0.715469 0.170915
H18   H     H_    0.294948 0.591950 0.486115 0.150751
H19   H     H_    0.233585 0.343511 0.715376 0.170852
H20   H     H_    0.294948 0.408053 0.485879 0.150736
H21   H     H_    0.733434 0.156658 0.715513 0.170951
H22   H     H_    0.794945 0.091949 0.486231 0.150762
H23   H     H_    0.733494 0.843411 0.715459 0.170910
H24   H     H_    0.794947 0.908051 0.486089 0.150755
H25   H     H_    0.154936 0.745459 0.707968 0.226942
H26   H     H_    0.256177 0.630747 0.318700 0.178789
H27   H     H_    0.155035 0.254650 0.708081 0.226966
H28   H     H_    0.256106 0.369175 0.318554 0.178827
H29   H     H_    0.654885 0.245512 0.707912 0.226930
H30   H     H_    0.756213 0.130712 0.318773 0.178773
H31   H     H_    0.654946 0.754553 0.707981 0.226941
H32   H     H_    0.756170 0.869244 0.318684 0.178793
H33   H     H_    0.705103 0.408123 0.478480 0.150587
H34   H     H_    0.746138 0.366726 0.314055 0.179456
H35   H     H_    0.705100 0.591876 0.478631 0.150594
H36   H     H_    0.746090 0.633222 0.314144 0.179430
H37   H     H_    0.205099 0.908123 0.478609 0.150601
H38   H     H_    0.246097 0.866772 0.314131 0.179434
H39   H     H_    0.205097 0.091872 0.478834 0.150607
H40   H     H_    0.246025 0.133153 0.314264 0.179397
H41   H     H_    0.098229 0.801404 0.469983 0.166410
H42   H     H_    0.143329 0.757655 0.309808 0.225854
H43   H     H_    0.098224 0.198587 0.470223 0.166407
H44   H     H_    0.143247 0.242263 0.309942 0.225841
H45   H     H_    0.598234 0.301401 0.469865 0.166410
H46   H     H_    0.643368 0.257611 0.309743 0.225864
H47   H     H_    0.598229 0.698594 0.470009 0.166408
H48   H     H_    0.643320 0.742337 0.309823 0.225851
H49   H     H_    0.887318 0.579000 0.118105 0.055776
H50   H     H_    0.887325 0.578946 0.881923 0.052614
H51   H     H_    0.887318 0.421000 0.118106 0.055773
H52   H     H_    0.887325 0.421055 0.881923 0.052616
H53   H     H_    0.387319 0.079002 0.118106 0.055781
H54   H     H_    0.387327 0.078948 0.881923 0.052614
H55   H     H_    0.387317 0.921002 0.118106 0.055776
H56   H     H_    0.387324 0.921056 0.881923 0.052616
H57   H     H_    0.127304 0.559158 0.121306 0.194914
H58   H     H_    0.127277 0.559159 0.878798 0.192887
H59   H     H_    0.127304 0.440843 0.121307 0.194911
H60   H     H_    0.127277 0.440840 0.878799 0.192890
H61   H     H_    0.627305 0.059156 0.121306 0.194916
H62   H     H_    0.627279 0.059157 0.878798 0.192886
H63   H     H_    0.627304 0.940840 0.121307 0.194914
H64   H     H_    0.627276 0.940838 0.878799 0.192888
N1    N     N_3   0.001260 0.500000 0.143650 -0.211521
N2    N     N_3   0.001260 0.500000 0.856350 -0.210232
N3    N     N_3   0.501260 0.000000 0.143650 -0.211519
N4    N     N_3   0.501260 0.000000 0.856350 -0.210231
O1    O     O_R   0.091250 0.408820 0.620260 -0.555239
O2    O     O_R   0.091250 0.408820 0.379740 -0.552876
O3    O     O_R   0.091250 0.591180 0.620260 -0.555244
O4    O     O_R   0.091250 0.591180 0.379740 -0.552882
O5    O     O_R   0.591250 0.908820 0.620260 -0.555241
O6    O     O_R   0.591250 0.908820 0.379740 -0.552880
O7    O     O_R   0.591250 0.091180 0.620260 -0.555242
O8    O     O_R   0.591250 0.091180 0.379740 -0.552881
O9    O     O_R   0.908940 0.408800 0.620260 -0.566117
O10   O     O_R   0.908940 0.408800 0.379740 -0.564491
O11   O     O_R   0.908940 0.591200 0.620260 -0.566122
O12   O     O_R   0.908940 0.591200 0.379740 -0.564492
O13   O     O_R   0.408940 0.908800 0.620260 -0.566116
O14   O     O_R   0.408940 0.908800 0.379740 -0.564489
O15   O     O_R   0.408940 0.091200 0.620260 -0.566125
O16   O     O_R   0.408940 0.091200 0.379740 -0.564495
Cl1   Cl    Cl    0.998023 0.683247 0.156967 -0.605562
Cl2   Cl    Cl    0.997981 0.683295 0.842804 -0.604258
Cl3   Cl    Cl    0.998024 0.316753 0.156967 -0.605547
Cl4   Cl    Cl    0.997980 0.316705 0.842802 -0.604226
Cl5   Cl    Cl    0.498027 0.183247 0.156967 -0.605580
Cl6   Cl    Cl    0.497986 0.183294 0.842805 -0.604290
Cl7   Cl    Cl    0.498021 0.816753 0.156967 -0.605563
Cl8   Cl    Cl    0.497978 0.816705 0.842804 -0.604256

loop_
_geom_bond_atom_site_label_1
_geom_bond_atom_site_label_2
_ccdc_geom_bond_type
C16   C28   S    
C9    C33   S    
Cu3   Cu4   S    
C17   H13   S    
C21   H17   S    
C3    O6    A    
C51   N3    S    
C7    H61   S    
C19   H15   S    
Cu1   O11   S    
C52   H56   S    
C13   C25   S    
C14   C33   S    
C29   H33   S    
C44   H48   S    
C8    H62   S    
C7    C8    S    
C46   Cl2   S    
C13   H9    S    
C45   C46   S    
Cu2   O2    S    
C26   H22   S    
C23   H27   S    
C37   C41   S    
C25   H21   S    
C32   C36   S    
C11   O14   A    
C1    O1    A    
C38   C42   S    
C27   H23   S    
C19   C36   S    
C48   N2    S    
C5    C6    S    
Cu4   O16   S    
C26   C39   S    
C47   N1    S    
C13   H1    S    
C28   C40   S    
Cu2   O10   S    
C29   C33   S    
C50   H54   S    
Cu3   O15   S    
C48   Cl4   S    
C16   H4    S    
C6    H58   S    
Cu1   O3    S    
C17   H5    S    
C20   H16   S    
C20   C24   S    
C19   H7    S    
Cu3   O5    S    
C28   H32   S    
C24   C38   S    
C12   O16   A    
C16   H12   S    
C12   C36   S    
C18   C35   S    
C15   C34   S    
C52   N4    S    
C16   C34   S    
C2    O3    A    
C50   Cl6   S    
Cu2   O12   S    
C52   Cl8   S    
C18   C22   S    
C5    H59   S    
C45   Cl1   S    
C30   C44   S    
C29   H34   S    
C44   H47   S    
C45   H49   S    
C4    O7    A    
C14   H2    S    
C30   C34   S    
C49   Cl5   S    
C51   C52   S    
Cu4   N3    S    
C7    H63   S    
Cu1   O9    S    
C1    O2    A    
C30   H36   S    
C23   H19   S    
C8    N4    S    
C39   C43   S    
C45   N1    S    
Cu1   Cu2   S    
C22   C37   S    
Cu2   O4    S    
C17   C21   S    
C20   H8    S    
C19   C23   S    
C43   H45   S    
C13   C33   S    
C42   H44   S    
Cu4   O14   S    
C15   C27   S    
C47   C48   S    
C4    C39   S    
C51   Cl7   S    
C27   C40   S    
C26   H30   S    
C15   H11   S    
C25   H29   S    
C14   H10   S    
C12   O15   A    
C50   N4    S    
C10   C34   S    
C14   C26   S    
C27   H31   S    
C6    H60   S    
Cu4   O8    S    
Cu1   O1    S    
C1    C38   S    
C29   C43   S    
C32   H40   S    
Cu2   N1    S    
C21   H25   S    
C3    C40   S    
Cu3   O7    S    
C31   C35   S    
C6    N2    S    
C23   C38   S    
C22   H26   S    
C8    H64   S    
C49   H53   S    
C9    O9    A    
Cu3   N4    S    
C5    N1    S    
C51   H55   S    
C31   C41   S    
C5    H57   S    
C3    O5    A    
C15   H3    S    
C24   H20   S    
C47   Cl3   S    
C7    N3    S    
C30   H35   S    
C10   O12   A    
C31   H38   S    
C47   H51   S    
C18   H14   S    
Cu3   O13   S    
Cu1   N2    S    
C11   C35   S    
C24   H28   S    
C43   H46   S    
C10   O11   A    
C31   H37   S    
C42   H43   S    
C9    O10   A    
C4    O8    A    
C2    C37   S    
C48   H52   S    
C46   H50   S    
C41   H41   S    
C11   O13   A    
C28   H24   S    
Cu4   O6    S    
C20   C36   S    
C40   C44   S    
C32   H39   S    
C21   C37   S    
C22   H18   S    
C49   C50   S    
C32   C42   S    
C41   H42   S    
C46   N2    S    
C18   H6    S    
C17   C35   S    
C25   C39   S    
C2    O4    A    
C49   N3    S    
