data_mof_unit_25665.cif
_audit_creation_date              2012-12-10T17:52:36-0500
_audit_creation_method            fapswitch 2.2
_symmetry_space_group_name_H-M    P1
_symmetry_Int_Tables_number       1
_space_group_crystal_system       triclinic
_cell_length_a                    14.721718
_cell_length_b                    14.787933
_cell_length_c                    23.501086
_cell_angle_alpha                 75.980632
_cell_angle_beta                  102.832691
_cell_angle_gamma                 115.109403
_cell_volume                      4453.15014129

loop_
_atom_site_label
_atom_site_type_symbol
_atom_type_description
_atom_site_fract_x
_atom_site_fract_y
_atom_site_fract_z
_atom_type_partial_charge
C1    C     C_R   0.880272 0.312351 0.510596 0.790883
C2    C     C_R   0.119624 0.687639 0.492023 0.807646
C3    C     C_R   0.096095 0.555275 0.764598 -0.199427
C4    C     C_R   0.911785 0.483837 0.228010 -0.200626
C5    C     C_R   0.096441 0.552991 0.705092 0.430995
C6    C     C_R   0.909366 0.483606 0.287211 0.429148
C7    C     C_R   0.003531 0.506168 0.670450 -0.136318
C8    C     C_R   0.997937 0.495625 0.328704 -0.151508
C9    C     C_R   0.912830 0.462274 0.695028 -0.287501
C10   C     C_R   0.085792 0.503259 0.310199 -0.263975
C11   C     C_R   0.913903 0.463017 0.754251 -0.068040
C12   C     C_R   0.086721 0.501700 0.251312 -0.083568
C13   C     C_R   0.005491 0.508791 0.789355 0.264007
C14   C     C_R   0.000013 0.492534 0.210146 0.278858
C15   C     C_R   0.812296 0.205205 0.522538 -0.059654
C16   C     C_R   0.186623 0.795414 0.490070 -0.051242
C17   C     C_R   0.779281 0.034356 0.574626 -0.175720
C18   C     C_R   0.215978 0.972629 0.457945 -0.155689
C19   C     C_R   0.847693 0.132394 0.557222 -0.169294
C20   C     C_R   0.149789 0.871435 0.465220 -0.188128
C21   C     C_R   0.708660 0.178047 0.503534 -0.192324
C22   C     C_R   0.289176 0.822381 0.512773 -0.170360
C23   C     C_R   0.000940 0.501807 0.608578 0.849674
C24   C     C_R   0.999460 0.498947 0.391090 0.813414
C25   C     C_R   0.637566 0.081184 0.522802 0.111280
C26   C     C_R   0.357865 0.924371 0.506412 0.094193
C27   C     C_R   0.674720 0.008656 0.558535 0.152099
C28   C     C_R   0.319929 0.999258 0.476249 0.156162
C29   C     C_R   0.531094 0.054771 0.508123 0.079828
C30   C     C_R   0.463565 0.953419 0.526132 0.082489
C31   C     C_R   0.503740 0.884737 0.563498 -0.145104
C32   C     C_R   0.489690 0.126603 0.477195 -0.161029
C33   C     C_R   0.607338 0.911873 0.578960 -0.175910
C34   C     C_R   0.386066 0.099631 0.463286 -0.180562
C35   C     C_R   0.687988 0.626899 0.387050 0.116559
C36   C     C_R   0.279206 0.325382 0.597687 0.106240
C37   C     C_R   0.778554 0.611836 0.406000 0.571495
C38   C     C_R   0.200754 0.360535 0.583763 0.564188
C39   C     C_R   0.724183 0.524093 0.498968 -0.021189
C40   C     C_R   0.286632 0.488150 0.508783 -0.016186
C41   C     C_R   0.630028 0.535028 0.481324 -0.064681
C42   C     C_R   0.376443 0.468687 0.528703 -0.064597
C43   C     C_R   0.621005 0.601731 0.428075 -0.105314
C44   C     C_R   0.371867 0.385578 0.574962 -0.109294
C45   C     C_R   0.029892 0.585296 0.112252 0.588682
C46   C     C_R   0.982553 0.416828 0.888415 0.575696
C47   C     C_R   0.546087 0.485835 0.514768 -0.037524
C48   C     C_R   0.467174 0.523792 0.501282 -0.036383
C49   C     C_R   0.482623 0.615809 0.460746 0.181597
C50   C     C_R   0.536117 0.399674 0.560014 0.177902
C51   C     C_R   0.552798 0.649048 0.420693 0.312796
C52   C     C_R   0.457501 0.360977 0.594514 0.330510
C53   C     C_R   0.976327 0.405682 0.130038 0.605008
C54   C     C_R   0.031651 0.595920 0.870116 0.607263
C55   C     C_R   0.977714 0.405185 0.070074 -0.125165
C56   C     C_R   0.034007 0.596772 0.930529 -0.128179
C57   C     C_R   0.005289 0.499326 0.030633 -0.112953
C58   C     C_R   0.007374 0.502808 0.970074 -0.112696
C59   C     C_R   0.029634 0.590016 0.051610 -0.144252
C60   C     C_R   0.983668 0.412274 0.949159 -0.139022
C61   C     C_R   0.953487 0.314956 0.048220 0.210218
C62   C     C_R   0.060571 0.687285 0.952650 0.209372
C63   C     C_R   0.961463 0.319564 0.989142 0.400890
C64   C     C_R   0.053494 0.682973 0.011835 0.401119
Cu1   Cu    Cu3+1 0.081740 0.475680 0.515360 1.002103
Cu2   Cu    Cu3+1 0.918260 0.524320 0.484640 0.997498
H1    H     H_    0.807987 0.979266 0.602065 0.154235
H2    H     H_    0.186198 0.029910 0.436380 0.146068
H3    H     H_    0.456670 0.809613 0.582766 0.152686
H4    H     H_    0.534784 0.205473 0.464017 0.165966
H5    H     H_    0.279101 0.539193 0.468493 0.193137
H6    H     H_    0.743964 0.490964 0.543359 0.202083
H7    H     H_    0.165648 0.593551 0.791797 0.156806
H8    H     H_    0.844903 0.477120 0.195856 0.158058
H9    H     H_    0.841357 0.425988 0.668533 0.201124
H10   H     H_    0.154387 0.511876 0.341110 0.188923
H11   H     H_    0.843550 0.427809 0.773029 0.177217
H12   H     H_    0.155148 0.508716 0.237444 0.162889
H13   H     H_    0.634880 0.856597 0.607401 0.152928
H14   H     H_    0.357692 0.157435 0.440299 0.152979
H15   H     H_    0.314234 0.761961 0.532986 0.182698
H16   H     H_    0.685747 0.234966 0.474171 0.154128
H17   H     H_    0.070418 0.852972 0.449964 0.154254
H18   H     H_    0.927700 0.151828 0.572300 0.207674
N1    N     N_R   0.002142 0.494459 0.149214 -0.470038
N2    N     N_R   0.006686 0.507272 0.850868 -0.468080
N3    N     N_R   0.795430 0.560810 0.461550 -0.251257
N4    N     N_R   0.204570 0.439190 0.538450 -0.236163
O1    O     O_R   0.977900 0.338110 0.520250 -0.534565
O2    O     O_R   0.022100 0.661890 0.479750 -0.583129
O3    O     O_R   0.839850 0.379180 0.494310 -0.580373
O4    O     O_R   0.160150 0.620820 0.505690 -0.566154
O5    O     O_R   0.069020 0.479430 0.595090 -0.545309
O6    O     O_R   0.930980 0.520570 0.404910 -0.484048
O7    O     O_R   0.930970 0.520500 0.569150 -0.589652
O8    O     O_R   0.069030 0.479500 0.430850 -0.597859
O9    O     O_2   0.058483 0.670539 0.134786 -0.482205
O10   O     O_2   0.956978 0.331669 0.866435 -0.498715
O11   O     O_2   0.950731 0.319205 0.169605 -0.473131
O12   O     O_2   0.051217 0.681818 0.830071 -0.464187
Br1   Br    Br    0.905711 0.180393 0.094878 -0.364563
Br2   Br    Br    0.112594 0.821882 0.906501 -0.359316
Br3   Br    Br    0.571641 0.775506 0.366489 -0.361338
Br4   Br    Br    0.480147 0.289888 0.673630 -0.365491
O13   O     O_3   0.111975 0.305370 0.608500 -0.546387
C65   C     C_3   0.129656 0.312399 0.669271 0.061138
H19   H     H_    0.162577 0.392593 0.675809 0.132854
H20   H     H_    0.181877 0.276067 0.695063 0.184180
C66   C     C_3   0.029585 0.258637 0.694385 -0.712973
H21   H     H_    0.998259 0.176647 0.691939 0.254331
H22   H     H_    0.041532 0.267800 0.741350 0.212931
H23   H     H_    0.974126 0.291030 0.668780 0.238940
O14   O     O_3   0.847620 0.642510 0.366925 -0.503893
C67   C     C_3   0.897965 0.749062 0.358387 0.095511
H24   H     H_    0.919256 0.778749 0.400714 0.107627
H25   H     H_    0.849301 0.785289 0.327535 0.193939
C68   C     C_3   0.993480 0.779431 0.331089 -0.700538
H26   H     H_    0.973379 0.753904 0.287566 0.265967
H27   H     H_    0.034406 0.863073 0.324569 0.200050
H28   H     H_    0.044094 0.744214 0.360609 0.235276
Br5   Br    Br    0.645688 0.651296 0.302829 -0.397995
Br6   Br    Br    0.241808 0.182581 0.629199 -0.400286
Br7   Br    Br    0.431841 0.711951 0.469661 -0.536193
Br8   Br    Br    0.608913 0.313216 0.569374 -0.528799
O15   O     O_3   0.942073 0.230785 0.970062 -0.502015
C69   C     C_3   0.034196 0.218103 0.977434 0.123336
H29   H     H_    0.063021 0.203236 0.025249 0.154614
H30   H     H_    0.093336 0.286071 0.955320 0.134452
C70   C     C_3   0.016099 0.127932 0.949796 -0.677075
H31   H     H_    0.990202 0.142058 0.901591 0.271066
H32   H     H_    0.087437 0.115854 0.956298 0.194667
H33   H     H_    0.957395 0.058703 0.970798 0.248818
O16   O     O_3   0.074951 0.772098 0.031170 -0.503194
C71   C     C_3   0.984097 0.787241 0.023602 0.120215
H34   H     H_    0.924070 0.720310 0.045733 0.138610
H35   H     H_    0.955600 0.802432 0.975753 0.154065
C72   C     C_3   0.004471 0.878287 0.051075 -0.667164
H36   H     H_    0.063738 0.946629 0.029831 0.246450
H37   H     H_    0.934007 0.891903 0.044726 0.196639
H38   H     H_    0.030610 0.864156 0.099246 0.273836
O17   O     O_3   0.182876 0.607369 0.677382 -0.575456
C73   C     C_3   0.267872 0.587390 0.709339 0.038120
H39   H     H_    0.297919 0.562907 0.679051 0.164827
H40   H     H_    0.251395 0.525489 0.748446 0.116431
C74   C     C_3   0.350517 0.684267 0.728234 -0.724818
H41   H     H_    0.418358 0.669379 0.751674 0.206337
H42   H     H_    0.371958 0.743688 0.688698 0.252096
H43   H     H_    0.323633 0.712149 0.758335 0.256201
O18   O     O_3   0.821379 0.475881 0.303486 -0.521566
C75   C     C_3   0.760915 0.372347 0.319779 0.094729
H44   H     H_    0.803672 0.333263 0.354360 0.116367
H45   H     H_    0.732688 0.333697 0.280386 0.153545
C76   C     C_3   0.670230 0.363048 0.345167 -0.699790
H46   H     H_    0.625832 0.401677 0.312111 0.270121
H47   H     H_    0.620812 0.281877 0.356827 0.183425
H48   H     H_    0.696161 0.398097 0.385722 0.251752

loop_
_geom_bond_atom_site_label_1
_geom_bond_atom_site_label_2
_ccdc_geom_bond_type
Cu1   O4    S    
C69   H29   S    
C1    O1    A    
C40   H5    S    
C62   Br2   S    
C36   Br6   S    
C39   N3    A    
C71   C72   S    
C67   H24   S    
O18   C75   S    
C39   C41   A    
C27   C33   A    
Cu1   O1    S    
C72   H37   S    
C59   C64   A    
C60   C63   A    
C35   C37   A    
O14   C67   S    
C29   C32   A    
C68   H27   S    
C30   C31   A    
C57   C59   A    
C37   O14   S    
C65   H19   S    
C58   C60   A    
C49   Br7   S    
C18   C20   A    
C61   C63   A    
C2    O2    A    
C62   C64   A    
C11   H11   S    
C66   H22   S    
C34   H14   S    
C15   C19   A    
C6    O18   S    
C10   H10   S    
Cu1   O8    S    
C52   Br4   S    
C23   O7    A    
C49   C51   A    
C75   C76   S    
C12   H12   S    
C13   N2    S    
C50   C52   A    
C39   H6    S    
C31   C33   A    
C1    C15   S    
C76   H47   S    
C2    C16   S    
C4    H8    S    
C3    C13   A    
Cu2   O6    S    
C70   H33   S    
C44   C52   A    
C40   C42   A    
C46   O10   S    
C28   C34   A    
C1    O3    A    
C41   C43   A    
C73   C74   S    
C54   O12   S    
C42   C44   A    
C74   H42   S    
C74   H41   S    
C47   C50   A    
C53   C55   A    
C25   C29   A    
C72   H38   S    
C54   C56   A    
C17   H1    S    
C17   C27   A    
C22   H15   S    
C35   Br5   S    
C50   Br8   S    
C4    C6    A    
C68   H28   S    
Cu2   N3    S    
C5    C7    A    
C33   H13   S    
C32   H4    S    
C69   C70   S    
C53   O11   S    
C61   Br1   S    
C23   O5    A    
C38   N4    A    
C67   H25   S    
C32   C34   A    
C45   N1    A    
C71   H35   S    
C29   C30   A    
C24   O6    A    
C5    O17   S    
C47   C48   A    
C31   H3    S    
C16   C20   A    
C41   C47   A    
C18   C28   A    
C42   C48   A    
C76   H48   S    
C2    O4    A    
C9    C11   A    
C63   O15   S    
Cu2   O3    S    
C10   C12   A    
C48   C49   A    
Cu2   O2    S    
C12   C14   A    
C26   C30   A    
C55   C57   A    
O16   C71   S    
C75   H45   S    
C66   H23   S    
C17   C19   A    
C19   H18   S    
C74   H43   S    
C35   C43   A    
C69   H30   S    
Cu1   N4    S    
C54   N2    A    
C70   H31   S    
C72   H36   S    
C7    C9    A    
C21   C25   A    
C64   O16   S    
C45   C59   A    
C16   C22   A    
C46   C60   A    
C73   H39   S    
C37   N3    A    
C14   N1    S    
C3    C5    A    
C6    C8    A    
C71   H34   S    
C25   C27   A    
O13   C65   S    
C26   C28   A    
C40   N4    A    
C38   O13   S    
C24   O8    A    
C45   O9    S    
O17   C73   S    
C11   C13   A    
C43   C51   A    
C57   C58   A    
O15   C69   S    
C65   H20   S    
C51   Br3   S    
C7    C23   S    
C55   C61   A    
C36   C38   A    
Cu1   O5    S    
C8    C24   S    
C56   C58   A    
C56   C62   A    
C4    C14   A    
C3    H7    S    
C67   C68   S    
C36   C44   A    
C15   C21   A    
C21   H16   S    
C8    C10   A    
Cu1   Cu2   S    
C22   C26   A    
C20   H17   S    
C66   H21   S    
C75   H44   S    
C53   N1    A    
C9    H9    S    
C70   H32   S    
C76   H46   S    
C68   H26   S    
C18   H2    S    
C73   H40   S    
Cu2   O7    S    
C46   N2    A    
C65   C66   S    
