data_mof_unit_19382.cif
_audit_creation_date              2012-12-10T17:51:32-0500
_audit_creation_method            fapswitch 2.2
_symmetry_space_group_name_H-M    P1
_symmetry_Int_Tables_number       1
_space_group_crystal_system       triclinic
_cell_length_a                    9.868543
_cell_length_b                    10.686616
_cell_length_c                    16.830377
_cell_angle_alpha                 91.466127
_cell_angle_beta                  86.765494
_cell_angle_gamma                 89.376824
_cell_volume                      1771.41125762

loop_
_atom_site_label
_atom_site_type_symbol
_atom_type_description
_atom_site_fract_x
_atom_site_fract_y
_atom_site_fract_z
_atom_type_partial_charge
Br1   Br    Br    0.265845 0.234722 0.657855 -0.386370
Br2   Br    Br    0.140652 0.858279 0.725052 -0.496526
C1    C     C_R   0.498939 0.740391 0.494723 0.868332
C2    C     C_R   0.523001 0.516347 0.261630 -0.033909
C3    C     C_R   0.243649 0.895446 0.480087 -0.153579
C4    C     C_R   0.483764 0.502376 0.653461 0.932083
C5    C     C_R   0.123351 0.957714 0.504834 -0.304726
C6    C     C_R   0.125885 0.066087 0.552926 -0.012860
C7    C     C_R   0.252741 0.118554 0.568954 0.328175
C8    C     C_R   0.373731 0.065046 0.531967 -0.009298
C9    C     C_R   0.370420 0.943146 0.500602 0.075922
C10   C     C_R   0.495036 0.874960 0.492123 -0.088640
C11   C     C_R   0.619006 0.936339 0.495534 -0.223727
C12   C     C_R   0.359652 0.578558 0.776973 -0.164035
C13   C     C_R   0.620381 0.063369 0.507152 -0.188989
C14   C     C_R   0.498224 0.128843 0.522484 -0.080535
C15   C     C_R   0.847581 0.665428 0.603427 -0.254497
C16   C     C_R   0.499459 0.261262 0.509426 0.921870
C17   C     C_R   0.912022 0.746969 0.654331 -0.279659
C18   C     C_R   0.052255 0.746830 0.654576 0.281518
C19   C     C_R   0.128517 0.665431 0.603493 -0.210898
C20   C     C_R   0.066535 0.581749 0.550909 0.141435
C21   C     C_R   0.921714 0.581713 0.550891 0.200292
C22   C     C_R   0.933950 0.421476 0.451571 -0.080611
C23   C     C_R   0.414258 0.581230 0.144293 -0.150186
C24   C     C_R   0.077360 0.421498 0.451597 -0.077191
C25   C     C_R   0.516856 0.501611 0.347115 0.859835
C26   C     C_R   0.481541 0.534619 0.738822 -0.038051
C27   C     C_R   0.605578 0.547875 0.777425 -0.153392
C28   C     C_R   0.606777 0.622991 0.847110 -0.071862
C29   C     C_R   0.481425 0.650759 0.889037 0.189997
C30   C     C_R   0.359214 0.632374 0.852804 -0.146169
C31   C     C_2   0.730706 0.477147 0.748985 0.456083
C32   C     C_2   0.994228 0.119787 0.584975 0.486465
C33   C     C_2   0.736900 0.665234 0.879773 0.381171
C34   C     C_R   0.407756 0.559994 0.225167 -0.203231
C35   C     C_R   0.644486 0.492930 0.216481 -0.200166
C36   C     C_R   0.650358 0.512680 0.135285 -0.141074
C37   C     C_R   0.535948 0.558231 0.099366 0.192419
C38   C     C_2   0.475078 0.658121 0.976051 -0.138468
C39   C     C_2   0.543761 0.570789 0.013751 -0.193283
H1    H     H_    0.744262 0.493041 0.100448 0.139118
H2    H     H_    0.235440 0.671110 0.606810 0.221958
H3    H     H_    0.136114 0.357350 0.412217 0.135753
H4    H     H_    0.734227 0.459049 0.243765 0.152499
H5    H     H_    0.609404 0.503621 0.980080 0.150612
H6    H     H_    0.263086 0.654141 0.884766 0.160934
H7    H     H_    0.323644 0.612516 0.116897 0.132170
H8    H     H_    0.264166 0.569349 0.748801 0.189370
H9    H     H_    0.405256 0.723517 0.007883 0.148916
H10   H     H_    0.829513 0.520279 0.748359 0.059199
H11   H     H_    0.904416 0.062003 0.586256 0.051234
H12   H     H_    0.715461 0.886814 0.487673 0.167130
H13   H     H_    0.832401 0.618112 0.863522 0.053528
H14   H     H_    0.235403 0.812376 0.442833 0.173510
H15   H     H_    0.027589 0.917874 0.489155 0.146316
H16   H     H_    0.716971 0.110435 0.501748 0.164512
H17   H     H_    0.884362 0.357346 0.412144 0.129871
H18   H     H_    0.739766 0.669655 0.608127 0.220643
H19   H     H_    0.852235 0.809796 0.694195 0.200971
H20   H     H_    0.312988 0.579108 0.259190 0.156350
N1    N     N_R   0.857140 0.501200 0.500750 -0.106790
N2    N     N_R   0.142740 0.501280 0.500770 -0.107232
O1    O     O_R   0.385310 0.683220 0.500000 -0.655788
O2    O     O_2   0.982830 0.228882 0.607842 -0.503209
O3    O     O_2   0.738711 0.756179 0.925131 -0.518602
O4    O     O_R   0.614640 0.683250 0.500010 -0.645928
O5    O     O_R   0.371780 0.500010 0.615800 -0.613409
O6    O     O_R   0.601110 0.500030 0.615800 -0.611998
O7    O     O_R   0.385360 0.316750 0.499990 -0.607360
O8    O     O_R   0.614690 0.316780 0.500000 -0.607754
O9    O     O_R   0.398890 0.499970 0.384200 -0.629506
O10   O     O_R   0.628220 0.499990 0.384200 -0.623139
O11   O     O_2   0.723967 0.367722 0.726934 -0.488459
Zn1   Zn    Zn3+2 0.346870 0.499980 0.499990 0.960685
Zn2   Zn    Zn3+2 0.653130 0.500020 0.500010 0.970229

loop_
_geom_bond_atom_site_label_1
_geom_bond_atom_site_label_2
_ccdc_geom_bond_type
C16   O7    A    
C4    O6    A    
C2    C34   A    
C17   C18   A    
C24   H3    S    
C5    C6    A    
C37   C39   S    
C1    O1    A    
O5    Zn1   S    
C15   C21   A    
C28   C33   S    
C26   C27   A    
C35   C36   A    
C22   C24   A    
C3    C9    A    
C36   C37   A    
C12   H8    S    
C13   C14   A    
C27   C31   S    
C29   C38   S    
O6    Zn2   S    
C1    C10   S    
C15   C17   A    
C20   N2    A    
C19   H2    S    
C21   N1    A    
C4    C26   S    
C2    C35   A    
C39   H5    S    
C7    C8    A    
C4    O5    A    
C19   C20   A    
C33   H13   S    
C13   H16   S    
N1    Zn2   S    
C5    H15   S    
O9    Zn1   S    
C32   O2    D    
C11   H12   S    
Br2   C18   S    
Br1   C7    S    
C3    C5    A    
C6    C7    A    
C33   O3    D    
C24   N2    A    
C27   C28   A    
C29   C30   A    
C6    C32   S    
C10   C11   A    
C23   H7    S    
C15   H18   S    
C22   H17   S    
C38   C39   D    
C11   C13   A    
O10   Zn2   S    
C35   H4    S    
C34   H20   S    
O8    Zn2   S    
C2    C25   S    
C16   O8    A    
C22   N1    A    
C3    H14   S    
C1    O4    A    
C12   C30   A    
C9    C10   A    
C36   H1    S    
C17   H19   S    
C31   H10   S    
C32   H11   S    
C8    C14   A    
C23   C37   A    
C28   C29   A    
N2    Zn1   S    
C38   H9    S    
C30   H6    S    
O1    Zn1   S    
C8    C9    A    
C23   C34   A    
C31   O11   D    
C18   C19   A    
C14   C16   S    
O7    Zn1   S    
C20   C21   A    
O4    Zn2   S    
C12   C26   A    
C25   O10   A    
C25   O9    A    
