data_mof_unit_33007.cif
_audit_creation_date              2012-12-11T14:04:00-0500
_audit_creation_method            fapswitch 2.2
_symmetry_space_group_name_H-M    P1
_symmetry_Int_Tables_number       1
_space_group_crystal_system       triclinic
_cell_length_a                    19.165271
_cell_length_b                    11.018495
_cell_length_c                    18.932505
_cell_angle_alpha                 90.048989
_cell_angle_beta                  89.506704
_cell_angle_gamma                 90.094581
_cell_volume                      3997.86828911

loop_
_atom_site_label
_atom_site_type_symbol
_atom_type_description
_atom_site_fract_x
_atom_site_fract_y
_atom_site_fract_z
_atom_type_partial_charge
C1    C     C_R   0.225780 0.523998 0.639319 0.589279
C2    C     C_R   0.769395 0.502359 0.361846 0.563414
C3    C     C_R   0.724559 0.024982 0.640432 0.543273
C4    C     C_R   0.258385 0.959125 0.346402 0.556594
C5    C     C_2   0.235841 0.884436 0.533410 -0.152312
C6    C     C_2   0.761040 0.853552 0.472331 -0.152407
C7    C     C_2   0.807006 0.417247 0.551869 -0.170069
C8    C     C_2   0.206642 0.384849 0.457067 -0.166862
C9    C     C_R   0.986306 0.666743 0.433259 -0.053359
C10   C     C_R   0.985983 0.653147 0.581899 -0.031775
C11   C     C_R   0.462111 0.146520 0.438004 -0.046279
C12   C     C_R   0.541813 0.153641 0.562433 -0.046065
C13   C     C_R   0.957358 0.889888 0.447338 -0.100867
C14   C     C_R   0.954612 0.865272 0.592933 -0.066080
C15   C     C_R   0.438992 0.362701 0.453820 -0.101542
C16   C     C_R   0.542592 0.377739 0.552384 -0.095636
C17   C     C_R   0.955152 0.991756 0.491058 -0.176207
C18   C     C_R   0.950568 0.979470 0.563583 -0.116146
C19   C     C_R   0.465679 0.475125 0.471585 -0.138588
C20   C     C_R   0.518142 0.483167 0.521066 -0.141903
C21   C     C_R   0.969703 0.763369 0.550285 0.002165
C22   C     C_R   0.969325 0.772475 0.475477 -0.000187
C23   C     C_R   0.518363 0.262254 0.531431 0.012513
C24   C     C_R   0.471901 0.256185 0.474797 -0.005507
C25   C     C_R   0.988478 0.546401 0.540024 0.018843
C26   C     C_R   0.004149 0.557640 0.468144 0.000630
C27   C     C_R   0.534741 0.042883 0.524490 0.004913
C28   C     C_R   0.489677 0.036697 0.466792 0.023501
C29   C     C_R   0.981574 0.428263 0.568771 -0.083474
C30   C     C_R   0.033706 0.456189 0.432856 -0.070940
C31   C     C_R   0.572850 0.937333 0.541589 -0.103561
C32   C     C_R   0.476754 0.919646 0.437561 -0.076845
C33   C     C_R   0.002983 0.326744 0.530516 -0.149364
C34   C     C_R   0.031973 0.341392 0.463597 -0.132334
C35   C     C_R   0.571997 0.833901 0.499711 -0.136245
C36   C     C_R   0.523736 0.825271 0.446536 -0.129639
C37   C     C_2   0.239103 0.898605 0.927799 -0.090534
C38   C     C_2   0.760789 0.898742 0.072290 -0.092104
C39   C     C_2   0.739110 0.398647 0.927789 -0.092891
C40   C     C_2   0.260782 0.398743 0.072294 -0.093065
C41   C     C_2   0.249419 0.901231 0.083818 -0.108487
C42   C     C_2   0.750560 0.901499 0.916194 -0.107343
C43   C     C_2   0.749290 0.401213 0.083853 -0.107719
C44   C     C_2   0.250427 0.401547 0.916237 -0.106711
C45   C     C_R   0.231217 0.885777 0.656067 0.547849
C46   C     C_R   0.770861 0.877105 0.348986 0.541405
C47   C     C_R   0.729294 0.382838 0.652485 0.522111
C48   C     C_R   0.269925 0.380787 0.347396 0.533764
C49   C     C_2   0.190774 0.921377 0.048139 -0.160491
C50   C     C_2   0.809073 0.922672 0.952005 -0.164234
C51   C     C_2   0.690763 0.422017 0.048083 -0.163772
C52   C     C_2   0.309051 0.422089 0.951962 -0.159194
C53   C     C_2   0.184662 0.895447 0.973134 -0.149418
C54   C     C_2   0.815257 0.896879 0.026979 -0.151692
C55   C     C_2   0.684617 0.396253 0.973068 -0.151584
C56   C     C_2   0.315200 0.396135 0.026926 -0.149122
C57   C     C_2   0.010734 0.656285 0.926215 -0.102890
C58   C     C_2   0.008106 0.664058 0.082769 -0.112621
C59   C     C_2   0.491985 0.163937 0.917299 -0.109685
C60   C     C_2   0.489378 0.156265 0.073846 -0.105740
C61   C     C_2   0.020994 0.564743 0.044533 -0.163837
C62   C     C_2   0.035885 0.569769 0.969268 -0.153114
C63   C     C_2   0.464186 0.069603 0.030739 -0.153511
C64   C     C_2   0.479065 0.064593 0.955472 -0.163384
C65   C     C_R   0.025583 0.653088 0.648555 0.526295
C66   C     C_R   0.966414 0.655779 0.357483 0.513718
C67   C     C_R   0.561577 0.150208 0.637701 0.519342
C68   C     C_R   0.439701 0.148846 0.362816 0.539269
C69   C     C_R   0.238750 0.464775 0.850095 0.564585
C70   C     C_R   0.761164 0.464660 0.149972 0.557424
C71   C     C_R   0.738783 0.964720 0.850064 0.565507
C72   C     C_R   0.261201 0.964726 0.149930 0.547575
C73   C     C_R   0.225424 0.869580 0.854507 0.552212
C74   C     C_R   0.774547 0.869629 0.145518 0.554532
C75   C     C_R   0.725419 0.369575 0.854506 0.555662
C76   C     C_R   0.274533 0.369657 0.145528 0.552403
C77   C     C_R   0.031961 0.651646 0.852498 0.548583
C78   C     C_R   0.971527 0.652748 0.149873 0.555191
C79   C     C_R   0.528503 0.152698 0.850155 0.567430
C80   C     C_R   0.468093 0.151673 0.147539 0.560607
C81   C     C_2   0.257607 0.937210 0.591940 -0.104330
C82   C     C_2   0.743178 0.915913 0.415025 -0.083913
C83   C     C_2   0.755050 0.454490 0.593018 -0.128406
C84   C     C_2   0.235644 0.447030 0.403606 -0.127433
C85   C     C_2   0.239799 0.882991 0.404625 0.020313
C86   C     C_2   0.731733 0.005103 0.565463 -0.008935
C87   C     C_2   0.756735 0.452883 0.432119 0.003243
C88   C     C_2   0.235877 0.509930 0.562502 -0.001246
C89   C     C_2   0.267463 0.915703 0.466229 -0.156709
C90   C     C_2   0.739219 0.889119 0.543293 -0.137023
C91   C     C_2   0.811076 0.456340 0.477735 -0.168519
C92   C     C_2   0.191752 0.436039 0.527302 -0.152309
Cr1   Cr    Cr6+3 0.113970 0.508630 0.747920 1.014379
Cr2   Cr    Cr6+3 0.886030 0.508630 0.252080 1.009949
Cr3   Cr    Cr6+3 0.613970 0.008630 0.747920 1.007989
Cr4   Cr    Cr6+3 0.386030 0.008630 0.252080 0.999680
Cr5   Cr    Cr6+3 0.269200 0.666740 0.749850 1.002461
Cr6   Cr    Cr6+3 0.730800 0.666740 0.250150 1.009429
Cr7   Cr    Cr6+3 0.769200 0.166740 0.749850 1.000919
Cr8   Cr    Cr6+3 0.230800 0.166740 0.250150 0.997928
Cr9   Cr    Cr6+3 0.112300 0.820070 0.749800 1.011178
Cr10  Cr    Cr6+3 0.887700 0.820070 0.250200 0.989251
Cr11  Cr    Cr6+3 0.612300 0.320070 0.749800 1.006933
Cr12  Cr    Cr6+3 0.387700 0.320070 0.250200 0.993969
H1    H     H_    0.310330 0.980986 0.466764 0.114242
H2    H     H_    0.737652 0.816102 0.581909 0.135020
H3    H     H_    0.862415 0.482346 0.458364 0.147442
H4    H     H_    0.150484 0.389813 0.556283 0.163587
H5    H     H_    0.131942 0.880800 0.954067 0.152440
H6    H     H_    0.868048 0.883352 0.046035 0.150642
H7    H     H_    0.631848 0.382338 0.953958 0.149853
H8    H     H_    0.367944 0.381880 0.045936 0.152857
H9    H     H_    0.292438 0.850937 0.060283 0.103410
H10   H     H_    0.707658 0.850586 0.939610 0.109050
H11   H     H_    0.792165 0.350473 0.060385 0.109093
H12   H     H_    0.207379 0.351085 0.939722 0.102304
H13   H     H_    0.292413 0.911884 0.945127 0.092696
H14   H     H_    0.707431 0.910874 0.054942 0.097259
H15   H     H_    0.792448 0.411178 0.945185 0.097295
H16   H     H_    0.207451 0.411613 0.055016 0.090818
H17   H     H_    0.016908 0.474811 0.067728 0.154570
H18   H     H_    0.065977 0.494169 0.948227 0.154674
H19   H     H_    0.434044 0.993910 0.051727 0.155064
H20   H     H_    0.483085 0.974658 0.932210 0.155558
H21   H     H_    0.015456 0.754143 0.060587 0.095279
H22   H     H_    0.981063 0.733263 0.945846 0.087666
H23   H     H_    0.519099 0.233338 0.054267 0.086454
H24   H     H_    0.484698 0.254012 0.939546 0.095697
H25   H     H_    0.194915 0.816601 0.537126 0.142236
H26   H     H_    0.796197 0.776373 0.467847 0.131291
H27   H     H_    0.844201 0.352146 0.571329 0.142298
H28   H     H_    0.199447 0.287262 0.452318 0.144103
H29   H     H_    0.299951 0.002929 0.592499 0.091067
H30   H     H_    0.699525 0.977471 0.414642 0.105771
H31   H     H_    0.721916 0.528087 0.574929 0.109368
H32   H     H_    0.239920 0.544695 0.403464 0.086624
H33   H     H_    0.954002 0.081395 0.467836 0.107436
H34   H     H_    0.943251 0.058090 0.597075 0.111703
H35   H     H_    0.446699 0.554270 0.445031 0.115568
H36   H     H_    0.540190 0.570151 0.535032 0.100272
H37   H     H_    0.958730 0.911318 0.392173 0.167078
H38   H     H_    0.947612 0.857482 0.649549 0.130099
H39   H     H_    0.394034 0.357636 0.422222 0.165175
H40   H     H_    0.584979 0.387465 0.587524 0.166793
H41   H     H_    0.057563 0.464771 0.381066 0.138446
H42   H     H_    0.960474 0.414240 0.621383 0.133692
H43   H     H_    0.431442 0.900056 0.405917 0.150705
H44   H     H_    0.605265 0.933397 0.585728 0.169236
H45   H     H_    0.000021 0.237695 0.554112 0.104482
H46   H     H_    0.052481 0.263959 0.435162 0.104697
H47   H     H_    0.605411 0.757667 0.511688 0.108357
H48   H     H_    0.517867 0.741163 0.417599 0.100512
H49   H     H_    0.146316 0.965464 0.073185 0.152231
H50   H     H_    0.853415 0.967482 0.927075 0.154300
H51   H     H_    0.646428 0.466589 0.073062 0.153282
H52   H     H_    0.353518 0.466413 0.926964 0.154733
O1    O     O_R   0.043230 0.549300 0.667990 -0.532148
O2    O     O_R   0.956770 0.549300 0.332010 -0.525261
O3    O     O_R   0.543230 0.049300 0.667990 -0.516198
O4    O     O_R   0.456770 0.049300 0.332010 -0.518650
O5    O     O_R   0.262920 0.788600 0.824420 -0.497908
O6    O     O_R   0.737080 0.788600 0.175580 -0.493815
O7    O     O_R   0.762920 0.288600 0.824420 -0.493447
O8    O     O_R   0.237080 0.288600 0.175580 -0.494869
O9    O     O_R   0.167530 0.905110 0.830340 -0.516389
O10   O     O_R   0.832470 0.905110 0.169660 -0.517210
O11   O     O_R   0.667530 0.405110 0.830340 -0.511977
O12   O     O_R   0.332470 0.405110 0.169660 -0.515965
O13   O     O_R   0.054010 0.748440 0.822860 -0.504300
O14   O     O_R   0.945990 0.748440 0.177140 -0.504454
O15   O     O_R   0.554010 0.248440 0.822860 -0.496076
O16   O     O_R   0.445990 0.248440 0.177140 -0.498528
O17   O     O_3   0.165160 0.665150 0.749190 -0.271911
O18   O     O_3   0.834840 0.665150 0.250810 -0.257398
O19   O     O_3   0.665160 0.165150 0.749190 -0.289613
O20   O     O_3   0.334840 0.165150 0.250810 -0.261803
O21   O     O_R   0.178620 0.457600 0.674100 -0.500786
O22   O     O_R   0.821380 0.457600 0.325900 -0.511511
O23   O     O_R   0.678620 0.957600 0.674100 -0.541435
O24   O     O_R   0.321380 0.957600 0.325900 -0.539309
O25   O     O_R   0.284680 0.542100 0.669460 -0.528708
O26   O     O_R   0.715320 0.542100 0.330540 -0.517573
O27   O     O_R   0.784680 0.042100 0.669460 -0.506184
O28   O     O_R   0.215320 0.042100 0.330540 -0.527879
O29   O     O_R   0.262860 0.790390 0.676650 -0.541157
O30   O     O_R   0.737140 0.790390 0.323350 -0.502656
O31   O     O_R   0.762860 0.290390 0.676650 -0.519017
O32   O     O_R   0.237140 0.290390 0.323350 -0.497253
O33   O     O_R   0.167460 0.907030 0.670940 -0.501674
O34   O     O_R   0.832540 0.907030 0.329060 -0.533677
O35   O     O_R   0.667460 0.407030 0.670940 -0.550601
O36   O     O_R   0.332540 0.407030 0.329060 -0.547739
O37   O     O_R   0.053950 0.750220 0.675100 -0.502916
O38   O     O_R   0.946050 0.750220 0.324900 -0.526056
O39   O     O_R   0.553950 0.250220 0.675100 -0.495440
O40   O     O_R   0.446050 0.250220 0.324900 -0.515594
O41   O     O_R   0.043300 0.547370 0.827390 -0.516385
O42   O     O_R   0.956700 0.547370 0.172610 -0.511723
O43   O     O_R   0.543300 0.047370 0.827390 -0.507306
O44   O     O_R   0.456700 0.047370 0.172610 -0.507364
O45   O     O_R   0.178690 0.455820 0.821860 -0.500236
O46   O     O_R   0.821310 0.455820 0.178140 -0.494528
O47   O     O_R   0.678690 0.955820 0.821860 -0.492086
O48   O     O_R   0.321310 0.955820 0.178140 -0.506903
O49   O     O_R   0.284750 0.540170 0.828860 -0.507994
O50   O     O_R   0.715250 0.540170 0.171140 -0.517566
O51   O     O_R   0.784750 0.040170 0.828860 -0.510733
O52   O     O_R   0.215250 0.040170 0.171140 -0.518313
C93   C     C_3   0.176165 0.803820 0.394995 -0.261280
C94   C     C_3   0.112732 0.881806 0.377516 -0.262294
C95   C     C_3   0.102240 0.987446 0.429783 -0.383443
H53   H     H_    0.060702 0.047357 0.409613 0.113881
H54   H     H_    0.148145 0.047082 0.436026 0.182710
H55   H     H_    0.089994 0.951410 0.483137 0.174392
H56   H     H_    0.116082 0.916580 0.322606 0.176182
H57   H     H_    0.067308 0.822356 0.376782 0.145207
H58   H     H_    0.186316 0.741604 0.349830 0.108078
H59   H     H_    0.164209 0.743756 0.440267 0.124603
C96   C     C_3   0.741411 0.118926 0.520714 -0.255546
C97   C     C_3   0.815622 0.127052 0.490146 -0.276533
C98   C     C_3   0.823008 0.184459 0.416940 -0.426500
H60   H     H_    0.844403 0.118034 0.378572 0.162300
H61   H     H_    0.861082 0.260118 0.418295 0.164505
H62   H     H_    0.772663 0.215593 0.396448 0.161243
H63   H     H_    0.850844 0.171201 0.528302 0.148512
H64   H     H_    0.834834 0.035107 0.484633 0.207672
H65   H     H_    0.733377 0.199160 0.554642 0.132249
H66   H     H_    0.700004 0.127065 0.480849 0.116660
C99   C     C_3   0.682490 0.413504 0.452127 -0.230660
C100  C     C_3   0.642627 0.344511 0.393219 -0.257026
C101  C     C_3   0.591270 0.424012 0.351881 -0.359855
H67   H     H_    0.607109 0.429358 0.295391 0.163780
H68   H     H_    0.586772 0.517474 0.373370 0.154472
H69   H     H_    0.538991 0.383382 0.353176 0.174561
H70   H     H_    0.679147 0.301620 0.355027 0.155737
H71   H     H_    0.612924 0.268462 0.417570 0.142678
H72   H     H_    0.683504 0.351798 0.497786 0.118232
H73   H     H_    0.653335 0.495252 0.469463 0.136394
C102  C     C_3   0.295271 0.580051 0.524048 -0.250287
C103  C     C_3   0.355677 0.636859 0.566327 -0.277375
C104  C     C_3   0.396072 0.731044 0.525019 -0.472749
H74   H     H_    0.451062 0.723942 0.541378 0.161073
H75   H     H_    0.390029 0.719457 0.467235 0.146458
H76   H     H_    0.378788 0.824058 0.538868 0.163658
H77   H     H_    0.339457 0.687682 0.612475 0.234635
H78   H     H_    0.390971 0.563655 0.584718 0.187801
H79   H     H_    0.270616 0.653095 0.493040 0.138940
H80   H     H_    0.322768 0.516799 0.488229 0.156578

loop_
_geom_bond_atom_site_label_1
_geom_bond_atom_site_label_2
_ccdc_geom_bond_type
C70   O46   A    
C7    C83   D    
C14   H38   S    
C96   H65   S    
Cr10  O14   S    
C6    C82   D    
C87   C91   D    
C14   C18   A    
Cr9   O17   S    
C35   C36   A    
C74   O10   A    
C6    H26   S    
C43   C51   D    
Cr7   O31   S    
Cr8   O52   S    
C57   C62   D    
Cr12  O20   S    
C32   H43   S    
C100  H70   S    
Cr11  O11   S    
C75   O11   A    
C12   C23   A    
C51   H51   S    
C59   C64   D    
C50   C54   S    
Cr11  O39   S    
C13   C22   A    
C57   H22   S    
C60   C63   D    
Cr3   O3    S    
C93   H59   S    
C32   C36   A    
C14   C21   A    
C49   H49   S    
C16   H40   S    
C102  C103  S    
C46   O34   A    
C15   C19   A    
C98   H62   S    
Cr9   O33   S    
C68   O40   A    
C2    O26   A    
Cr6   O18   S    
C3    O23   A    
C9    C22   A    
Cr5   O29   S    
Cr3   O47   S    
C94   H56   S    
C80   O44   A    
C29   C33   A    
C11   C24   A    
C78   O14   A    
C54   H6    S    
C102  H79   S    
C104  H74   S    
Cr2   O22   S    
C79   O15   A    
C18   H34   S    
Cr3   O19   S    
C9    C66   S    
C103  C104  S    
C73   O5    A    
C71   O51   A    
C43   H11   S    
C46   C82   S    
C1    O21   A    
C92   H4    S    
C39   C55   D    
C88   C92   D    
C40   C56   D    
C84   H32   S    
C17   C18   A    
Cr8   O20   S    
C23   C24   A    
C100  H71   S    
Cr2   O46   S    
C39   C75   S    
C96   H66   S    
Cr1   O45   S    
Cr7   O27   S    
C8    C92   S    
C72   O48   A    
C37   C53   D    
Cr5   O49   S    
C44   C52   D    
C1    C88   S    
C5    H25   S    
Cr10  O10   S    
C21   C22   A    
C3    C86   S    
C103  H78   S    
Cr8   O32   S    
C100  C101  S    
C35   H47   S    
C4    O24   A    
C67   O39   A    
Cr10  O38   S    
C41   C49   D    
C97   C98   S    
Cr6   O6    S    
Cr9   O37   S    
C9    C26   A    
Cr4   O48   S    
C65   O37   A    
C10   C21   A    
C25   C29   A    
C69   O45   A    
C12   C67   S    
C79   O43   A    
C30   C34   A    
C12   C27   A    
C27   C31   A    
C57   C77   S    
C44   C69   S    
Cr5   O17   S    
C90   H2    S    
C72   O52   A    
C86   C90   D    
C59   C79   S    
C29   H42   S    
C74   O6    A    
Cr1   O21   S    
C36   H48   S    
C4    C85   S    
C51   C55   S    
C59   H24   S    
C64   H20   S    
C88   C102  S    
C46   O30   A    
C48   C84   S    
C48   O36   A    
Cr7   O51   S    
C102  H80   S    
Cr2   O42   S    
C81   H29   S    
C82   H30   S    
C71   O47   A    
C42   H10   S    
C8    H28   S    
C99   C100  S    
C91   H3    S    
Cr12  O12   S    
C98   H60   S    
C5    C81   D    
C95   H53   S    
C38   C54   D    
C28   C32   A    
C16   C20   A    
C7    C91   S    
Cr11  O19   S    
C93   C94   S    
Cr12  O40   S    
C97   H64   S    
C2    C87   S    
Cr8   O8    S    
C48   O32   A    
C85   C89   D    
Cr4   O24   S    
C87   C99   S    
Cr1   O1    S    
C66   O2    A    
C42   C50   D    
C41   C72   S    
Cr7   O7    S    
C31   H44   S    
C50   H50   S    
C10   C25   A    
C65   O1    A    
C15   C24   A    
C95   H54   S    
C73   O9    A    
Cr2   O18   S    
C26   C30   A    
C16   C23   A    
Cr5   O5    S    
C101  H68   S    
C103  H77   S    
C15   H39   S    
C76   O8    A    
C55   H7    S    
Cr11  O35   S    
C80   O16   A    
C52   H52   S    
C99   H72   S    
C68   O4    A    
C39   H15   S    
Cr12  O16   S    
C62   H18   S    
C47   O31   A    
C11   C68   S    
C30   H41   S    
C67   O3    A    
C38   C74   S    
C10   C65   S    
Cr3   O23   S    
C96   C97   S    
C77   O13   A    
C37   C73   S    
C60   C80   S    
C1    O25   A    
Cr4   O20   S    
C40   H16   S    
C8    C84   D    
C83   H31   S    
C13   H37   S    
C60   H23   S    
C45   C81   S    
C61   H17   S    
C41   H9    S    
C47   C83   S    
C85   C93   S    
Cr2   O2    S    
C63   H19   S    
Cr5   O25   S    
Cr10  O18   S    
C70   O50   A    
Cr6   O26   S    
C43   C70   S    
C2    O22   A    
C69   O49   A    
C13   C17   A    
C3    O27   A    
C98   H61   S    
C104  H76   S    
C93   H58   S    
C20   H36   S    
C19   C20   A    
C17   H33   S    
Cr4   O4    S    
C25   C26   A    
C7    H27   S    
Cr6   O30   S    
Cr4   O44   S    
C6    C90   S    
Cr9   O9    S    
Cr11  O15   S    
C45   O29   A    
Cr7   O19   S    
C75   O7    A    
C11   C28   A    
C58   C61   D    
C94   H57   S    
Cr1   O41   S    
Cr1   O17   S    
C42   C71   S    
Cr10  O34   S    
C33   H45   S    
C33   C34   A    
C97   H63   S    
C76   O12   A    
C101  H69   S    
C31   C35   A    
C86   C96   S    
C34   H46   S    
Cr9   O13   S    
C47   O35   A    
C61   C62   S    
Cr8   O28   S    
C4    O28   A    
C49   C53   S    
C58   C78   S    
C63   C64   S    
C38   H14   S    
C40   C76   S    
C95   H55   S    
C37   H13   S    
C44   H12   S    
C58   H21   S    
Cr3   O43   S    
C94   C95   S    
C89   H1    S    
C101  H67   S    
C45   O33   A    
Cr6   O50   S    
C53   H5    S    
C78   O42   A    
C104  H75   S    
C99   H73   S    
C66   O38   A    
C77   O41   A    
C56   H8    S    
C19   H35   S    
C5    C89   S    
C52   C56   S    
C27   C28   A    
Cr12  O36   S    
