data_mof_unit_16829.cif
_audit_creation_date              2012-12-10T20:27:53-0500
_audit_creation_method            fapswitch 2.2
_symmetry_space_group_name_H-M    P1
_symmetry_Int_Tables_number       1
_space_group_crystal_system       triclinic
_cell_length_a                    12.688539
_cell_length_b                    10.634897
_cell_length_c                    9.933421
_cell_angle_alpha                 89.125577
_cell_angle_beta                  96.833996
_cell_angle_gamma                 92.169738
_cell_volume                      1329.872817

loop_
_atom_site_label
_atom_site_type_symbol
_atom_type_description
_atom_site_fract_x
_atom_site_fract_y
_atom_site_fract_z
_atom_type_partial_charge
C1    C     C_R   0.507148 0.260301 0.501704 0.874810
C2    C     C_R   0.032348 0.584882 0.559796 0.159967
C3    C     C_R   0.973212 0.580657 0.429438 0.124336
C4    C     C_R   0.864824 0.553885 0.421874 -0.281653
C5    C     C_R   0.873293 0.554115 0.667691 -0.198528
C6    C     C_R   0.981729 0.579534 0.677582 -0.228321
C7    C     C_R   0.534513 0.062676 0.627215 0.147180
C8    C     C_R   0.533226 0.130390 0.506632 -0.110623
C9    C     C_R   0.559309 0.069852 0.391019 -0.233156
C10   C     C_R   0.556994 0.938955 0.388930 -0.234328
C11   C     C_R   0.531748 0.871879 0.504271 -0.095277
C12   C     C_R   0.299118 0.514153 0.473566 0.910336
C13   C     C_R   0.534557 0.934365 0.626637 0.140476
C14   C     C_3   0.461544 0.921785 0.733794 -0.481016
C15   C     C_3   0.461071 0.063726 0.732700 -0.525672
C16   C     C_R   0.464846 0.395492 0.067789 0.073847
C17   C     C_R   0.544653 0.597590 0.076903 -0.137520
C18   C     C_R   0.545042 0.597329 0.933486 -0.129095
C19   C     C_R   0.464188 0.396460 0.925946 0.063474
C20   C     C_3   0.359645 0.324844 0.903438 -0.048941
C21   C     C_3   0.358143 0.325624 0.058924 0.325859
C22   C     C_R   0.506728 0.740098 0.500194 0.860647
C23   C     C_R   0.702644 0.506608 0.526120 0.864296
C24   C     C_R   0.815715 0.535861 0.539952 -0.047630
C25   C     C_R   0.190249 0.554080 0.456957 -0.107722
C26   C     C_R   0.026487 0.590915 0.311792 0.164661
C27   C     C_R   0.135621 0.572897 0.328074 -0.227013
C28   C     C_R   0.141465 0.579386 0.571237 -0.286174
H1    H     H_    0.818918 0.537750 0.324846 0.159501
H2    H     H_    0.501034 0.882272 0.830209 0.199761
H3    H     H_    0.382405 0.100455 0.692793 0.204396
H4    H     H_    0.502120 0.106128 0.826786 0.206936
H5    H     H_    0.579175 0.677633 0.134404 0.140127
H6    H     H_    0.580460 0.676763 0.884020 0.140118
H7    H     H_    0.369042 0.233026 0.859450 0.157176
H8    H     H_    0.835354 0.545075 0.759626 0.161026
H9    H     H_    0.026814 0.586155 0.777224 0.137525
H10   H     H_    0.177550 0.571474 0.240073 0.182740
H11   H     H_    0.186659 0.582309 0.670468 0.169950
H12   H     H_    0.572345 0.122264 0.299993 0.185897
H13   H     H_    0.566430 0.891658 0.295536 0.162685
H14   H     H_    0.383032 0.876890 0.696775 0.208163
N1    N     N_R   0.499290 0.499140 0.142710 -0.112042
N2    N     N_R   0.499290 0.499180 0.857070 -0.090144
O1    O     O_R   0.500010 0.316790 0.614690 -0.603560
O2    O     O_R   0.500000 0.316760 0.385350 -0.623232
O3    O     O_R   0.346360 0.499990 0.595720 -0.590168
O4    O     O_R   0.346350 0.499960 0.366370 -0.611323
O5    O     O_R   0.500000 0.683240 0.614650 -0.626845
O6    O     O_R   0.499990 0.683210 0.385310 -0.629688
O7    O     O_R   0.653650 0.500040 0.633630 -0.621729
O8    O     O_R   0.653640 0.500010 0.404280 -0.620840
Zn1   Zn    Zn3+2 0.500010 0.500020 0.653130 0.950997
Zn2   Zn    Zn3+2 0.499990 0.499980 0.346870 0.939762
N3    N     N_2   0.276369 0.393676 0.825383 -0.250136
H15   H     H_    0.257910 0.479461 0.861267 0.218763
C29   C     C_3   0.188684 0.316276 0.761044 -0.763650
H16   H     H_    0.117071 0.372588 0.737529 0.233558
H17   H     H_    0.168275 0.236791 0.828127 0.235889
H18   H     H_    0.210754 0.277790 0.665379 0.242911
N4    N     N_2   0.275854 0.400301 0.105186 -0.275782
H19   H     H_    0.281270 0.496162 0.088466 0.204395
C30   C     C_3   0.168626 0.345463 0.094001 -0.791232
H20   H     H_    0.116479 0.397205 0.016125 0.227894
H21   H     H_    0.137029 0.351665 0.192783 0.242385
H22   H     H_    0.165701 0.244464 0.066711 0.258351
N5    N     N_2   0.361923 0.202509 0.127056 -0.286681
H23   H     H_    0.364062 0.205008 0.230896 0.267054
C31   C     C_3   0.416577 0.099077 0.077064 -0.895291
H24   H     H_    0.419936 0.020524 0.151962 0.256350
H25   H     H_    0.498735 0.129144 0.060306 0.235030
H26   H     H_    0.371009 0.061035 0.983539 0.259715
C32   C     C_3   0.971274 0.613041 0.169082 -0.438691
C33   C     C_3   0.019835 0.726856 0.099587 -0.870268
H27   H     H_    0.020682 0.811461 0.163971 0.269415
H28   H     H_    0.101917 0.709173 0.078624 0.248408
H29   H     H_    0.971561 0.745809 0.001080 0.246870
H30   H     H_    0.977165 0.527956 0.107356 0.204133
H31   H     H_    0.886100 0.631997 0.167698 0.206200

loop_
_geom_bond_atom_site_label_1
_geom_bond_atom_site_label_2
_ccdc_geom_bond_type
N3    H15   S    
C30   H21   S    
C16   C21   S    
C1    C8    S    
C32   C33   S    
C19   C20   S    
C12   O4    A    
C29   H16   S    
C7    C8    A    
C25   C28   A    
O4    Zn2   S    
C26   C27   A    
O6    Zn2   S    
C33   H28   S    
C31   H24   S    
C12   O3    A    
C5    C6    A    
C4    C24   A    
C1    O2    A    
C29   H17   S    
C27   H10   S    
C5    H8    S    
C26   C32   S    
C31   H25   S    
N4    C30   S    
C20   H7    S    
N2    Zn1   S    
C8    C9    A    
C33   H29   S    
C32   H30   S    
C9    C10   A    
C21   N4    S    
C4    H1    S    
O3    Zn1   S    
C7    C15   S    
C30   H22   S    
O1    Zn1   S    
C13   C14   S    
C21   N5    S    
C10   H13   S    
C2    C6    A    
C17   H5    S    
C14   H2    S    
C20   N3    S    
O8    Zn2   S    
C33   H27   S    
N5    H23   S    
C22   O6    A    
C15   H4    S    
C29   H18   S    
C28   H11   S    
C9    H12   S    
N5    C31   S    
C31   H26   S    
C17   N1    A    
C18   N2    A    
N1    Zn2   S    
C23   O7    A    
C23   C24   S    
O2    Zn2   S    
C17   C18   A    
C32   H31   S    
C6    H9    S    
C18   H6    S    
C16   N1    A    
C22   O5    A    
N3    C29   S    
C3    C4    A    
C19   N2    A    
C3    C26   A    
C15   H3    S    
C25   C27   A    
C11   C22   S    
C14   H14   S    
C12   C25   S    
C2    C3    A    
C11   C13   A    
C1    O1    A    
C23   O8    A    
C5    C24   A    
C16   C19   A    
O5    Zn1   S    
N4    H19   S    
C10   C11   A    
C30   H20   S    
C7    C13   A    
C20   C21   S    
C14   C15   S    
C2    C28   A    
O7    Zn1   S    
