data_mof_unit_49061.cif
_audit_creation_date              2012-12-11T18:09:02-0500
_audit_creation_method            fapswitch 2.2
_symmetry_space_group_name_H-M    P1
_symmetry_Int_Tables_number       1
_space_group_crystal_system       triclinic
_cell_length_a                    8.363606
_cell_length_b                    12.841723
_cell_length_c                    18.901372
_cell_angle_alpha                 99.647862
_cell_angle_beta                  91.512773
_cell_angle_gamma                 97.949754
_cell_volume                      1979.56316059

loop_
_atom_site_label
_atom_site_type_symbol
_atom_type_description
_atom_site_fract_x
_atom_site_fract_y
_atom_site_fract_z
_atom_type_partial_charge
Ba1   Ba    Ba6+2 0.853180 0.547790 0.465300 1.682890
Ba2   Ba    Ba6+2 0.336650 0.452300 0.534710 1.696190
Br1   Br    Br    0.875097 0.067117 0.351317 -0.643569
Br2   Br    Br    0.170467 0.341198 0.755397 -0.595751
Br3   Br    Br    0.914378 0.957764 0.628254 -0.626233
C1    C     C_3   0.655974 0.870964 0.214871 -0.377776
C2    C     C_R   0.020635 0.549116 0.727799 0.112314
C3    C     C_R   0.853142 0.426386 0.816021 -0.104706
C4    C     C_3   0.157264 0.793449 0.272513 0.350068
C5    C     C_R   0.791609 0.426482 0.746477 -0.013514
C6    C     C_R   0.332269 0.596428 0.195045 -0.175433
C7    C     C_R   0.402491 0.577248 0.258535 0.004007
C8    C     C_R   0.124926 0.448120 0.199675 -0.151441
C9    C     C_R   0.168629 0.456330 0.273634 0.041101
C10   C     C_R   0.978096 0.507812 0.849334 0.040748
C11   C     C_R   0.883970 0.478755 0.700587 -0.204360
C12   C     C_3   0.673652 0.802200 0.272031 0.348347
C13   C     C_R   0.201126 0.524055 0.158641 0.010354
C14   C     C_R   0.313550 0.516121 0.300757 -0.221716
C15   C     C_R   0.757049 0.462326 0.965916 -0.080841
C16   C     C_3   0.122045 0.825544 0.200409 -0.351293
C17   C     C_R   0.654353 0.421201 0.014056 -0.083128
C18   C     C_R   0.703942 0.437567 0.085591 -0.073857
C19   C     C_R   0.859233 0.488777 0.107032 -0.064118
C20   C     C_R   0.978753 0.502100 0.056739 0.012902
C21   C     C_R   0.924955 0.493107 0.982833 0.026064
C22   C     C_R   0.145619 0.527960 0.080037 -0.016734
C23   C     C_3   0.453693 0.279907 0.317064 0.305033
C24   C     C_R   0.256542 0.555141 0.026725 0.032237
C25   C     C_R   0.202806 0.547008 0.952606 0.030718
C26   C     C_R   0.035750 0.516478 0.929040 -0.010499
C27   C     C_R   0.424065 0.588492 0.043903 -0.084822
C28   C     C_3   0.235013 0.780005 0.611334 0.314781
C29   C     C_R   0.526716 0.631009 0.996265 -0.078714
C30   C     C_R   0.478000 0.615618 0.924800 -0.081860
C31   C     C_R   0.323152 0.565172 0.902901 -0.059870
C32   C     C_R   0.766985 0.181546 0.522318 -0.251726
C33   C     C_R   0.442145 0.808897 0.467361 -0.294613
C34   C     C_3   0.391931 0.242252 0.239202 -0.394218
C35   C     C_R   0.408747 0.983509 0.444908 -0.079377
C36   C     C_R   0.348098 0.875596 0.440481 -0.042840
C37   C     C_R   0.586320 0.849900 0.507946 0.106005
C38   C     C_R   0.647917 0.962424 0.517489 -0.049820
C39   C     C_R   0.558815 0.028233 0.481732 -0.068908
C40   C     C_3   0.299976 0.899082 0.626719 -0.394913
C41   C     C_R   0.619371 0.138289 0.485684 0.039556
C42   C     C_R   0.855381 0.120343 0.557791 0.014948
C43   C     C_R   0.793346 0.013789 0.559563 0.213818
C44   C     C_3   0.873742 0.200453 0.317295 0.567807
C45   C     C_3   0.065292 0.197766 0.733934 0.596649
C46   C     C_3   0.821406 0.177675 0.237632 -0.371370
C47   C     C_3   0.646424 0.729180 0.694180 0.348903
C48   C     C_3   0.539572 0.769710 0.754563 -0.335945
C49   C     C_3   0.808309 0.723523 0.728245 -0.319764
C50   C     C_3   0.011944 0.037791 0.800882 -0.431306
C51   C     C_3   0.096079 0.151170 0.802245 -0.180464
C52   C     C_3   0.552422 0.182664 0.707242 0.395239
C53   C     C_3   0.565043 0.094752 0.750985 -0.410552
C54   C     C_R   0.050516 0.576562 0.803158 -0.135279
H1    H     H_    0.765144 0.844388 0.314249 0.142395
H2    H     H_    0.598016 0.941000 0.237725 0.113113
H3    H     H_    0.607941 0.834688 0.794929 0.086640
H4    H     H_    0.489658 0.703627 0.782177 0.095708
H5    H     H_    0.439538 0.804291 0.733304 0.146294
H6    H     H_    0.556071 0.792852 0.298117 -0.074078
H7    H     H_    0.578695 0.824539 0.168410 0.101333
H8    H     H_    0.357552 0.317107 0.346733 0.045693
H9    H     H_    0.562705 0.340461 0.318709 0.057501
H10   H     H_    0.275982 0.187617 0.236723 0.144766
H11   H     H_    0.372579 0.311677 0.213892 0.054720
H12   H     H_    0.432060 0.911455 0.638382 0.080521
H13   H     H_    0.480767 0.199753 0.208004 0.112074
H14   H     H_    0.775963 0.899681 0.196083 0.134001
H15   H     H_    0.195438 0.786041 0.158792 0.059669
H16   H     H_    0.933411 0.195158 0.723747 -0.064801
H17   H     H_    0.227939 0.153415 0.812623 0.148821
H18   H     H_    0.051457 0.202614 0.848727 0.089562
H19   H     H_    0.673580 0.203446 0.686246 -0.121636
H20   H     H_    0.465068 0.151804 0.660674 0.073224
H21   H     H_    0.642628 0.127053 0.800531 0.114391
H22   H     H_    0.619959 0.029521 0.718972 0.118991
H23   H     H_    0.274605 0.936944 0.579948 0.126652
H24   H     H_    0.110892 0.707195 0.268906 0.039758
H25   H     H_    0.443545 0.061867 0.766114 0.115122
H26   H     H_    0.136805 0.646464 0.824026 0.040452
H27   H     H_    0.800036 0.363351 0.843126 0.067176
H28   H     H_    0.385424 0.665518 0.174051 0.059116
H29   H     H_    0.028055 0.386329 0.176296 0.055285
H30   H     H_    0.843058 0.470289 0.644833 0.048912
H31   H     H_    0.362001 0.510930 0.353523 0.054669
H32   H     H_    0.698035 0.473901 0.917429 0.080465
H33   H     H_    0.529550 0.389779 0.997638 0.087344
H34   H     H_    0.243709 0.940301 0.673682 0.181782
H35   H     H_    0.617322 0.417815 0.124402 0.098926
H36   H     H_    0.290164 0.808208 0.283518 -0.057873
H37   H     H_    0.885401 0.518306 0.163169 0.132243
H38   H     H_    0.485336 0.575691 0.091184 0.082414
H39   H     H_    0.651487 0.662236 0.012913 0.079940
H40   H     H_    0.564740 0.634608 0.885729 0.076118
H41   H     H_    0.302577 0.539251 0.846469 0.159110
H42   H     H_    0.334579 0.032025 0.420942 0.135175
H43   H     H_    0.816427 0.263835 0.521648 0.063193
H44   H     H_    0.394450 0.725069 0.462244 0.052197
H45   H     H_    0.789371 0.244417 0.350126 0.022126
H46   H     H_    0.992706 0.800371 0.183472 0.136803
H47   H     H_    0.152090 0.913405 0.204374 0.133173
H48   H     H_    0.332112 0.735544 0.589120 -0.011045
H49   H     H_    0.132670 0.765877 0.570943 0.108778
H50   H     H_    0.867606 0.803274 0.755932 0.140370
H51   H     H_    0.793611 0.668466 0.767679 0.020879
H52   H     H_    0.881930 0.696324 0.683745 0.093292
H53   H     H_    0.072739 0.980088 0.764926 0.182994
H54   H     H_    0.020068 0.017746 0.855651 0.109940
H55   H     H_    0.882393 0.030075 0.783957 0.157755
H56   H     H_    0.804569 0.252834 0.218625 0.078368
H57   H     H_    0.705744 0.122646 0.228710 0.105166
H58   H     H_    0.914203 0.139794 0.205697 0.116867
H59   H     H_    0.592972 0.648950 0.665778 0.083155
O1    O     O_2   0.875110 0.423180 0.326290 -0.487699
O2    O     O_2   0.177285 0.126683 0.539237 -0.432870
O3    O     O_3   0.138774 0.146008 0.674556 -0.565463
O4    O     O_3   0.123410 0.433040 0.414950 -0.464013
O5    O     O_3   0.577950 0.634370 0.536140 -0.513610
O6    O     O_2   0.341900 0.231310 0.465740 -0.425727
O7    O     O_3   0.492610 0.192487 0.346325 -0.636732
O8    O     O_2   0.486605 0.475597 0.759372 -0.468761
O9    O     O_3   0.497738 0.269396 0.751047 -0.553269
O10   O     O_3   0.661010 0.625070 0.369680 -0.469842
O11   O     O_2   0.690947 0.500259 0.249365 -0.507694
O12   O     O_3   0.670482 0.804650 0.648794 -0.604778
O13   O     O_3   0.032213 0.253169 0.327327 -0.618417
O14   O     O_3   0.724647 0.705496 0.240550 -0.603518
O15   O     O_2   0.847800 0.768730 0.534310 -0.424422
O16   O     O_3   0.082250 0.684470 0.405440 -0.499110
O17   O     O_2   0.021723 0.878751 0.460542 -0.418675
O18   O     O_3   0.080218 0.854348 0.326184 -0.554463
O19   O     O_2   0.314600 0.576860 0.673750 -0.464268
O20   O     O_3   0.066300 0.567050 0.585060 -0.499964
O21   O     O_3   0.528700 0.375020 0.630330 -0.462431
O22   O     O_3   0.182429 0.747433 0.675104 -0.648459
O23   O     O_3   0.611760 0.365720 0.463870 -0.496687
O24   O     O_3   0.107460 0.315620 0.594570 -0.444747
P1    P     P_3+3 0.042930 0.392230 0.337410 0.974237
P2    P     P_3+3 0.672230 0.754900 0.555730 1.014902
P3    P     P_3+3 0.135879 0.822698 0.408938 0.990588
P4    P     P_3+3 0.146790 0.607860 0.662600 0.974698
P5    P     P_3+3 0.065034 0.178655 0.593520 1.069056
P6    P     P_3+3 0.619752 0.602566 0.278031 0.940284
P7    P     P_3+3 0.519582 0.230373 0.439788 0.960182
P8    P     P_3+3 0.577597 0.386858 0.721615 0.996623

loop_
_geom_bond_atom_site_label_1
_geom_bond_atom_site_label_2
_ccdc_geom_bond_type
O6    P7    D    
C6    C13   A    
C51   H17   S    
C50   H53   S    
C22   C24   A    
C28   C40   S    
C52   H20   S    
C40   H23   S    
C28   H48   S    
Ba1   O10   S    
C50   C51   S    
C40   H34   S    
C44   H45   S    
Ba1   O5    S    
Br1   C44   S    
O23   P7    S    
Ba2   O5    S    
C47   C48   S    
C44   O13   S    
C33   H44   S    
C1    H7    S    
C8    C13   A    
Ba2   O21   S    
C1    H2    S    
C23   H9    S    
C29   C30   A    
C24   C27   A    
C19   H37   S    
O9    P8    S    
C25   C26   A    
C48   H5    S    
Ba1   O15   S    
C40   H12   S    
C28   O22   S    
O1    P1    D    
C27   H38   S    
C49   H51   S    
Ba1   Ba2   S    
Ba1   O1    S    
O16   P3    S    
Ba1   O4    S    
C48   H4    S    
O11   P6    D    
C7    C14   A    
C29   H39   S    
C35   H42   S    
C30   C31   A    
C39   C41   A    
O17   P3    D    
O5    P2    S    
C34   H13   S    
O3    P5    S    
C32   C42   A    
O12   P2    S    
C38   C43   A    
C4    H36   S    
O18   P3    S    
C53   H21   S    
C2    P4    S    
C21   C26   A    
C8    C9    A    
C12   O14   S    
C45   O3    S    
O4    P1    S    
C30   H40   S    
C52   H19   S    
C2    C54   A    
C15   H32   S    
C47   C49   S    
Ba2   O4    S    
Br3   C43   S    
C42   P5    S    
O14   P6    S    
O19   P4    D    
C23   H8    S    
C19   C20   A    
C33   C36   A    
C53   H22   S    
O22   P4    S    
O10   P6    S    
C50   H54   S    
C23   C34   S    
C44   C46   S    
C20   C21   A    
C16   H15   S    
C46   H56   S    
C51   H18   S    
C49   H50   S    
Br2   C45   S    
Ba2   O20   S    
C38   C39   A    
C54   H26   S    
C24   C25   A    
Ba1   P1    S    
C53   H25   S    
C48   H3    S    
C42   C43   A    
C35   C39   A    
C4    O18   S    
C18   C19   A    
C34   H10   S    
C31   H41   S    
O7    P7    S    
C4    H24   S    
C28   H49   S    
C35   C36   A    
C15   C17   A    
C3    C10   A    
C37   P2    S    
Ba2   O24   S    
Ba2   P4    S    
C37   C38   A    
Ba1   O16   S    
O13   P1    S    
C23   O7    S    
C1    H14   S    
C1    C12   S    
C9    P1    S    
C2    C11   A    
O15   P2    D    
Ba2   O19   S    
C10   C54   A    
C9    C14   A    
C13   C22   S    
C16   H47   S    
C52   O9    S    
C6    H28   S    
C6    C7    A    
C10   C26   S    
C50   H55   S    
Ba2   O6    S    
C20   C22   A    
O21   P8    S    
C12   H6    S    
C46   H57   S    
C18   H35   S    
C25   C31   A    
C47   O12   S    
C7    P6    S    
Ba1   P2    S    
C5    C11   A    
C45   H16   S    
C5    P8    S    
O8    P8    D    
C4    C16   S    
C52   C53   S    
C32   H43   S    
C15   C21   A    
O20   P4    S    
O24   P5    S    
C8    H29   S    
C46   H58   S    
C34   H11   S    
C49   H52   S    
C3    H27   S    
C45   C51   S    
Ba1   O23   S    
C12   H1    S    
C33   C37   A    
C11   H30   S    
C41   P7    S    
C36   P3    S    
O2    P5    D    
C3    C5    A    
C14   H31   S    
Ba2   O23   S    
C17   H33   S    
C17   C18   A    
C32   C41   A    
C16   H46   S    
Ba1   O20   S    
C27   C29   A    
C47   H59   S    
