data_mof_unit_16249.cif
_audit_creation_date              2013-03-05T16:49:18-0500
_audit_creation_method            fapswitch 2.2
_symmetry_space_group_name_H-M    P1
_symmetry_Int_Tables_number       1
_space_group_crystal_system       triclinic
_cell_length_a                    8.095874
_cell_length_b                    8.935987
_cell_length_c                    16.760711
_cell_angle_alpha                 89.519282
_cell_angle_beta                  94.577104
_cell_angle_gamma                 90.029157
_cell_volume                      1208.63779285

loop_
_atom_site_label
_atom_site_type_symbol
_atom_site_description
_atom_site_fract_x
_atom_site_fract_y
_atom_site_fract_z
_atom_type_partial_charge
O1    O     O_R   0.636850 0.285340 0.500000 -0.598588
O2    O     O_R   0.363150 0.714660 0.500000 -0.612106
O3    O     O_R   0.363100 0.285350 0.500000 -0.613587
O4    O     O_R   0.636900 0.714650 0.500000 -0.614449
C1    C     C_R   0.499950 0.217942 0.500000 0.954744
C2    C     C_R   0.500044 0.782058 0.499968 0.925203
O5    O     O_R   0.652140 0.498630 0.616140 -0.616722
O6    O     O_R   0.347860 0.501370 0.383860 -0.620313
O7    O     O_R   0.378390 0.498650 0.616130 -0.571472
O8    O     O_R   0.621610 0.501350 0.383870 -0.587252
C3    C     C_R   0.521334 0.503954 0.654126 0.913873
C4    C     C_R   0.478566 0.499448 0.345990 0.950839
Zn1   Zn    Zn3+2 0.682780 0.499990 0.500010 1.073993
Zn2   Zn    Zn3+2 0.317220 0.500010 0.499990 1.074581
N1    N     N_1   0.073640 0.500030 0.499990 0.010961
N2    N     N_1   0.926360 0.499970 0.500010 0.008290
C5    C     C_R   0.536812 0.535338 0.739757 -0.232098
C6    C     C_R   0.465769 0.512558 0.259365 -0.206412
C7    C     C_R   0.408615 0.607347 0.777016 0.296781
C8    C     C_R   0.591534 0.456448 0.214575 0.284105
C9    C     C_R   0.434516 0.647054 0.856710 -0.202148
C10   C     C_R   0.590802 0.496511 0.134423 -0.208851
C11   C     C_R   0.583471 0.610003 0.901684 0.163423
C12   C     C_R   0.464741 0.588209 0.097602 0.178375
C13   C     C_R   0.715743 0.547427 0.863611 0.300804
C14   C     C_R   0.333778 0.637026 0.141369 0.311798
C15   C     C_R   0.690182 0.509711 0.782850 -0.264420
C16   C     C_R   0.336151 0.598446 0.222323 -0.284564
N3    N     N_2   0.593910 0.611267 0.986165 -0.089960
N4    N     N_2   0.456148 0.613406 0.014333 -0.096683
C17   C     C_1   0.499947 0.065173 0.499970 -0.128368
C18   C     C_1   0.500043 0.934824 0.499964 -0.134002
H1    H     H_    0.685563 0.450325 0.099684 0.229042
H2    H     H_    0.333446 0.699460 0.884715 0.237957
H3    H     H_    0.790559 0.459524 0.753386 0.243892
H4    H     H_    0.240462 0.641536 0.257561 0.221177
N5    N     N_R   0.716871 0.355314 0.248624 0.230241
O9    O     O_R   0.864814 0.357240 0.223406 -0.329263
O10   O     O_R   0.677840 0.248085 0.296686 -0.371136
N6    N     N_R   0.251204 0.640956 0.735553 0.227553
O11   O     O_R   0.144743 0.533705 0.720598 -0.338533
O12   O     O_R   0.200377 0.779026 0.730375 -0.358014
N7    N     N_R   0.873309 0.515780 0.906888 0.230714
O13   O     O_R   0.919751 0.586971 0.972286 -0.295755
O14   O     O_R   0.976977 0.423167 0.878075 -0.323232
N8    N     N_R   0.199976 0.727410 0.105174 0.251382
O15   O     O_R   0.219148 0.808523 0.041729 -0.308670
O16   O     O_R   0.060744 0.736816 0.138671 -0.313131

loop_
_geom_bond_atom_site_label_1
_geom_bond_atom_site_label_2
_geom_bond_distance
_ccdc_geom_bond_type
C2    C18   1.365111 S    
O7    Zn2   1.969861 S    
N3    N4    1.245537 D    
C13   C15   1.396969 A    
N7    O14   1.301774 A    
C14   C16   1.395786 A    
C17   C18   1.164801 T    
O6    C4    1.276834 A    
N7    O13   1.301246 A    
C15   H3    1.083291 S    
C13   N7    1.443123 S    
N6    O12   1.300823 A    
N5    O10   1.301642 A    
O5    C3    1.279550 A    
C8    N5    1.439414 S    
O7    C3    1.276669 A    
O2    C2    1.261116 A    
O3    Zn2   1.954012 S    
O8    C4    1.275661 A    
O1    C1    1.261121 A    
C11   N3    1.411870 S    
N6    O11   1.301122 A    
C7    C9    1.384643 A    
N5    O9    1.301599 A    
C12   C14   1.408032 A    
C6    C8    1.407296 A    
C11   C13   1.407943 A    
C9    C11   1.408268 A    
O2    Zn2   1.953634 S    
C10   C12   1.409163 A    
C1    C17   1.365147 S    
C12   N4    1.408046 S    
O1    Zn1   1.953632 S    
C7    N6    1.432735 S    
C14   N8    1.442766 S    
N1    N2    1.192387 T    
C5    C15   1.403649 A    
N8    O16   1.301819 A    
O5    Zn1   1.981641 S    
C6    C16   1.401619 A    
C16   H4    1.083681 S    
O4    C2    1.261354 A    
Zn1   N2    1.971993 S    
C4    C6    1.451069 S    
O4    Zn1   1.954012 S    
C10   H1    1.083308 S    
Zn2   N1    1.971993 S    
C3    C5    1.460234 S    
O6    Zn2   1.981641 S    
C9    H2    1.083761 S    
C5    C7    1.411402 A    
N8    O15   1.301363 A    
C8    C10   1.386940 A    
O3    C1    1.261349 A    
O8    Zn1   1.969861 S    
