data_mof_unit_5435.cif
_audit_creation_date              2012-12-10T18:02:13-0500
_audit_creation_method            fapswitch 2.2
_symmetry_space_group_name_H-M    P1
_symmetry_Int_Tables_number       1
_space_group_crystal_system       triclinic
_cell_length_a                    10.998429
_cell_length_b                    9.511548
_cell_length_c                    23.527534
_cell_angle_alpha                 89.794157
_cell_angle_beta                  90.241652
_cell_angle_gamma                 89.870983
_cell_volume                      2461.22029628

loop_
_atom_site_label
_atom_site_type_symbol
_atom_type_description
_atom_site_fract_x
_atom_site_fract_y
_atom_site_fract_z
_atom_type_partial_charge
C1    C     C_R   0.261877 0.500161 0.499156 0.838441
C2    C     C_R   0.556614 0.603553 0.700871 -0.200793
C3    C     C_R   0.431726 0.395843 0.240597 -0.061342
C4    C     C_R   0.559644 0.604322 0.760020 -0.063224
C5    C     C_R   0.493920 0.497735 0.209220 0.309299
C6    C     C_R   0.498219 0.500683 0.790761 0.310715
C7    C     C_R   0.062525 0.373234 0.489104 -0.053305
C8    C     C_R   0.935770 0.630312 0.498464 -0.076915
C9    C     C_R   0.935709 0.374915 0.484239 -0.075625
C10   C     C_R   0.062605 0.629599 0.498881 -0.063666
C11   C     C_R   0.871183 0.502042 0.492760 -0.165556
C12   C     C_R   0.737593 0.500330 0.497342 0.849254
C13   C     C_R   0.127424 0.500720 0.496616 -0.182893
C14   C     C_R   0.443402 0.074869 0.457586 -0.034814
C15   C     C_R   0.557614 0.925103 0.542139 0.015510
C16   C     C_R   0.557853 0.073906 0.542068 0.028570
C17   C     C_R   0.443868 0.926102 0.457472 -0.018106
C18   C     C_R   0.502354 0.500191 0.391008 0.847583
C19   C     C_R   0.496592 0.499712 0.608964 0.841926
C20   C     C_R   0.605252 0.477650 0.880441 0.564558
C21   C     C_R   0.386290 0.518817 0.119544 0.565311
C22   C     C_R   0.392593 0.528169 0.879795 0.561145
C23   C     C_R   0.561303 0.601200 0.237355 -0.119210
C24   C     C_R   0.598820 0.467595 0.120161 0.561028
C25   C     C_R   0.389179 0.524016 0.939246 -0.026780
C26   C     C_R   0.602155 0.471347 0.060718 -0.026921
C27   C     C_R   0.497484 0.500446 0.969940 -0.011124
C28   C     C_R   0.493869 0.495013 0.030032 -0.011041
C29   C     C_R   0.609054 0.482563 0.940598 -0.085843
C30   C     C_R   0.382352 0.513131 0.059389 -0.085938
C31   C     C_R   0.278899 0.539620 0.968120 -0.184864
C32   C     C_R   0.712408 0.455493 0.031852 -0.184665
C33   C     C_R   0.273128 0.530198 0.027342 -0.035362
C34   C     C_R   0.433179 0.396305 0.762004 -0.120474
C35   C     C_R   0.718234 0.465171 0.972649 -0.035058
C36   C     C_2   0.149785 0.529511 0.052466 0.942173
C37   C     C_2   0.841617 0.465822 0.947571 0.941716
C38   C     C_2   0.653750 0.704367 0.323441 0.888052
C39   C     C_2   0.346394 0.290336 0.675134 0.882560
C40   C     C_2   0.125572 0.236280 0.484279 0.915358
C41   C     C_2   0.873394 0.768816 0.502520 0.936719
C42   C     C_2   0.872637 0.242817 0.467952 0.906519
C43   C     C_2   0.124509 0.767450 0.497537 0.904772
C44   C     C_R   0.569728 0.602107 0.296769 -0.070878
C45   C     C_R   0.426887 0.395569 0.702509 -0.073396
C46   C     C_R   0.504445 0.500119 0.328474 -0.105977
C47   C     C_R   0.491781 0.499325 0.671456 -0.111277
C48   C     C_R   0.436696 0.397214 0.299737 -0.198943
Cu1   Cu    Cu3+1 0.500000 0.640660 0.500000 1.022345
Cu2   Cu    Cu3+1 0.500000 0.359340 0.500000 1.018730
H1    H     H_    0.195126 0.553670 0.944268 0.211641
H2    H     H_    0.604277 0.868790 0.575785 0.147602
H3    H     H_    0.604677 0.129432 0.575653 0.146380
H4    H     H_    0.399011 0.870543 0.423337 0.154225
H5    H     H_    0.983258 0.618594 0.054718 0.342339
H6    H     H_    0.007935 0.376251 0.945183 0.342120
H7    H     H_    0.726244 0.899007 0.321896 0.357583
H8    H     H_    0.277353 0.094009 0.676850 0.365748
H9    H     H_    0.215921 0.081453 0.525323 0.343595
H10   H     H_    0.772865 0.916833 0.462554 0.337456
H11   H     H_    0.766848 0.142973 0.410658 0.330198
H12   H     H_    0.796162 0.441278 0.055704 0.211666
H13   H     H_    0.186457 0.926094 0.448898 0.338703
H14   H     H_    0.610835 0.677956 0.212432 0.182226
H15   H     H_    0.384325 0.318133 0.786497 0.182611
H16   H     H_    0.386361 0.318377 0.323181 0.170449
H17   H     H_    0.606506 0.683709 0.677960 0.167249
H18   H     H_    0.379950 0.315118 0.219067 0.166780
H19   H     H_    0.609636 0.685699 0.782064 0.165059
H20   H     H_    0.397505 0.131104 0.423703 0.160566
N1    N     N_R   0.498965 0.503360 0.851775 -0.468651
N2    N     N_R   0.492636 0.493363 0.148210 -0.468653
N3    N     N_R   0.500000 0.852070 0.500000 -0.169350
N4    N     N_R   0.500000 0.147930 0.500000 -0.174628
O1    O     O_R   0.319640 0.618740 0.500000 -0.573291
O2    O     O_2   0.286738 0.555015 0.149382 -0.483084
O3    O     O_2   0.290052 0.555872 0.850012 -0.502327
O4    O     O_2   0.701321 0.439471 0.149916 -0.500609
O5    O     O_2   0.120068 0.435748 0.085256 -0.514698
O6    O     O_R   0.065074 0.631540 0.035733 -0.730703
O7    O     O_2   0.871632 0.559996 0.915035 -0.515604
O8    O     O_R   0.926044 0.363278 0.964094 -0.730893
O9    O     O_2   0.716117 0.669371 0.364240 -0.534242
O10   O     O_R   0.665526 0.839248 0.300285 -0.747887
O11   O     O_2   0.286177 0.322062 0.633189 -0.540406
O12   O     O_R   0.680360 0.381260 0.500000 -0.577504
O13   O     O_R   0.335548 0.156009 0.698926 -0.746366
O14   O     O_2   0.144964 0.186381 0.437384 -0.617959
O15   O     O_R   0.164433 0.167113 0.533623 -0.662713
O16   O     O_2   0.869402 0.830148 0.548059 -0.558570
O17   O     O_R   0.820036 0.827954 0.454015 -0.681322
O18   O     O_2   0.877551 0.140212 0.499319 -0.570521
O19   O     O_R   0.807280 0.237337 0.416894 -0.713575
O20   O     O_2   0.158264 0.822271 0.541771 -0.552474
O21   O     O_R   0.142205 0.833677 0.445192 -0.728078
O22   O     O_R   0.680360 0.618740 0.500000 -0.566505
O23   O     O_R   0.319640 0.381260 0.500000 -0.555439
O24   O     O_R   0.499960 0.618810 0.417880 -0.577410
O25   O     O_R   0.500040 0.381190 0.582120 -0.575078
O26   O     O_R   0.500040 0.618810 0.582120 -0.585217
O27   O     O_R   0.499960 0.381190 0.417880 -0.583611
O28   O     O_2   0.704931 0.442101 0.850566 -0.485123

loop_
_geom_bond_atom_site_label_1
_geom_bond_atom_site_label_2
_ccdc_geom_bond_type
C25   C31   A    
C26   C32   A    
C38   O9    D    
C27   C29   A    
C42   O19   S    
C3    H18   S    
C39   O13   S    
H8    O13   S    
C33   C36   S    
C21   O2    S    
C9    C42   S    
C16   N4    A    
C14   N4    A    
C35   C37   S    
C24   C26   A    
C5    N2    S    
Cu2   N4    S    
H11   O19   S    
C20   O28   S    
C15   C16   A    
H13   O21   S    
C3    C48   A    
C43   O20   D    
H9    O15   S    
C16   H3    S    
Cu1   O24   S    
C22   C25   A    
C43   O21   S    
C7    C40   S    
Cu1   O1    S    
C20   N1    A    
C40   O15   S    
C39   C45   S    
C41   O16   D    
C17   N3    A    
C14   H20   S    
C14   C17   A    
C37   O7    D    
C18   C46   S    
C34   H15   S    
C4    H19   S    
C44   C46   A    
C20   C29   A    
C45   C47   A    
C6    N1    S    
C46   C48   A    
C21   N2    A    
C1    O1    A    
C32   C35   A    
C8    C41   S    
C4    C6    A    
C2    H17   S    
C36   O6    S    
C1    O23   A    
C19   O25   A    
C10   C13   A    
C23   C44   A    
C6    C34   A    
C18   O27   A    
C2    C4    A    
C41   O17   S    
C38   C44   S    
C5    C23   A    
C11   C12   S    
C31   C33   A    
Cu2   O25   S    
H7    O10   S    
C34   C45   A    
C15   H2    S    
C9    C11   A    
C24   O4    S    
C23   H14   S    
C15   N3    A    
Cu1   N3    S    
C37   O8    S    
C1    C13   S    
C39   O11   D    
C22   N1    A    
C24   N2    A    
H10   O17   S    
C7    C9    A    
Cu2   O23   S    
C30   C33   A    
C38   O10   S    
C10   C43   S    
C22   O3    S    
C31   H1    S    
C3    C5    A    
C36   O5    D    
C19   O26   A    
H6    O8    S    
C2    C47   A    
C25   C27   A    
C21   C30   A    
C29   C35   A    
C26   C28   A    
C12   O12   A    
C40   O14   D    
C28   C30   A    
C32   H12   S    
Cu1   O26   S    
H5    O6    S    
C8    C11   A    
C42   O18   D    
Cu1   O22   S    
Cu2   O12   S    
C7    C13   A    
Cu2   O27   S    
C8    C10   A    
Cu1   Cu2   S    
C19   C47   S    
C27   C28   A    
C12   O22   A    
C18   O24   A    
C48   H16   S    
C17   H4    S    
