data_mof_unit_43190.cif
_audit_creation_date              2013-03-05T16:10:50-0500
_audit_creation_method            fapswitch 2.2
_symmetry_space_group_name_H-M    P1
_symmetry_Int_Tables_number       1
_space_group_crystal_system       triclinic
_cell_length_a                    10.576981
_cell_length_b                    9.965558
_cell_length_c                    11.485586
_cell_angle_alpha                 90.012378
_cell_angle_beta                  93.687863
_cell_angle_gamma                 90.016499
_cell_volume                      1208.13713182

loop_
_atom_site_label
_atom_site_type_symbol
_atom_site_description
_atom_site_fract_x
_atom_site_fract_y
_atom_site_fract_z
_atom_type_partial_charge
O1    O     O_R   0.316770 0.614620 0.499990 -0.600538
O2    O     O_R   0.683230 0.385380 0.500010 -0.600523
O3    O     O_R   0.683230 0.614620 0.500010 -0.600571
O4    O     O_R   0.316770 0.385380 0.499990 -0.600584
N1    N     N_R   0.500000 0.857200 0.500000 -0.106172
N2    N     N_R   0.500000 0.142800 0.500000 -0.106183
C1    C     C_R   0.260771 0.499981 0.513525 0.962416
C2    C     C_R   0.739193 0.500020 0.486375 0.962373
O5    O     O_R   0.500020 0.614670 0.334450 -0.602140
O6    O     O_R   0.499980 0.385330 0.665550 -0.602169
O7    O     O_R   0.499980 0.614670 0.665550 -0.601869
O8    O     O_R   0.500020 0.385330 0.334450 -0.601860
C3    C     C_R   0.500013 0.499989 0.282238 0.926054
C4    C     C_R   0.500000 0.500011 0.717763 0.926190
Zn1   Zn    Zn3+2 0.500000 0.653120 0.500000 1.011507
Zn2   Zn    Zn3+2 0.500000 0.346880 0.500000 1.011497
C5    C     C_1   0.501213 0.499977 0.161799 -0.117783
C6    C     C_1   0.498855 0.500024 0.838206 -0.118073
C7    C     C_1   0.500879 0.499991 0.059403 -0.037398
C8    C     C_1   0.499223 0.500011 0.940603 -0.037525
C9    C     C_R   0.060966 0.376773 0.526962 0.130540
C10   C     C_R   0.938939 0.623227 0.472569 0.130670
C11   C     C_R   0.938853 0.376920 0.471959 0.131122
C12   C     C_R   0.061047 0.623098 0.527574 0.130986
C13   C     C_R   0.873506 0.500081 0.466524 -0.276387
C14   C     C_R   0.126389 0.499929 0.533095 -0.276376
C15   C     C_R   0.558760 0.071840 0.590831 0.025529
C16   C     C_R   0.441289 0.928160 0.409142 0.025628
C17   C     C_R   0.441341 0.071750 0.409117 0.025598
C18   C     C_R   0.558699 0.928250 0.590862 0.025531
N3    N     N_R   0.109931 0.262960 0.594836 0.216667
O9    O     O_R   0.203023 0.280516 0.673204 -0.395623
O10   O     O_R   0.044380 0.153270 0.601839 -0.325734
N4    N     N_R   0.889948 0.737056 0.404713 0.216922
O11   O     O_R   0.796466 0.719646 0.326724 -0.395491
O12   O     O_R   0.955781 0.846484 0.397251 -0.325959
N5    N     N_R   0.889758 0.263456 0.403597 0.217434
O13   O     O_R   0.795851 0.281121 0.326114 -0.395569
O14   O     O_R   0.955865 0.154406 0.395056 -0.326712
N6    N     N_R   0.110094 0.736590 0.595928 0.217284
O15   O     O_R   0.203730 0.718877 0.673684 -0.395573
O16   O     O_R   0.044151 0.845801 0.604112 -0.326569
C19   C     C_R   0.628256 0.143136 0.688288 0.129777
C20   C     C_R   0.753382 0.184570 0.676979 -0.068709
C21   C     C_R   0.823101 0.243551 0.771187 -0.132848
C22   C     C_R   0.770233 0.255737 0.878933 -0.115677
C23   C     C_R   0.647265 0.210046 0.892336 -0.133771
C24   C     C_R   0.575573 0.155603 0.797148 -0.127899
H1    H     H_    0.796739 0.169595 0.595477 0.201827
H2    H     H_    0.918736 0.278137 0.761514 0.182988
H3    H     H_    0.824847 0.299665 0.952257 0.150235
H4    H     H_    0.607570 0.217880 0.976431 0.140627
H5    H     H_    0.479602 0.122486 0.808275 0.143314
C25   C     C_R   0.371958 0.856861 0.311592 0.129666
C26   C     C_R   0.246852 0.815281 0.322755 -0.068478
C27   C     C_R   0.177303 0.756259 0.228464 -0.132928
C28   C     C_R   0.230310 0.744209 0.120772 -0.115724
C29   C     C_R   0.353258 0.790045 0.107514 -0.133772
C30   C     C_R   0.424799 0.844481 0.202796 -0.127771
H6    H     H_    0.203384 0.830167 0.404208 0.201886
H7    H     H_    0.081691 0.721536 0.238031 0.182757
H8    H     H_    0.175825 0.700264 0.047380 0.150271
H9    H     H_    0.393063 0.782308 0.023463 0.140522
H10   H     H_    0.520774 0.877665 0.191788 0.143446
C31   C     C_R   0.372485 0.142959 0.311304 0.129557
C32   C     C_R   0.247442 0.184917 0.322036 -0.068307
C33   C     C_R   0.178378 0.243881 0.227475 -0.133155
C34   C     C_R   0.231795 0.255461 0.119936 -0.115630
C35   C     C_R   0.354684 0.209255 0.107114 -0.133678
C36   C     C_R   0.425766 0.154936 0.202679 -0.127642
H11   H     H_    0.203634 0.170341 0.403349 0.201915
H12   H     H_    0.082819 0.278913 0.236714 0.182492
H13   H     H_    0.177677 0.299342 0.046328 0.150405
H14   H     H_    0.394812 0.216627 0.023186 0.140115
H15   H     H_    0.521708 0.121473 0.192010 0.143818
C37   C     C_R   0.627689 0.857042 0.688597 0.129654
C38   C     C_R   0.574563 0.845033 0.797290 -0.127781
C39   C     C_R   0.645776 0.790693 0.892768 -0.133662
C40   C     C_R   0.768657 0.744545 0.879803 -0.115565
C41   C     C_R   0.821934 0.756198 0.772204 -0.133092
C42   C     C_R   0.752730 0.815152 0.677722 -0.068437
H16   H     H_    0.478641 0.878487 0.808077 0.143675
H17   H     H_    0.605766 0.783275 0.976746 0.140197
H18   H     H_    0.822881 0.700665 0.953347 0.150369
H19   H     H_    0.917494 0.721233 0.762856 0.182618
H20   H     H_    0.796426 0.829771 0.596356 0.201827

loop_
_geom_bond_atom_site_label_1
_geom_bond_atom_site_label_2
_geom_bond_distance
_ccdc_geom_bond_type
C20   H1    1.078914 S    
C26   C27   1.398907 A    
C4    C6    1.384190 S    
C7    C8    1.363478 S    
C9    C14   1.408301 A    
C28   H8    1.082437 S    
C21   C22   1.395665 A    
C9    N3    1.452986 S    
C30   H10   1.082662 S    
C41   H19   1.081053 S    
C1    C14   1.453225 S    
C38   H16   1.082678 S    
C16   C17   1.430951 A    
C12   C14   1.408262 A    
C33   H12   1.081062 S    
C40   H18   1.082429 S    
O7    C4    1.290559 A    
C31   C36   1.406726 A    
C27   C28   1.395663 A    
N4    O11   1.302315 A    
O5    C3    1.290525 A    
C5    C7    1.175847 T    
C25   C26   1.400224 A    
O7    Zn1   1.939758 S    
C39   H17   1.080460 S    
C23   C24   1.399104 A    
C34   C35   1.395758 A    
C10   C13   1.408244 A    
N3    O10   1.299560 A    
O1    Zn1   1.975518 S    
O2    Zn2   1.975517 S    
C19   C24   1.406714 A    
C6    C8    1.175844 T    
C42   H20   1.078787 S    
N2    C15   1.375454 A    
C38   C39   1.399078 A    
N6    O16   1.299474 A    
C32   C33   1.398909 A    
C26   H6    1.078860 S    
C15   C18   1.430952 A    
C2    C13   1.453212 S    
O4    C1    1.300564 A    
C25   C30   1.406728 A    
C24   H5    1.082665 S    
C10   N4    1.453093 S    
C33   C34   1.395678 A    
O8    Zn2   1.939759 S    
C37   C38   1.406716 A    
O3    C2    1.300547 A    
O6    C4    1.290525 A    
C16   C25   1.480412 S    
C39   C40   1.395763 A    
C29   C30   1.399099 A    
C11   N5    1.453110 S    
C22   H3    1.082444 S    
O4    Zn2   1.975735 S    
C19   C20   1.400256 A    
N5    O13   1.302303 A    
N1    C16   1.375466 A    
C18   C37   1.480345 S    
C32   H11   1.078758 S    
C35   H14   1.080462 S    
C17   C31   1.480364 S    
N6    O15   1.302297 A    
C9    C11   1.400830 A    
C10   C12   1.400793 A    
O3    Zn1   1.975734 S    
C20   C21   1.398892 A    
N1    C18   1.375495 A    
C29   H9    1.080471 S    
C22   C23   1.395749 A    
O1    C1    1.300651 A    
N3    O9    1.302352 A    
O2    C2    1.300655 A    
C41   C42   1.398899 A    
C37   C42   1.400199 A    
C23   H4    1.080489 S    
C3    C5    1.384188 S    
C34   H13   1.082437 S    
N5    O14   1.299524 A    
O6    Zn2   1.939595 S    
C28   C29   1.395740 A    
C21   H2    1.081022 S    
C12   N6    1.453118 S    
N4    O12   1.299495 A    
C11   C13   1.408199 A    
O5    Zn1   1.939596 S    
C35   C36   1.399060 A    
N1    Zn1   2.033771 S    
N2    Zn2   2.033771 S    
C40   C41   1.395679 A    
C15   C19   1.480399 S    
N2    C17   1.375503 A    
O8    C3    1.290561 A    
C31   C32   1.400184 A    
C36   H15   1.082675 S    
C27   H7    1.081027 S    
