data_mof_unit_34262.cif
_audit_creation_date              2012-12-10T18:06:44-0500
_audit_creation_method            fapswitch 2.2
_symmetry_space_group_name_H-M    P1
_symmetry_Int_Tables_number       1
_space_group_crystal_system       triclinic
_cell_length_a                    12.574485
_cell_length_b                    13.238589
_cell_length_c                    15.478644
_cell_angle_alpha                 83.552339
_cell_angle_beta                  99.327365
_cell_angle_gamma                 95.626233
_cell_volume                      2518.16593872

loop_
_atom_site_label
_atom_site_type_symbol
_atom_type_description
_atom_site_fract_x
_atom_site_fract_y
_atom_site_fract_z
_atom_type_partial_charge
C1    C     C_R   0.446526 0.308058 0.514690 0.875052
C2    C     C_R   0.463126 0.564444 0.098788 0.092694
C3    C     C_R   0.368018 0.612632 0.063020 0.173948
C4    C     C_R   0.541960 0.554460 0.045562 0.066976
C5    C     C_R   0.515780 0.574781 0.953322 0.083454
C6    C     C_R   0.421412 0.625439 0.918929 -0.224436
C7    C     C_R   0.349932 0.645766 0.973563 -0.238073
C8    C     C_R   0.645796 0.523823 0.081847 -0.228583
C9    C     C_R   0.714680 0.496834 0.028686 -0.227905
C10   C     C_R   0.681311 0.498229 0.938444 0.127670
C11   C     C_R   0.583059 0.539662 0.899496 0.094983
C12   C     C_R   0.435382 0.514881 0.335765 0.877688
C13   C     C_R   0.743332 0.454436 0.887660 -0.204559
C14   C     C_R   0.707294 0.446169 0.798245 0.191896
C15   C     C_R   0.550811 0.536369 0.809123 -0.317247
C16   C     C_R   0.733361 0.937713 0.512683 -0.206905
C17   C     C_R   0.597185 0.794939 0.513377 -0.103593
C18   C     C_R   0.307571 0.160050 0.519032 0.114908
C19   C     C_R   0.280576 0.056009 0.516384 -0.215863
C20   C     C_R   0.360648 0.989803 0.523371 -0.190887
C21   C     C_R   0.471124 0.024184 0.541739 0.100624
C22   C     C_R   0.500450 0.128731 0.548605 0.032278
C23   C     C_R   0.558268 0.690220 0.497469 0.869003
C24   C     C_R   0.553576 0.958597 0.543610 0.093429
C25   C     C_R   0.660027 0.999167 0.536209 0.136513
C26   C     C_R   0.690499 0.099110 0.554876 -0.244305
C27   C     C_R   0.612233 0.160476 0.568585 -0.189314
C28   C     C_R   0.532637 0.853551 0.551038 0.033014
C29   C     C_R   0.698982 0.837453 0.495006 -0.230324
C30   C     C_R   0.417995 0.197986 0.530932 -0.126916
C31   C     C_R   0.137421 0.630868 0.629979 -0.304147
C32   C     C_R   0.758308 0.380048 0.396470 0.014004
C33   C     C_R   0.854133 0.355747 0.373529 -0.263854
C34   C     C_R   0.565828 0.487419 0.664321 0.849327
C35   C     C_R   0.951525 0.402483 0.411842 -0.201837
C36   C     C_R   0.952857 0.474066 0.473524 0.020639
C37   C     C_R   0.853047 0.495816 0.494704 0.235418
C38   C     C_R   0.048709 0.522884 0.516434 -0.017222
C39   C     C_R   0.043187 0.588459 0.582159 0.196677
C40   C     C_R   0.943806 0.609712 0.600461 -0.296780
C41   C     C_R   0.849996 0.564855 0.556342 -0.239292
C42   C     C_R   0.150803 0.508484 0.497772 -0.046603
C43   C     C_R   0.235978 0.609208 0.611279 -0.002436
C44   C     C_R   0.402626 0.539595 0.241299 -0.064999
C45   C     C_R   0.609866 0.488966 0.758294 -0.073650
C46   C     C_R   0.292139 0.625813 0.117412 -0.203688
C47   C     C_R   0.310420 0.591070 0.206827 -0.196497
C48   C     C_R   0.474477 0.522423 0.186077 -0.255091
H1    H     H_    0.278430 0.684395 0.945137 0.145280
H2    H     H_    0.817767 0.422254 0.918942 0.137836
H3    H     H_    0.753027 0.792429 0.470609 0.174427
H4    H     H_    0.774297 0.129357 0.559776 0.151015
H5    H     H_    0.814527 0.968328 0.504156 0.141241
H6    H     H_    0.334068 0.913007 0.508658 0.151524
H7    H     H_    0.196524 0.027025 0.503245 0.142029
H8    H     H_    0.641016 0.233623 0.591548 0.178541
H9    H     H_    0.309995 0.637174 0.650093 0.119435
H10   H     H_    0.476314 0.566332 0.777372 0.162928
H11   H     H_    0.938474 0.660442 0.649671 0.160574
H12   H     H_    0.134828 0.678559 0.682008 0.142661
H13   H     H_    0.163355 0.462984 0.447452 0.132142
H14   H     H_    0.681983 0.344342 0.367022 0.141501
H15   H     H_    0.023793 0.379981 0.392835 0.136469
H16   H     H_    0.853013 0.300811 0.326527 0.149123
H17   H     H_    0.776295 0.583190 0.574080 0.220046
H18   H     H_    0.791936 0.469648 0.058925 0.145151
H19   H     H_    0.219797 0.664096 0.091103 0.136473
H20   H     H_    0.253848 0.605749 0.248863 0.158024
H21   H     H_    0.539492 0.475039 0.212467 0.155174
H22   H     H_    0.401578 0.652109 0.850308 0.141562
H23   H     H_    0.675820 0.520370 0.151462 0.152086
N1    N     N_R   0.239390 0.551900 0.544730 -0.101140
N2    N     N_R   0.759950 0.448600 0.455730 -0.131488
O1    O     O_R   0.374950 0.371210 0.521360 -0.575878
O2    O     O_R   0.542050 0.338030 0.492790 -0.631073
O3    O     O_R   0.368720 0.526070 0.390200 -0.615897
O4    O     O_R   0.535820 0.492890 0.361630 -0.615726
O5    O     O_R   0.457950 0.661970 0.507210 -0.622935
O6    O     O_R   0.625050 0.628790 0.478640 -0.631190
O7    O     O_R   0.464180 0.507110 0.638370 -0.621715
O8    O     O_R   0.631280 0.473930 0.609800 -0.636642
Zn1   Zn    Zn3+2 0.388420 0.522150 0.519080 0.939739
Zn2   Zn    Zn3+2 0.611580 0.477850 0.480920 0.917472
N3    N     N_3   0.464116 0.808574 0.613592 -0.466117
H24   H     H_    0.391657 0.776440 0.581541 0.201970
H25   H     H_    0.503991 0.752281 0.656001 0.186984
N4    N     N_3   0.222019 0.227030 0.504088 -0.435787
H26   H     H_    0.172182 0.206201 0.552152 0.184797
H27   H     H_    0.175933 0.216294 0.442732 0.167886
C49   C     C_3   0.771343 0.387171 0.749729 -0.875826
H28   H     H_    0.809651 0.439060 0.700445 0.260424
H29   H     H_    0.837189 0.349608 0.794728 0.226340
H30   H     H_    0.717696 0.326328 0.717306 0.235372

loop_
_geom_bond_atom_site_label_1
_geom_bond_atom_site_label_2
_ccdc_geom_bond_type
N4    H26   S    
C43   N1    A    
C28   N3    S    
C17   C29   A    
C35   C36   A    
C48   H21   S    
C4    C8    A    
C26   C27   A    
C17   C23   S    
C31   C43   A    
C1    O1    A    
C36   C37   A    
N3    H25   S    
C38   C42   A    
C3    C7    A    
C38   C39   A    
O4    Zn2   S    
C18   C19   A    
C16   H5    S    
C14   C49   S    
C34   O7    A    
C9    H18   S    
C11   C15   A    
C19   C20   A    
C8    C9    A    
C18   C30   A    
C34   O8    A    
C9    C10   A    
C44   C47   A    
C40   H11   S    
C21   C22   A    
O1    Zn1   S    
O8    Zn2   S    
C14   C45   A    
C1    O2    A    
C24   C25   A    
C7    H1    S    
C20   H6    S    
O3    Zn1   S    
C32   N2    A    
C27   H8    S    
C41   H17   S    
C2    C48   A    
C25   C26   A    
C31   H12   S    
C2    C4    A    
C26   H4    S    
O5    Zn1   S    
C49   H29   S    
C12   O4    A    
C42   N1    A    
C34   C45   S    
N3    H24   S    
C42   H13   S    
O7    Zn1   S    
C40   C41   A    
C22   C27   A    
C12   O3    A    
C15   H10   S    
C15   C45   A    
C47   H20   S    
C39   C40   A    
C49   H30   S    
C29   H3    S    
C19   H7    S    
C16   C25   A    
C6    H22   S    
C37   N2    A    
C46   C47   A    
C8    H23   S    
C22   C30   A    
C17   C28   A    
C24   C28   A    
C4    C5    A    
C10   C13   A    
C5    C11   A    
C6    C7    A    
C3    C46   A    
C18   N4    S    
C32   C33   A    
C36   C38   A    
C2    C3    A    
C16   C29   A    
C32   H14   S    
C46   H19   S    
C12   C44   S    
O6    Zn2   S    
O2    Zn2   S    
C49   H28   S    
C5    C6    A    
C33   H16   S    
C1    C30   S    
C33   C35   A    
C31   C39   A    
C23   O5    A    
C37   C41   A    
C10   C11   A    
C43   H9    S    
C13   H2    S    
C20   C21   A    
C21   C24   A    
N4    H27   S    
C35   H15   S    
C23   O6    A    
C13   C14   A    
N2    Zn2   S    
N1    Zn1   S    
C44   C48   A    
