data_mof_unit_50190.cif
_audit_creation_date              2012-12-11T14:36:08-0500
_audit_creation_method            fapswitch 2.2
_symmetry_space_group_name_H-M    P1
_symmetry_Int_Tables_number       1
_space_group_crystal_system       triclinic
_cell_length_a                    13.480531
_cell_length_b                    13.485417
_cell_length_c                    27.500523
_cell_angle_alpha                 90.655279
_cell_angle_beta                  89.910309
_cell_angle_gamma                 60.042238
_cell_volume                      4330.95756819

loop_
_atom_site_label
_atom_site_type_symbol
_atom_type_description
_atom_site_fract_x
_atom_site_fract_y
_atom_site_fract_z
_atom_type_partial_charge
C1    C     C_R   0.620078 0.101420 0.570245 0.549149
C2    C     C_1   0.630615 0.732628 0.616514 -0.001399
C3    C     C_3   0.649940 0.585619 0.769621 -0.092907
C4    C     C_3   0.679823 0.654875 0.805545 0.048744
C5    C     C_3   0.565164 0.698365 0.744270 -0.063487
C6    C     C_3   0.663130 0.684012 0.710868 0.038199
C7    C     C_3   0.595244 0.767226 0.780908 -0.081464
C8    C     C_3   0.693049 0.753320 0.746753 -0.111314
C9    C     C_1   0.688670 0.633963 0.857931 -0.032555
C10   C     C_1   0.648949 0.705528 0.658552 -0.044761
C11   C     C_3   0.113775 0.107201 0.739585 0.290473
C12   C     C_R   0.599473 0.779700 0.568821 0.545533
C13   C     C_3   0.209248 0.056259 0.777720 0.290066
C14   C     C_1   0.097409 0.201015 0.901969 0.013315
C15   C     C_1   0.229724 0.138094 0.617559 0.012147
C16   C     C_3   0.050702 0.219844 0.769559 -0.126568
C17   C     C_3   0.147756 0.168128 0.807305 0.023672
C18   C     C_3   0.117821 0.267383 0.741582 -0.152745
C19   C     C_3   0.179773 0.154546 0.712140 0.025337
C20   C     C_3   0.214285 0.215929 0.779983 -0.154428
C21   C     C_3   0.276835 0.102744 0.749859 -0.127233
C22   C     C_1   0.125232 0.181557 0.859763 -0.000261
C23   C     C_R   0.277582 0.121932 0.569652 0.543890
C24   C     C_1   0.202087 0.147002 0.659736 -0.000291
C25   C     C_3   0.675164 0.254366 0.738798 -0.103027
C26   C     C_3   0.577578 0.281256 0.775258 0.007853
C27   C     C_1   0.690946 0.207531 0.903182 0.003412
C28   C     C_1   0.634839 0.133578 0.618439 0.002622
C29   C     C_3   0.759877 0.157705 0.772562 -0.082046
C30   C     C_3   0.661117 0.186035 0.808540 0.027104
C31   C     C_3   0.734158 0.070858 0.746269 -0.074186
C32   C     C_3   0.649413 0.167630 0.713328 0.042357
C33   C     C_3   0.635464 0.099469 0.782848 -0.125222
C34   C     C_R   0.622011 0.098923 0.430913 0.549189
C35   C     C_3   0.550215 0.196030 0.749088 -0.114280
C36   C     C_1   0.673432 0.196527 0.861040 -0.039919
C37   C     C_1   0.642842 0.152541 0.660772 -0.031569
C38   C     C_R   0.735183 0.705046 0.360146 -0.144097
C39   C     C_R   0.747165 0.683798 0.310242 0.019130
C40   C     C_R   0.761254 0.661052 0.208778 0.015868
C41   C     C_R   0.849202 0.663382 0.234845 -0.116081
C42   C     C_R   0.841108 0.676881 0.285227 -0.125294
C43   C     C_R   0.771718 0.641248 0.158559 -0.129992
C44   C     C_R   0.684427 0.636109 0.133210 -0.022198
C45   C     C_R   0.603547 0.773055 0.431139 0.544242
C46   C     C_R   0.573479 0.672701 0.361302 -0.020910
C47   C     C_R   0.569516 0.674051 0.309973 -0.053921
C48   C     C_R   0.659897 0.676816 0.284620 0.030433
C49   C     C_R   0.477123 0.678392 0.283143 -0.010511
C50   C     C_R   0.478249 0.681224 0.232169 0.192519
C51   C     C_R   0.573080 0.674472 0.207513 0.009639
C52   C     C_R   0.664274 0.671486 0.233669 0.028306
C53   C     C_R   0.581622 0.664317 0.157037 -0.097793
C54   C     C_R   0.643339 0.707969 0.385155 -0.015964
C55   C     C_R   0.202327 0.065277 0.358994 -0.128342
C56   C     C_R   0.278616 0.120763 0.430810 0.545699
C57   C     C_R   0.176224 0.078218 0.309361 0.003783
C58   C     C_R   0.134326 0.100070 0.208728 0.000302
C59   C     C_R   0.130407 0.012088 0.234796 0.001791
C60   C     C_R   0.153190 0.000855 0.284635 -0.120049
C61   C     C_R   0.108946 0.116195 0.159098 -0.121293
C62   C     C_R   0.106676 0.208195 0.134856 -0.022222
C63   C     C_R   0.212938 0.239861 0.358291 -0.121611
C64   C     C_R   0.194434 0.249655 0.308747 -0.029857
C65   C     C_R   0.176348 0.168528 0.283842 0.047648
C66   C     C_R   0.198710 0.337096 0.283752 -0.093404
C67   C     C_3   0.747753 0.571596 0.735473 -0.113904
C68   C     C_R   0.184888 0.345386 0.233688 0.227219
C69   C     C_R   0.163247 0.266786 0.208270 0.023231
C70   C     C_R   0.158735 0.177892 0.233517 0.014492
C71   C     C_R   0.140183 0.278543 0.158740 -0.100553
C72   C     C_R   0.224006 0.144444 0.383161 0.002059
C73   C     C_R   0.565617 0.236282 0.362448 -0.129322
C74   C     C_R   0.569598 0.253954 0.312590 0.005980
C75   C     C_R   0.579017 0.285833 0.212140 0.013409
C76   C     C_R   0.500707 0.376334 0.242065 -0.090508
C77   C     C_R   0.495234 0.360263 0.291926 -0.122078
C78   C     C_3   0.777939 0.640419 0.772222 -0.104453
C79   C     C_R   0.592575 0.302995 0.163031 -0.114817
C80   C     C_R   0.675991 0.212172 0.134591 -0.007956
C81   C     C_R   0.722829 0.040747 0.352415 -0.124867
C82   C     C_R   0.724511 0.055444 0.302735 0.008376
C83   C     C_R   0.647813 0.162273 0.282573 0.062250
C84   C     C_R   0.799482 0.963503 0.272802 -0.121632
C85   C     C_R   0.799093 0.977243 0.222829 -0.116958
C86   C     C_R   0.727002 0.084354 0.202618 0.009350
C87   C     C_R   0.650344 0.177312 0.232363 0.060094
C88   C     C_R   0.736216 0.101696 0.153641 -0.123599
C89   C     C_1   0.697492 0.607988 0.900125 0.004450
C90   C     C_R   0.640937 0.128970 0.382238 -0.000620
C91   C     C_R   0.049513 0.236080 0.949833 0.545494
C92   C     C_R   0.711685 0.562939 0.948163 0.546137
C93   C     C_R   0.722144 0.225374 0.950960 0.544977
C94   C     C_R   0.048342 0.244844 0.088289 0.547099
C95   C     C_R   0.707526 0.575340 0.086451 0.543093
C96   C     C_R   0.717878 0.234003 0.089184 0.544288
Cr1   Cr    Cr6+3 0.417550 0.169090 0.500530 1.038584
Cr2   Cr    Cr6+3 0.669180 0.913420 0.499920 1.036525
Cr3   Cr    Cr6+3 0.413260 0.917540 0.499520 1.063936
Cr4   Cr    Cr6+3 0.909170 0.177380 0.020380 1.053348
Cr5   Cr    Cr6+3 0.912710 0.429210 0.018220 1.047111
Cr6   Cr    Cr6+3 0.657170 0.432570 0.019030 1.062376
H1    H     H_    0.865434 0.616788 0.784355 0.122826
H2    H     H_    0.256013 0.260588 0.797070 0.134472
H3    H     H_    0.079901 0.354529 0.726237 0.129132
H4    H     H_    0.957546 0.267701 0.777984 0.113850
H5    H     H_    0.691091 0.318157 0.720511 0.114917
H6    H     H_    0.463537 0.212647 0.738990 0.111467
H7    H     H_    0.619291 0.035903 0.801181 0.113274
H8    H     H_    0.799444 0.983691 0.733687 0.148021
H9    H     H_    0.846107 0.141712 0.782986 0.163862
H10   H     H_    0.850572 0.621895 0.140030 0.144155
H11   H     H_    0.810196 0.491236 0.716395 0.113374
H12   H     H_    0.793523 0.725546 0.378905 0.126465
H13   H     H_    0.923807 0.655472 0.216249 0.165991
H14   H     H_    0.908838 0.680869 0.304734 0.119989
H15   H     H_    0.513132 0.665140 0.136351 0.203936
H16   H     H_    0.083918 0.061735 0.139853 0.151732
H17   H     H_    0.210137 0.991908 0.378154 0.134766
H18   H     H_    0.710839 0.822508 0.736728 0.111590
H19   H     H_    0.151294 0.932616 0.304331 0.143914
H20   H     H_    0.139482 0.348121 0.139249 0.198322
H21   H     H_    0.214520 0.398327 0.303099 0.146496
H22   H     H_    0.228110 0.302702 0.376572 0.139602
H23   H     H_    0.544826 0.388246 0.148157 0.160420
H24   H     H_    0.501869 0.304226 0.385417 0.134737
H25   H     H_    0.444397 0.459544 0.226985 0.206233
H26   H     H_    0.434027 0.431202 0.314382 0.146105
H27   H     H_    0.798623 0.030804 0.131413 0.142986
H28   H     H_    0.533001 0.847622 0.800007 0.149496
H29   H     H_    0.857612 0.905158 0.200187 0.142804
H30   H     H_    0.858382 0.881136 0.288067 0.119301
H31   H     H_    0.780390 0.957088 0.367169 0.134390
H32   H     H_    0.477648 0.721871 0.732204 0.174455
H33   H     H_    0.632299 0.516369 0.779644 0.127556
H34   H     H_    0.369966 0.054156 0.741407 0.116531
O1    O     O_R   0.301710 0.195650 0.554160 -0.508034
O2    O     O_R   0.658900 0.818120 0.449760 -0.506689
O3    O     O_R   0.503220 0.801620 0.445520 -0.495650
O4    O     O_R   0.319370 0.022040 0.450020 -0.496174
O5    O     O_3   0.499990 0.000010 0.499990 -0.256425
O6    O     O_R   0.818720 0.150820 0.967160 -0.499831
O7    O     O_R   0.006410 0.181720 0.970200 -0.485889
O8    O     O_R   0.027890 0.334070 0.964920 -0.505326
O9    O     O_R   0.809600 0.521790 0.967960 -0.498263
O10   O     O_R   0.635520 0.542770 0.964420 -0.491033
O11   O     O_R   0.665950 0.325030 0.970100 -0.490648
O12   O     O_R   0.522390 0.158990 0.550460 -0.494601
O13   O     O_R   0.816620 0.158530 0.074540 -0.516653
O14   O     O_R   0.004460 0.188870 0.069750 -0.499138
O15   O     O_R   0.025800 0.341780 0.072300 -0.511769
O16   O     O_R   0.807650 0.528950 0.067500 -0.496880
O17   O     O_R   0.633420 0.550490 0.071810 -0.512780
O18   O     O_R   0.664000 0.332180 0.069640 -0.495821
O19   O     O_3   0.826350 0.346390 0.019210 -0.258639
O20   O     O_R   0.694390 0.003530 0.554040 -0.496812
O21   O     O_R   0.657700 0.819660 0.549320 -0.496814
O22   O     O_R   0.501930 0.803280 0.552920 -0.495040
O23   O     O_R   0.318170 0.023580 0.549580 -0.486123
O24   O     O_R   0.303010 0.193990 0.446760 -0.521441
O25   O     O_R   0.523600 0.157450 0.450900 -0.497949
O26   O     O_R   0.695690 0.001860 0.446640 -0.518508
C97   C     C_1   0.491294 0.396792 0.791438 0.181845
N1    N     N_1   0.423305 0.487969 0.804205 -0.255745
Cl1   Cl    Cl    0.360438 0.690531 0.199438 -0.612454
C98   C     C_1   0.375515 0.689691 0.306582 0.255675
N2    N     N_1   0.294003 0.698700 0.324927 -0.277910
C99   C     C_1   0.514039 0.628602 0.390084 0.228017
N3    N     N_1   0.467443 0.592896 0.413257 -0.284146
C100  C     C_1   0.101348 0.933323 0.211644 0.245639
N4    N     N_1   0.078074 0.870295 0.193060 -0.237080
Cl2   Cl    Cl    0.193349 0.457254 0.204883 -0.621998
Cl3   Cl    Cl    0.270200 0.916218 0.802072 -0.568550
Cl4   Cl    Cl    0.047050 0.035436 0.712094 -0.579370

loop_
_geom_bond_atom_site_label_1
_geom_bond_atom_site_label_2
_ccdc_geom_bond_type
C66   C68   A    
C40   C41   A    
Cr3   O23   S    
C11   C13   S    
C73   C74   A    
C71   H20   S    
C83   C87   A    
C97   N1    T    
C74   C83   A    
C43   C44   A    
C34   O25   A    
C2    C12   S    
C63   H22   S    
C7    C8    S    
C47   C49   A    
C55   H17   S    
C85   C86   A    
C13   Cl3   S    
C11   C19   S    
C20   C21   S    
C46   C99   S    
Cr2   O2    S    
C19   C21   S    
C73   C90   A    
C53   H15   S    
C5    C6    S    
C38   H12   S    
Cr5   O8    S    
C86   C88   A    
C100  N4    T    
Cr5   O19   S    
C73   H24   S    
C26   C97   S    
C45   O3    A    
C17   C20   S    
C18   C19   S    
C41   C42   A    
C69   C71   A    
C7    H28   S    
C35   H6    S    
C44   C53   A    
C40   C43   A    
C96   O18   A    
C31   C32   S    
C16   C17   S    
C56   C72   S    
C74   C77   A    
C23   O23   A    
C1    C28   S    
C31   C33   S    
C12   O21   A    
C80   C96   S    
C59   C100  S    
Cr6   O18   S    
C21   H34   S    
C18   C20   S    
C55   C72   A    
C16   H4    S    
C61   C62   A    
C25   C32   S    
C15   C23   S    
C79   H23   S    
C59   C60   A    
C8    C78   S    
Cr3   O3    S    
C69   C70   A    
C67   C78   S    
C88   H27   S    
C41   H13   S    
C4    C7    S    
Cr1   O1    S    
Cr2   O26   S    
C29   H9    S    
C81   C82   A    
C39   C42   A    
C91   O7    A    
C25   C29   S    
C5    H32   S    
Cr2   O20   S    
C92   O10   A    
C51   C52   A    
Cr1   O24   S    
C76   C77   A    
C9    C89   T    
C5    C7    S    
C86   C87   A    
C68   C69   A    
C57   C60   A    
C6    C8    S    
Cr4   O14   S    
C94   O15   A    
C40   C52   A    
Cr5   O15   S    
C63   C64   A    
C51   C53   A    
C64   C66   A    
C1    O20   A    
C75   C76   A    
C34   C90   S    
C4    C78   S    
C29   C30   S    
Cr6   O11   S    
C11   C16   S    
C47   C48   A    
C38   C54   A    
Cr2   O21   S    
C29   C31   S    
Cr5   O9    S    
C46   C54   A    
C50   Cl1   S    
C50   C51   A    
C92   O9    A    
C13   C21   S    
C32   C37   S    
C84   C85   A    
C89   C92   S    
Cr6   O17   S    
Cr1   O5    S    
C77   H26   S    
C81   C90   A    
Cr4   O19   S    
C42   H14   S    
C99   N3    T    
C45   C54   S    
C49   C50   A    
C82   C84   A    
C62   C94   S    
Cr2   O5    S    
C98   N2    T    
C27   C36   T    
Cr1   O12   S    
Cr3   O4    S    
C58   C59   A    
C33   H7    S    
C43   H10   S    
C3    C4    S    
C2    C10   T    
C3    C5    S    
C8    H18   S    
C91   O8    A    
C78   H1    S    
C75   C87   A    
C46   C47   A    
C15   C24   T    
C11   Cl4   S    
C30   C33   S    
C61   H16   S    
C23   O1    A    
C58   C70   A    
C32   C35   S    
C57   C65   A    
C34   O26   A    
Cr4   O7    S    
C6    C10   S    
Cr3   O5    S    
C81   H31   S    
C20   H2    S    
C30   C36   S    
Cr4   O13   S    
C94   O14   A    
Cr5   O16   S    
Cr1   O25   S    
C17   C22   S    
C13   C17   S    
C56   O24   A    
C12   O22   A    
C64   C65   A    
C14   C22   T    
C55   C57   A    
C19   C24   S    
C25   C26   S    
C18   H3    S    
C49   C98   S    
C80   C88   A    
C44   C95   S    
C6    C67   S    
Cr6   O10   S    
C68   Cl2   S    
C38   C39   A    
C3    C67   S    
C28   C37   T    
C58   C61   A    
C56   O4    A    
C96   O13   A    
C45   O2    A    
C33   C35   S    
C31   H8    S    
C84   H30   S    
C62   C71   A    
C93   O11   A    
C3    H33   S    
C67   H11   S    
C60   H19   S    
C14   C91   S    
C27   C93   S    
C79   C80   A    
C26   C35   S    
C48   C52   A    
C63   C72   A    
C16   C18   S    
C82   C83   A    
Cr3   O22   S    
C76   H25   S    
C66   H21   S    
C1    O12   A    
Cr4   O6    S    
C95   O16   A    
C95   O17   A    
C4    C9    S    
C75   C79   A    
Cr6   O19   S    
C25   H5    S    
C85   H29   S    
C93   O6    A    
C65   C70   A    
C39   C48   A    
C26   C30   S    
