data_mof_unit_58827.cif
_audit_creation_date              2013-03-05T15:40:46-0500
_audit_creation_method            fapswitch 2.2
_symmetry_space_group_name_H-M    P1
_symmetry_Int_Tables_number       1
_space_group_crystal_system       triclinic
_cell_length_a                    8.243749
_cell_length_b                    12.652324
_cell_length_c                    15.188033
_cell_angle_alpha                 95.748339
_cell_angle_beta                  99.107332
_cell_angle_gamma                 97.120044
_cell_volume                      1540.47662903

loop_
_atom_site_label
_atom_site_type_symbol
_atom_site_description
_atom_site_fract_x
_atom_site_fract_y
_atom_site_fract_z
_atom_type_partial_charge
P1    P     P_3+3 0.998660 0.747790 0.570900 0.457482
O1    O     O_2   0.168170 0.764170 0.543850 -0.363908
O2    O     O_3   0.898670 0.629780 0.545890 -0.416042
O3    O     O_3   0.365980 0.695510 0.380810 -0.352220
O4    O     O_2   0.281663 0.883843 0.437381 -0.387576
O5    O     O_3   0.049589 0.776511 0.687971 -0.579689
O6    O     O_3   0.357560 0.871578 0.278217 -0.546000
H1    H     H_    0.289577 0.713702 0.219216 0.157430
C1    C     C_3   0.337352 0.817916 0.121135 -0.961203
H2    H     H_    0.206169 0.832466 0.106844 0.288216
H3    H     H_    0.419538 0.892077 0.114597 0.256818
P2    P     P_3+3 0.306970 0.411860 0.294270 0.473073
P3    P     P_3+3 0.888682 0.628782 0.216855 0.474915
O7    O     O_2   0.136040 0.444100 0.280280 -0.315613
O8    O     O_3   0.934510 0.640480 0.335500 -0.368825
O9    O     O_2   0.021850 0.571606 0.178041 -0.388640
O10   O     O_3   0.261448 0.271899 0.272700 -0.579801
O11   O     O_3   0.915998 0.757547 0.183996 -0.527605
C2    C     C_3   0.888449 0.832513 0.253059 0.447989
H4    H     H_    0.004397 0.855424 0.303177 0.147492
H5    H     H_    0.786519 0.801696 0.287869 0.049256
C3    C     C_3   0.840606 0.931883 0.212858 -1.029677
H6    H     H_    0.834699 0.996073 0.267233 0.249122
H7    H     H_    0.932942 0.961225 0.171858 0.279644
C4    C     C_3   0.633411 0.240453 0.264983 0.487261
H8    H     H_    0.547454 0.263024 0.309319 0.128727
H9    H     H_    0.654983 0.306377 0.223419 0.070290
C5    C     C_3   0.554610 0.139997 0.201563 -1.036949
H10   H     H_    0.536123 0.070475 0.239760 0.270967
H11   H     H_    0.432613 0.152840 0.164531 0.261367
H12   H     H_    0.636337 0.121577 0.152199 0.271302
Ba1   Ba    Ba6+2 0.153570 0.551840 0.456200 1.561389
C6    C     C_3   0.078611 0.683561 0.726704 0.433910
H13   H     H_    0.179769 0.648925 0.699740 0.095881
H14   H     H_    0.965297 0.623439 0.713302 0.131574
C7    C     C_3   0.127930 0.713640 0.827878 -0.973855
H15   H     H_    0.248107 0.767905 0.843596 0.276182
H16   H     H_    0.140434 0.641021 0.861947 0.226964
H17   H     H_    0.031231 0.755036 0.854341 0.268575
C8    C     C_3   0.224689 0.228415 0.349598 0.360078
H18   H     H_    0.104254 0.249467 0.362246 0.128755
H19   H     H_    0.321473 0.257307 0.409691 0.130163
C9    C     C_3   0.214140 0.107006 0.332476 -0.905781
H20   H     H_    0.148518 0.077412 0.263366 0.274049
H21   H     H_    0.146781 0.067455 0.380498 0.228358
P4    P     P_3+3 0.811620 0.252200 0.429030 0.496087
O12   O     O_2   0.642110 0.235770 0.456130 -0.398866
O13   O     O_3   0.911620 0.370210 0.454030 -0.321172
O14   O     O_3   0.444310 0.304480 0.619110 -0.388485
O15   O     O_3   0.787339 0.223239 0.311108 -0.565752
P5    P     P_3+3 0.918789 0.362867 0.781258 0.455176
O16   O     O_3   0.400800 0.556680 0.607590 -0.405631
O17   O     O_3   0.875770 0.359510 0.664420 -0.386817
O18   O     O_2   0.797664 0.429518 0.822135 -0.384698
O19   O     O_3   0.867192 0.233171 0.808315 -0.514819
Ba2   Ba    Ba6+2 0.656590 0.448150 0.543720 1.559677
P6    P     P_3+3 0.409200 0.836036 0.386693 0.454195
C10   C     C_3   0.376966 0.786601 0.215440 0.456241
H22   H     H_    0.506227 0.768006 0.226788 0.035412
H23   H     H_    0.356142 0.752121 0.071229 0.230465
O20   O     O_3   0.409490 0.443300 0.392340 -0.427078
C11   C     C_3   0.572529 0.779209 0.678804 0.355687
H24   H     H_    0.700616 0.766102 0.671279 0.088558
H25   H     H_    0.484775 0.750617 0.615116 0.126389
C12   C     C_3   0.568217 0.898663 0.698787 -0.868905
H26   H     H_    0.645106 0.929872 0.765005 0.260332
H27   H     H_    0.616330 0.941817 0.646069 0.227301
H28   H     H_    0.438670 0.913195 0.700552 0.271124
P7    P     P_3+3 0.496808 0.589176 0.720406 0.434206
O21   O     O_2   0.674250 0.555830 0.719690 -0.367706
O22   O     O_3   0.525935 0.728173 0.750521 -0.562701
H29   H     H_    0.717362 0.912242 0.168877 0.264733
C13   C     C_3   0.918146 0.158379 0.746979 0.470561
H30   H     H_    0.810427 0.124517 0.693847 0.134956
H31   H     H_    0.020303 0.192700 0.714004 0.029635
C14   C     C_3   0.979511 0.068301 0.796428 -1.028702
H32   H     H_    0.003256 0.002991 0.747656 0.249427
H33   H     H_    0.096266 0.099476 0.843863 0.261682
H34   H     H_    0.886192 0.035669 0.835491 0.275414
P8    P     P_3+3 0.402149 0.165678 0.618003 0.441543
C15   C     C_3   0.433432 0.214413 0.788823 0.487968
H35   H     H_    0.300125 0.224183 0.775991 0.010469
O23   O     O_2   0.518685 0.115266 0.560949 -0.382529
O24   O     O_3   0.468011 0.134217 0.726377 -0.526791
H36   H     H_    0.510561 0.292153 0.786223 0.148166
H37   H     H_    0.444878 0.245001 0.932687 0.223543
C16   C     C_3   0.475119 0.183132 0.883017 -0.965647
H38   H     H_    0.609403 0.176716 0.899228 0.290841
H39   H     H_    0.402296 0.104616 0.887785 0.255846
C17   C     C_R   0.083175 0.185895 0.533917 -0.527008
C18   C     C_R   0.717781 0.827008 0.489620 -0.445110
C19   C     C_R   0.694378 0.997618 0.435392 -0.228904
C20   C     C_R   0.623872 0.892725 0.441839 0.260143
C21   C     C_R   0.886383 0.855793 0.522270 0.254943
C22   C     C_R   0.955939 0.965988 0.523985 -0.069593
C23   C     C_R   0.856783 0.038865 0.481271 -0.058784
C24   C     C_R   0.922803 0.150455 0.486972 0.265636
C25   C     C_R   0.183248 0.114533 0.570532 0.224168
C26   C     C_R   0.119097 0.006285 0.567981 -0.194821
H40   H     H_    0.197819 0.955006 0.601112 0.180757
H41   H     H_    0.134301 0.269568 0.537887 0.168036
H42   H     H_    0.656070 0.753796 0.505065 0.148476
C27   C     C_R   0.233430 0.457651 0.765679 -0.518333
C28   C     C_R   0.135975 0.419311 0.825685 0.252025
C29   C     C_R   0.201657 0.429082 0.917692 -0.280322
C30   C     C_R   0.364642 0.483235 0.951745 0.069138
C31   C     C_R   0.454351 0.528869 0.889029 -0.248511
C32   C     C_R   0.389712 0.515424 0.797384 0.304760
C33   C     C_R   0.606660 0.544192 0.081962 -0.248402
C34   C     C_R   0.675294 0.557889 0.172980 0.188656
C35   C     C_R   0.416193 0.471900 0.207914 0.193198
C36   C     C_R   0.345770 0.459130 0.116364 -0.230077
C37   C     C_R   0.438967 0.495804 0.050913 0.077425
C38   C     C_R   0.579154 0.521304 0.233758 -0.498312
H43   H     H_    0.688348 0.571525 0.037782 0.151665
H44   H     H_    0.122077 0.395387 0.960616 0.150773
H45   H     H_    0.572596 0.578700 0.908965 0.146963
H46   H     H_    0.182791 0.449706 0.694717 0.165649
H47   H     H_    0.340706 0.084405 0.340264 0.265176
H48   H     H_    0.619250 0.046570 0.397072 0.166711
H49   H     H_    0.219762 0.419539 0.098396 0.154001
C39   C     C_2   0.652853 0.530035 0.325990 1.142515
O25   O     O_2   0.734408 0.462604 0.352128 -0.588448
O26   O     O_R   0.630572 0.615914 0.383547 -0.795279
H50   H     H_    0.646340 0.598327 0.446812 0.347915

loop_
_geom_bond_atom_site_label_1
_geom_bond_atom_site_label_2
_geom_bond_distance
_ccdc_geom_bond_type
C16   H38   1.110256 S    
Ba1   O13   2.843970 S    
C13   H30   1.110349 S    
C29   H44   1.076515 S    
C22   C23   1.441543 A    
C14   H34   1.108643 S    
P8    O24   1.750556 S    
C15   H35   1.109799 S    
O8    Ba1   2.783065 S    
C4    C5    1.522249 S    
C11   H24   1.110562 S    
P3    O11   1.749714 S    
C5    H10   1.109273 S    
C2    H5    1.112803 S    
C14   H33   1.109268 S    
Ba1   O20   2.894274 S    
O11   C2    1.407483 S    
P7    O21   1.573208 D    
C22   C26   1.411663 A    
C30   C31   1.419470 A    
C19   C23   1.417380 A    
C6    C7    1.522530 S    
O1    Ba1   2.855956 S    
C1    C10   1.520791 S    
P7    O22   1.749024 S    
C4    O15   1.402164 S    
C36   C37   1.428133 A    
C11   H25   1.110563 S    
O16   P7    1.755081 S    
H1    C10   1.109934 S    
C8    C9    1.521342 S    
Ba1   O16   2.811015 S    
C35   C36   1.404531 A    
P1    C21   1.889137 S    
C12   H27   1.109480 S    
P2    O10   1.750469 S    
C31   C32   1.394847 A    
C27   C32   1.387688 A    
P5    C28   1.837111 S    
C1    H2    1.110662 S    
C34   C38   1.385926 A    
C17   C24   1.395660 A    
C33   C37   1.426271 A    
C8    H19   1.110651 S    
P6    C20   1.855683 S    
P2    Ba1   3.384047 S    
C13   H31   1.111328 S    
C21   C22   1.436362 A    
P8    O23   1.544461 D    
C3    H29   1.108836 S    
C28   C29   1.403740 A    
P7    C32   1.832529 S    
C7    H17   1.110906 S    
P4    O13   1.592270 S    
C30   C37   1.518221 S    
P1    O5    1.751094 S    
C2    C3    1.519718 S    
C14   H32   1.110508 S    
H37   C16   1.110681 S    
C4    H8    1.095348 S    
P1    Ba1   3.381735 S    
P1    O2    1.592251 S    
O10   C8    1.399293 S    
C38   C39   1.423568 S    
O3    P6    1.759888 S    
C9    H20   1.107198 S    
C17   H41   1.081941 S    
P3    C34   1.860410 S    
C18   C20   1.385609 A    
C1    H3    1.109818 S    
O2    Ba2   2.844612 S    
C26   H40   1.077823 S    
C12   H28   1.109868 S    
C23   C24   1.437775 A    
C6    H13   1.103605 S    
O3    Ba1   2.818532 S    
C17   C25   1.394659 A    
C9    H21   1.105973 S    
C15   C16   1.520833 S    
C8    H18   1.099662 S    
P4    C24   1.880366 S    
P2    O7    1.504056 D    
C12   H26   1.107145 S    
Ba2   O21   2.849314 S    
P3    O8    1.768888 S    
C13   C14   1.520857 S    
C3    H7    1.109643 S    
C27   H46   1.082336 S    
C18   H42   1.065998 S    
C39   O26   1.374254 S    
C15   O24   1.405282 S    
O17   Ba2   2.783655 S    
O13   Ba2   2.898215 S    
P4    O12   1.514117 D    
C7    H15   1.110658 S    
O6    C10   1.405787 S    
C11   C12   1.517378 S    
P8    C25   1.843967 S    
C3    H6    1.110029 S    
C5    H12   1.110940 S    
O7    Ba1   2.849098 S    
O14   P8    1.745314 S    
C4    H9    1.109102 S    
O14   Ba2   2.817885 S    
C29   C30   1.422336 A    
P4    O15   1.766041 S    
O5    C6    1.396471 S    
O4    P6    1.544198 D    
C1    H23   1.110959 S    
P5    O18   1.547175 D    
C2    H4    1.110794 S    
C7    H16   1.106522 S    
C10   H22   1.110265 S    
C36   H49   1.076262 S    
C33   C34   1.393280 A    
C18   C21   1.389437 A    
P2    O20   1.578150 S    
P1    O1    1.513759 D    
C5    H11   1.110844 S    
C19   C20   1.400558 A    
C6    H14   1.106943 S    
Ba1   Ba2   4.584125 S    
C11   O22   1.401014 S    
C35   C38   1.387548 A    
P5    O19   1.749266 S    
C19   H48   1.076618 S    
O2    Ba1   2.897314 S    
O6    P6    1.752619 S    
C33   H43   1.074774 S    
O19   C13   1.409108 S    
C25   C26   1.400097 A    
P3    O9    1.546722 D    
P4    Ba2   3.382201 S    
C27   C28   1.391069 A    
C16   H39   1.110331 S    
Ba2   O20   2.810253 S    
O26   H50   1.000067 S    
P5    O17   1.748854 S    
C39   O25   1.209570 D    
C31   H45   1.074875 S    
P2    C35   1.874015 S    
C15   H36   1.110852 S    
O16   Ba2   2.893367 S    
C9    H47   1.107283 S    
O12   Ba2   2.856334 S    
