data_mof_unit_62930.cif
_audit_creation_date              2012-12-10T18:21:15-0500
_audit_creation_method            fapswitch 2.2
_symmetry_space_group_name_H-M    P1
_symmetry_Int_Tables_number       1
_space_group_crystal_system       triclinic
_cell_length_a                    35.709676
_cell_length_b                    35.709676
_cell_length_c                    23.680234
_cell_angle_alpha                 90.00092
_cell_angle_beta                  90.00092
_cell_angle_gamma                 90.389318
_cell_volume                      30195.8864263

loop_
_atom_site_label
_atom_site_type_symbol
_atom_type_description
_atom_site_fract_x
_atom_site_fract_y
_atom_site_fract_z
_atom_type_partial_charge
C1    C     C_R   0.999864 0.427640 0.499927 0.928107
C2    C     C_R   0.427642 0.999865 0.500075 0.928419
C3    C     C_R   0.000135 0.572358 0.499925 0.928459
C4    C     C_R   0.572360 0.000135 0.500072 0.928112
C5    C     C_R   0.499864 0.927640 0.999928 0.928112
C6    C     C_R   0.927642 0.499864 0.000075 0.928459
C7    C     C_R   0.500135 0.072358 0.999925 0.928419
C8    C     C_R   0.072360 0.500135 0.000073 0.928107
C9    C     C_1   0.997540 0.267032 0.501354 0.300131
C10   C     C_1   0.267038 0.997535 0.498687 0.300089
C11   C     C_1   0.002466 0.732961 0.501313 0.300081
C12   C     C_1   0.732967 0.002459 0.498636 0.300120
C13   C     C_1   0.497541 0.767032 0.001364 0.300120
C14   C     C_1   0.767039 0.497534 0.998687 0.300081
C15   C     C_1   0.502465 0.232962 0.001313 0.300089
C16   C     C_1   0.232968 0.502459 0.998646 0.300131
C17   C     C_R   0.965860 0.327054 0.486730 0.541603
C18   C     C_R   0.326647 0.031192 0.485753 0.530365
C19   C     C_R   0.034073 0.672936 0.486328 0.541610
C20   C     C_R   0.673358 0.968747 0.486034 0.530276
C21   C     C_R   0.968816 0.673352 0.514290 0.530378
C22   C     C_R   0.327063 0.965919 0.513629 0.541608
C23   C     C_R   0.031253 0.326641 0.513953 0.530266
C24   C     C_R   0.672946 0.034139 0.513270 0.541601
C25   C     C_R   0.465861 0.827054 0.986730 0.541601
C26   C     C_R   0.826648 0.531184 0.985710 0.530378
C27   C     C_R   0.534081 0.172937 0.986371 0.541608
C28   C     C_R   0.173359 0.468747 0.986047 0.530266
C29   C     C_R   0.468808 0.173353 0.014247 0.530365
C30   C     C_R   0.827064 0.465927 0.013672 0.541610
C31   C     C_R   0.531253 0.826642 0.013966 0.530276
C32   C     C_R   0.172946 0.534140 0.013270 0.541603
C33   C     C_R   0.966332 0.366176 0.486351 0.498027
C34   C     C_R   0.365796 0.031897 0.486107 0.504132
C35   C     C_R   0.033599 0.633813 0.485963 0.497978
C36   C     C_R   0.634210 0.968044 0.486400 0.504202
C37   C     C_R   0.968111 0.634203 0.513936 0.504123
C38   C     C_R   0.366186 0.966393 0.513994 0.497982
C39   C     C_R   0.031957 0.365790 0.513589 0.504205
C40   C     C_R   0.633824 0.033667 0.513651 0.498027
C41   C     C_R   0.466333 0.866176 0.986349 0.498027
C42   C     C_R   0.865797 0.531889 0.986064 0.504123
C43   C     C_R   0.533607 0.133814 0.986006 0.497982
C44   C     C_R   0.134210 0.468043 0.986411 0.504205
C45   C     C_R   0.468103 0.134204 0.013893 0.504132
C46   C     C_R   0.866186 0.466401 0.014037 0.497978
C47   C     C_R   0.531956 0.865790 0.013600 0.504202
C48   C     C_R   0.133824 0.533668 0.013649 0.498027
C49   C     C_R   0.999424 0.386105 0.499879 -0.496614
C50   C     C_R   0.386110 0.999425 0.500134 -0.496521
C51   C     C_R   0.000575 0.613889 0.499866 -0.496512
C52   C     C_R   0.613894 0.000575 0.500118 -0.496615
C53   C     C_R   0.499425 0.886105 0.999882 -0.496614
C54   C     C_R   0.886111 0.499425 0.000134 -0.496511
C55   C     C_R   0.500575 0.113890 0.999866 -0.496522
C56   C     C_R   0.113895 0.500575 0.000121 -0.496615
C57   C     C_R   0.998246 0.307254 0.500569 -0.363859
C58   C     C_R   0.307260 0.998244 0.499468 -0.363799
C59   C     C_R   0.001756 0.692739 0.500532 -0.363795
C60   C     C_R   0.692746 0.001753 0.499423 -0.363859
C61   C     C_R   0.498247 0.807254 0.000577 -0.363859
C62   C     C_R   0.807261 0.498244 0.999468 -0.363795
C63   C     C_R   0.501756 0.192740 0.000532 -0.363799
C64   C     C_R   0.192746 0.501754 0.999431 -0.363859
C65   C     C_R   0.927762 0.999901 0.499984 0.847633
C66   C     C_R   0.000100 0.072238 0.500016 0.847613
C67   C     C_R   0.072239 0.000100 0.499984 0.847807
C68   C     C_R   0.999900 0.927761 0.500016 0.847806
C69   C     C_R   0.427762 0.499900 0.999983 0.847614
C70   C     C_R   0.500099 0.572238 0.000016 0.847633
C71   C     C_R   0.572239 0.500100 0.999984 0.847806
C72   C     C_R   0.499900 0.427761 0.000016 0.847807
C73   C     C_R   0.000000 0.500000 0.608198 0.790662
C74   C     C_R   0.500000 0.000000 0.608198 0.790078
C75   C     C_R   1.000000 0.500000 0.391802 0.790088
C76   C     C_R   0.500000 1.000000 0.391802 0.790652
C77   C     C_R   0.500000 1.000000 0.108198 0.790652
C78   C     C_R   1.000000 0.500000 0.108198 0.790088
C79   C     C_R   0.500000 0.000000 0.891802 0.790079
C80   C     C_R   1.000000 0.500000 0.891802 0.790663
C81   C     C_1   0.000001 0.500000 0.669028 -0.100906
C82   C     C_1   0.500000 0.000001 0.669028 -0.101850
C83   C     C_1   0.999999 0.500000 0.330972 -0.101843
C84   C     C_1   0.500000 0.999999 0.330972 -0.100912
C85   C     C_1   0.500001 1.000000 0.169028 -0.100912
C86   C     C_1   1.000000 0.500001 0.169028 -0.101843
C87   C     C_1   0.499999 0.000000 0.830972 -0.101850
C88   C     C_1   0.000000 0.499999 0.830972 -0.100906
C89   C     C_1   0.000001 0.499999 0.720076 0.052236
C90   C     C_1   0.499999 0.000001 0.720076 0.051064
C91   C     C_1   0.999999 0.500001 0.279924 0.051069
C92   C     C_1   0.500000 0.999999 0.279924 0.052231
C93   C     C_1   0.500001 0.999999 0.220076 0.052231
C94   C     C_1   0.999999 0.500001 0.220076 0.051069
C95   C     C_1   0.499999 0.000001 0.779924 0.051064
C96   C     C_1   0.000001 0.499999 0.779924 0.052236
C97   C     C_R   0.973489 0.172812 0.465493 -0.055768
C98   C     C_R   0.173760 0.021108 0.459820 -0.073875
C99   C     C_R   0.026496 0.827188 0.465440 -0.055852
C100  C     C_R   0.826248 0.978865 0.459820 -0.073802
C101  C     C_R   0.978897 0.826239 0.540185 -0.073882
C102  C     C_R   0.172811 0.973501 0.534554 -0.055843
C103  C     C_R   0.021130 0.173753 0.540180 -0.073804
C104  C     C_R   0.827187 0.026515 0.534494 -0.055768
C105  C     C_R   0.473485 0.672813 0.965506 -0.055768
C106  C     C_R   0.673761 0.521103 0.959815 -0.073881
C107  C     C_R   0.526499 0.327189 0.965446 -0.055843
C108  C     C_R   0.326247 0.478870 0.959820 -0.073804
C109  C     C_R   0.478892 0.326240 0.040180 -0.073875
C110  C     C_R   0.672812 0.473504 0.034560 -0.055852
C111  C     C_R   0.521135 0.673752 0.040180 -0.073802
C112  C     C_R   0.327188 0.526511 0.034507 -0.055768
C113  C     C_R   0.975392 0.133309 0.463597 -0.076952
C114  C     C_R   0.134134 0.022624 0.461109 -0.089723
C115  C     C_R   0.024592 0.866691 0.463559 -0.076917
C116  C     C_R   0.865874 0.977351 0.461124 -0.089739
C117  C     C_R   0.977380 0.865866 0.538896 -0.089722
C118  C     C_R   0.133308 0.975405 0.536435 -0.076914
C119  C     C_R   0.022644 0.134127 0.538879 -0.089730
C120  C     C_R   0.866689 0.024612 0.536396 -0.076952
C121  C     C_R   0.475388 0.633311 0.963604 -0.076952
C122  C     C_R   0.634134 0.522620 0.961104 -0.089722
C123  C     C_R   0.524595 0.366692 0.963565 -0.076914
C124  C     C_R   0.365873 0.477356 0.961120 -0.089730
C125  C     C_R   0.477375 0.365866 0.038891 -0.089723
C126  C     C_R   0.633309 0.475408 0.036441 -0.076917
C127  C     C_R   0.522649 0.634126 0.038876 -0.089739
C128  C     C_R   0.366691 0.524608 0.036403 -0.076952
C129  C     C_R   0.999925 0.113838 0.500153 -0.174567
C130  C     C_R   0.113840 0.999922 0.499851 -0.174541
C131  C     C_R   0.000078 0.886160 0.500149 -0.174542
C132  C     C_R   0.886162 0.000074 0.499847 -0.174527
C133  C     C_R   0.499926 0.613838 0.000153 -0.174527
C134  C     C_R   0.613840 0.499922 0.999851 -0.174542
C135  C     C_R   0.500078 0.386160 0.000149 -0.174541
C136  C     C_R   0.386162 0.500075 0.999847 -0.174567
C137  C     C_R   0.996536 0.192817 0.503567 -0.042272
C138  C     C_R   0.192821 0.996531 0.496463 -0.042265
C139  C     C_R   0.003470 0.807178 0.503536 -0.042268
C140  C     C_R   0.807182 0.003463 0.496425 -0.042283
C141  C     C_R   0.496537 0.692818 0.003575 -0.042283
C142  C     C_R   0.692822 0.496530 0.996464 -0.042268
C143  C     C_R   0.503469 0.307179 0.003537 -0.042265
C144  C     C_R   0.307183 0.503464 0.996433 -0.042272
C145  C     C_1   0.996975 0.233334 0.502254 0.092433
C146  C     C_1   0.233339 0.996969 0.497785 0.092349
C147  C     C_1   0.003032 0.766660 0.502215 0.092334
C148  C     C_1   0.766665 0.003024 0.497736 0.092414
C149  C     C_1   0.496976 0.733334 0.002264 0.092414
C150  C     C_1   0.733340 0.496968 0.997785 0.092334
C151  C     C_1   0.503031 0.266661 0.002215 0.092349
C152  C     C_1   0.266666 0.503025 0.997746 0.092433
Cu1   Cu    Cu3+1 0.037270 0.500000 0.500000 1.145611
Cu2   Cu    Cu3+1 0.500000 0.962730 0.500000 1.145619
Cu3   Cu    Cu3+1 0.962730 0.500000 0.500000 1.145647
Cu4   Cu    Cu3+1 0.500000 0.037270 0.500000 1.145650
Cu5   Cu    Cu3+1 0.537270 0.000000 0.000000 1.145619
Cu6   Cu    Cu3+1 0.000000 0.462730 0.000000 1.145611
Cu7   Cu    Cu3+1 0.462730 0.000000 0.000000 1.145650
Cu8   Cu    Cu3+1 0.000000 0.537270 0.000000 1.145647
Cu9   Cu    Cu3+1 1.000000 0.000000 0.555780 1.102269
Cu10  Cu    Cu3+1 1.000000 0.000000 0.444220 1.102250
Cu11  Cu    Cu3+1 0.500000 0.500000 0.055780 1.102249
Cu12  Cu    Cu3+1 0.500000 0.500000 0.944220 1.102269
O1    O     O_R   0.031480 0.445630 0.499980 -0.525391
O2    O     O_R   0.445630 0.968520 0.499980 -0.525516
O3    O     O_R   0.968520 0.554370 0.499980 -0.525550
O4    O     O_R   0.554370 0.031480 0.499980 -0.525372
O5    O     O_R   0.031480 0.554370 0.500020 -0.525536
O6    O     O_R   0.445630 0.031480 0.500020 -0.525531
O7    O     O_R   0.968520 0.445630 0.500020 -0.525370
O8    O     O_R   0.554370 0.968520 0.500020 -0.525392
O9    O     O_R   0.531480 0.945630 0.999980 -0.525392
O10   O     O_R   0.945630 0.468520 0.999980 -0.525536
O11   O     O_R   0.468520 0.054370 0.999980 -0.525530
O12   O     O_R   0.054370 0.531480 0.999980 -0.525369
O13   O     O_R   0.531480 0.054370 0.000020 -0.525516
O14   O     O_R   0.945630 0.531480 0.000020 -0.525551
O15   O     O_R   0.468520 0.945630 0.000020 -0.525373
O16   O     O_R   0.054370 0.468520 0.000020 -0.525391
O17   O     O_R   0.031480 0.500000 0.581380 -0.567688
O18   O     O_R   0.500000 0.968520 0.581380 -0.567644
O19   O     O_R   0.968520 0.500000 0.581380 -0.567405
O20   O     O_R   0.500000 0.031480 0.581380 -0.567866
O21   O     O_R   0.031480 0.500000 0.418620 -0.567626
O22   O     O_R   0.500000 0.031480 0.418620 -0.567425
O23   O     O_R   0.968520 0.500000 0.418620 -0.567881
O24   O     O_R   0.500000 0.968520 0.418620 -0.567670
O25   O     O_R   0.531480 0.000000 0.081380 -0.567670
O26   O     O_R   1.000000 0.468520 0.081380 -0.567626
O27   O     O_R   0.468520 0.000000 0.081380 -0.567425
O28   O     O_R   0.000000 0.531480 0.081380 -0.567881
O29   O     O_R   0.531480 0.000000 0.918620 -0.567643
O30   O     O_R   0.000000 0.531480 0.918620 -0.567405
O31   O     O_R   0.468520 0.000000 0.918620 -0.567866
O32   O     O_R   1.000000 0.468520 0.918620 -0.567688
O33   O     O_R   0.945750 0.999990 0.547080 -0.554375
O34   O     O_R   0.999990 0.054250 0.547080 -0.573575
O35   O     O_R   0.054250 0.000010 0.547080 -0.554605
O36   O     O_R   0.000010 0.945750 0.547080 -0.573496
O37   O     O_R   0.945750 0.000010 0.452920 -0.573576
O38   O     O_R   0.999990 0.945750 0.452920 -0.554602
O39   O     O_R   0.054250 0.999990 0.452920 -0.573499
O40   O     O_R   0.000010 0.054250 0.452920 -0.554451
O41   O     O_R   0.445750 0.499990 0.047080 -0.554451
O42   O     O_R   0.499990 0.554250 0.047080 -0.573576
O43   O     O_R   0.554250 0.500010 0.047080 -0.554602
O44   O     O_R   0.500010 0.445750 0.047080 -0.573499
O45   O     O_R   0.445750 0.500010 0.952920 -0.573575
O46   O     O_R   0.499990 0.445750 0.952920 -0.554604
O47   O     O_R   0.554250 0.499990 0.952920 -0.573496
O48   O     O_R   0.500010 0.554250 0.952920 -0.554376
C153  C     C_2   0.947404 0.193357 0.427472 0.883181
O49   O     O_2   0.945240 0.185028 0.377475 -0.525872
O50   O     O_R   0.925378 0.222264 0.449011 -0.677571
H1    H     H_    0.908962 0.234142 0.419123 0.385000
C154  C     C_2   0.195611 0.046253 0.421622 0.929495
O51   O     O_2   0.188498 0.079679 0.419457 -0.512661
O52   O     O_R   0.224495 0.031653 0.388570 -0.711071
H2    H     H_    0.237426 0.051501 0.364806 0.375781
C155  C     C_2   0.052563 0.806648 0.427387 0.883184
O53   O     O_2   0.054696 0.814976 0.377387 -0.525794
O54   O     O_R   0.074607 0.777747 0.448898 -0.677615
H3    H     H_    0.091010 0.765873 0.418991 0.385142
C156  C     C_2   0.804402 0.953696 0.421648 0.929471
O55   O     O_2   0.811521 0.920269 0.419527 -0.512688
O56   O     O_R   0.775518 0.968272 0.388574 -0.711251
H4    H     H_    0.762590 0.948409 0.364834 0.375605
C157  C     C_2   0.953758 0.804388 0.578392 0.929495
O57   O     O_2   0.920332 0.811501 0.580566 -0.512664
O58   O     O_R   0.968363 0.775506 0.611441 -0.711048
H5    H     H_    0.948519 0.762575 0.635212 0.375799
C158  C     C_2   0.193351 0.947429 0.572600 0.883161
O59   O     O_2   0.185023 0.945290 0.622599 -0.525793
O60   O     O_R   0.222252 0.925388 0.551083 -0.677617
H6    H     H_    0.234126 0.908981 0.580985 0.385125
C159  C     C_2   0.046294 0.195600 0.578357 0.929468
O61   O     O_2   0.079721 0.188484 0.580485 -0.512681
O62   O     O_R   0.031713 0.224483 0.611428 -0.711262
H7    H     H_    0.051573 0.237412 0.635173 0.375597
C160  C     C_2   0.806639 0.052601 0.572510 0.883245
O63   O     O_2   0.814962 0.054763 0.622509 -0.525906
O64   O     O_R   0.777738 0.074630 0.550963 -0.677553
H8    H     H_    0.765858 0.091047 0.580847 0.385008
C161  C     C_2   0.447399 0.693361 0.927490 0.883245
O65   O     O_2   0.445237 0.685038 0.877491 -0.525906
O66   O     O_R   0.425370 0.722262 0.949037 -0.677553
H9    H     H_    0.408953 0.734142 0.919153 0.385008
C162  C     C_2   0.695612 0.546242 0.921608 0.929495
O67   O     O_2   0.688499 0.579668 0.919434 -0.512664
O68   O     O_R   0.724494 0.531637 0.888559 -0.711048
H10   H     H_    0.737425 0.551481 0.864788 0.375799
C163  C     C_2   0.552571 0.306649 0.927400 0.883161
O69   O     O_2   0.554710 0.314977 0.877401 -0.525793
O70   O     O_R   0.574612 0.277748 0.948917 -0.677617
H11   H     H_    0.591019 0.265874 0.919015 0.385125
C164  C     C_2   0.304400 0.453706 0.921643 0.929468
O71   O     O_2   0.311516 0.420279 0.919515 -0.512681
O72   O     O_R   0.275517 0.468287 0.888572 -0.711262
H12   H     H_    0.262588 0.448427 0.864827 0.375597
C165  C     C_2   0.453747 0.304389 0.078378 0.929495
O73   O     O_2   0.420321 0.311502 0.080543 -0.512661
O74   O     O_R   0.468347 0.275505 0.111430 -0.711071
H13   H     H_    0.448499 0.262574 0.135194 0.375781
C166  C     C_2   0.693352 0.447437 0.072613 0.883184
O75   O     O_2   0.685024 0.445304 0.122613 -0.525794
O76   O     O_R   0.722253 0.425393 0.051102 -0.677615
H14   H     H_    0.734127 0.408990 0.081009 0.385142
C167  C     C_2   0.546304 0.695597 0.078351 0.929471
O77   O     O_2   0.579731 0.688479 0.080473 -0.512688
O78   O     O_R   0.531728 0.724481 0.111426 -0.711251
H15   H     H_    0.551591 0.737409 0.135166 0.375605
C168  C     C_2   0.306643 0.552596 0.072528 0.883181
O79   O     O_2   0.314972 0.554760 0.122525 -0.525872
O80   O     O_R   0.277736 0.574622 0.050989 -0.677571
H16   H     H_    0.265858 0.591038 0.080877 0.385000
C169  C     C_2   0.949411 0.112264 0.426303 0.903359
O81   O     O_2   0.916996 0.106997 0.441023 -0.537591
O82   O     O_R   0.961990 0.099114 0.374115 -0.689289
H17   H     H_    0.941724 0.085219 0.352469 0.355672
C170  C     C_2   0.113984 0.047734 0.421361 0.937721
O83   O     O_2   0.120634 0.046294 0.370744 -0.535703
O84   O     O_R   0.087457 0.072913 0.441846 -0.708220
H18   H     H_    0.075561 0.088304 0.410755 0.354796
C171  C     C_2   0.050553 0.887740 0.426243 0.903459
O85   O     O_2   0.082957 0.893064 0.440973 -0.537676
O86   O     O_R   0.037965 0.900836 0.374028 -0.689255
H19   H     H_    0.058217 0.914741 0.352368 0.355688
C172  C     C_2   0.886030 0.952223 0.421410 0.937718
O87   O     O_2   0.879382 0.953633 0.370791 -0.535718
O88   O     O_R   0.912561 0.927061 0.441930 -0.708283
H20   H     H_    0.924460 0.911654 0.410859 0.354762
C173  C     C_2   0.952275 0.886015 0.578650 0.937725
O89   O     O_2   0.953722 0.879366 0.629267 -0.535708
O90   O     O_R   0.927092 0.912540 0.558171 -0.708204
H21   H     H_    0.911704 0.924436 0.589267 0.354801
C174  C     C_2   0.112259 0.949441 0.573745 0.903448
O91   O     O_2   0.106926 0.917040 0.559002 -0.537706
O92   O     O_R   0.099170 0.962022 0.625968 -0.689245
H22   H     H_    0.085263 0.941769 0.647622 0.355691
C175  C     C_2   0.047769 0.113973 0.578601 0.937719
O93   O     O_2   0.046352 0.120622 0.629220 -0.535726
O94   O     O_R   0.072934 0.087443 0.558089 -0.708269
H23   H     H_    0.088338 0.075544 0.589165 0.354763
C176  C     C_2   0.887731 0.050598 0.573685 0.903338
O95   O     O_2   0.892953 0.083026 0.558992 -0.537462
O96   O     O_R   0.900924 0.038012 0.625845 -0.689343
H24   H     H_    0.914810 0.058284 0.647492 0.355662
C177  C     C_2   0.449402 0.612269 0.926315 0.903338
O97   O     O_2   0.416974 0.607047 0.941008 -0.537462
O98   O     O_R   0.461988 0.599076 0.874155 -0.689343
H25   H     H_    0.441716 0.585190 0.852508 0.355662
C178  C     C_2   0.613985 0.547725 0.921350 0.937725
O99   O     O_2   0.620634 0.546278 0.870733 -0.535708
O100  O     O_R   0.587460 0.572908 0.941829 -0.708204
H26   H     H_    0.575564 0.588295 0.910733 0.354801
C179  C     C_2   0.550559 0.387741 0.926255 0.903448
O101  O     O_2   0.582960 0.393074 0.940998 -0.537706
O102  O     O_R   0.537978 0.400830 0.874032 -0.689245
H27   H     H_    0.558231 0.414737 0.852378 0.355691
C180  C     C_2   0.386027 0.452231 0.921399 0.937719
O103  O     O_2   0.379378 0.453647 0.870780 -0.535726
O104  O     O_R   0.412557 0.427066 0.941911 -0.708268
H28   H     H_    0.424455 0.411662 0.910835 0.354763
C181  C     C_2   0.452266 0.386016 0.078639 0.937721
O105  O     O_2   0.453706 0.379366 0.129255 -0.535703
O106  O     O_R   0.427087 0.412543 0.058153 -0.708220
H29   H     H_    0.411696 0.424439 0.089245 0.354796
C182  C     C_2   0.612260 0.449447 0.073757 0.903459
O107  O     O_2   0.606935 0.417043 0.059027 -0.537676
O108  O     O_R   0.599164 0.462035 0.125972 -0.689255
H30   H     H_    0.585259 0.441783 0.147632 0.355688
C183  C     C_2   0.547777 0.613970 0.078590 0.937717
O109  O     O_2   0.546367 0.620618 0.129209 -0.535718
O110  O     O_R   0.572939 0.587439 0.058070 -0.708283
H31   H     H_    0.588346 0.575539 0.089141 0.354761
C184  C     C_2   0.387736 0.550589 0.073696 0.903359
O111  O     O_2   0.393003 0.583004 0.058977 -0.537591
O112  O     O_R   0.400886 0.538010 0.125885 -0.689289
H32   H     H_    0.414781 0.558276 0.147531 0.355672
F1    F     F_    0.933724 0.308466 0.473563 -0.552705
F2    F     F_    0.307618 0.062654 0.471717 -0.560437
F3    F     F_    0.066141 0.691521 0.472789 -0.552933
F4    F     F_    0.692385 0.937225 0.472307 -0.560388
F5    F     F_    0.937362 0.692380 0.528369 -0.560442
F6    F     F_    0.308477 0.933843 0.527125 -0.552912
F7    F     F_    0.062777 0.307613 0.527673 -0.560387
F8    F     F_    0.691534 0.066273 0.526442 -0.552718
F9    F     F_    0.433727 0.808466 0.973558 -0.552718
F10   F     F_    0.807620 0.562638 0.971631 -0.560442
F11   F     F_    0.566157 0.191523 0.972875 -0.552912
F12   F     F_    0.192386 0.437223 0.972327 -0.560387
F13   F     F_    0.437346 0.192382 0.028283 -0.560437
F14   F     F_    0.808478 0.433858 0.027211 -0.552933
F15   F     F_    0.562775 0.807615 0.027693 -0.560388
F16   F     F_    0.191534 0.566276 0.026437 -0.552705
F17   F     F_    0.934450 0.384373 0.472024 -0.553302
F18   F     F_    0.383650 0.064210 0.471762 -0.552539
F19   F     F_    0.065402 0.615608 0.471267 -0.553447
F20   F     F_    0.616359 0.935664 0.472388 -0.552460
F21   F     F_    0.935807 0.616348 0.528325 -0.552552
F22   F     F_    0.384390 0.934581 0.528646 -0.553432
F23   F     F_    0.064338 0.383640 0.527596 -0.552459
F24   F     F_    0.615628 0.065547 0.527985 -0.553304
F25   F     F_    0.434453 0.884372 0.972015 -0.553304
F26   F     F_    0.883652 0.564192 0.971675 -0.552552
F27   F     F_    0.565419 0.115609 0.971354 -0.553432
F28   F     F_    0.116360 0.435662 0.972404 -0.552459
F29   F     F_    0.435790 0.116350 0.028238 -0.552539
F30   F     F_    0.884392 0.434598 0.028733 -0.553447
F31   F     F_    0.564336 0.883640 0.027612 -0.552460
F32   F     F_    0.115627 0.565550 0.027976 -0.553302

loop_
_geom_bond_atom_site_label_1
_geom_bond_atom_site_label_2
_ccdc_geom_bond_type
C37   F21   S    
C174  O92   S    
O54   H3    S    
C7    C55   S    
C8    C56   S    
C79   C87   S    
C184  O111  D    
C90   C95   S    
C183  O109  D    
C98   C138  A    
Cu5   O29   S    
C21   C59   A    
C103  C137  A    
C98   C114  A    
O78   H15   S    
C22   C38   A    
C7    O13   A    
Cu6   O16   S    
C5    O15   A    
C18   C58   A    
O88   H20   S    
Cu3   O3    S    
C30   F14   S    
C76   O24   A    
C47   C53   A    
C125  C135  A    
C71   O43   A    
C161  O65   D    
C114  C130  A    
C108  C124  A    
C73   C81   S    
C106  C142  A    
C153  O50   S    
C80   O32   A    
C34   C50   A    
C68   O38   A    
O104  H28   S    
C45   F29   S    
O68   H10   S    
C112  C168  S    
C25   C41   A    
C3    O5    A    
C6    O10   A    
C175  O93   D    
Cu2   O24   S    
C28   C44   A    
C104  C140  A    
Cu10  O40   S    
C68   C131  S    
O50   H1    S    
C157  O57   D    
C73   O17   A    
C8    O16   A    
O56   H4    S    
C21   F5    S    
C47   F31   S    
Cu8   O14   S    
C71   O47   A    
C167  O78   S    
C126  C182  S    
C35   C51   A    
C107  C143  A    
C108  C144  A    
C165  O74   S    
C22   C58   A    
C31   F15   S    
C83   C91   T    
C40   F24   S    
C89   C96   S    
C171  O86   S    
C19   C35   A    
C91   C94   S    
C115  C171  S    
Cu4   O6    S    
C67   O39   A    
O110  H31   S    
C126  C134  A    
C80   C88   S    
C180  O103  D    
Cu3   O23   S    
C160  O64   S    
C110  C166  S    
C124  C180  S    
C123  C179  S    
C70   O48   A    
C11   C147  T    
C22   F6    S    
C3    O3    A    
C72   O44   A    
Cu7   O31   S    
C162  O67   D    
C155  O53   D    
Cu9   O34   S    
Cu10  O38   S    
C10   C58   S    
Cu12  O48   S    
Cu6   O26   S    
C165  O73   D    
C73   O19   A    
Cu3   O19   S    
C178  O100  S    
C74   O20   A    
Cu4   O4    S    
C104  C160  S    
C14   C62   S    
Cu11  O44   S    
C79   O31   A    
C160  O63   D    
Cu11  O43   S    
C181  O106  S    
C122  C134  A    
C2    C50   S    
C68   O36   A    
C85   C93   T    
C176  O96   S    
C87   C95   T    
C120  C176  S    
C128  C184  S    
C158  O59   D    
C36   C52   A    
C103  C159  S    
C36   F20   S    
C66   O40   A    
C77   C85   S    
C169  O81   D    
C182  O108  S    
C99   C139  A    
C108  C164  S    
C20   F4    S    
C97   C137  A    
Cu6   O10   S    
C168  O79   D    
C177  O98   S    
C156  O56   S    
Cu2   O8    S    
C32   C64   A    
Cu12  O46   S    
C72   C135  S    
C19   C59   A    
C154  O51   D    
Cu6   O32   S    
C123  C135  A    
C88   C96   T    
C25   F9    S    
C173  O89   D    
C158  O60   S    
C27   F11   S    
C116  C132  A    
O82   H17   S    
C105  C161  S    
C106  C122  A    
C172  O87   D    
C127  C183  S    
C125  C181  S    
C34   F18   S    
C15   C151  T    
C39   F23   S    
C166  O76   S    
C41   C53   A    
C66   O34   A    
C110  C126  A    
C17   F1    S    
C43   C55   A    
C39   C49   A    
C10   C146  T    
C19   F3    S    
C65   O33   A    
Cu1   Cu3   S    
C65   C132  S    
C26   C42   A    
C23   C57   A    
C4    O8    A    
Cu9   O36   S    
Cu1   O1    S    
C5    O9    A    
C30   C46   A    
O76   H14   S    
C8    O12   A    
C74   O18   A    
Cu4   O22   S    
C170  O84   S    
Cu11  O42   S    
C69   O41   A    
C79   O29   A    
C77   O25   A    
C169  O82   S    
C144  C152  S    
C138  C146  S    
C143  C151  S    
C119  C129  A    
C117  C131  A    
C46   F30   S    
C45   C55   A    
C121  C177  S    
Cu5   O9    S    
O84   H18   S    
C31   C47   A    
C84   C92   T    
C29   C45   A    
O70   H11   S    
C38   F22   S    
C29   C63   A    
C31   C61   A    
O62   H7    S    
C100  C116  A    
C107  C123  A    
C76   C84   S    
C71   C134  S    
Cu9   Cu10  S    
Cu4   O20   S    
O74   H13   S    
C153  O49   D    
C44   F28   S    
C137  C145  S    
C6    C54   S    
C67   O35   A    
C128  C136  A    
C99   C115  A    
C23   F7    S    
C33   C49   A    
O64   H8    S    
C107  C163  S    
C174  O91   D    
C179  O102  S    
O60   H6    S    
C20   C60   A    
C2    O2    A    
Cu2   Cu4   S    
C29   F13   S    
C28   F12   S    
C66   C129  S    
C81   C89   T    
C183  O110  S    
O100  H26   S    
Cu5   Cu7   S    
C97   C153  S    
C167  O77   D    
C6    O14   A    
Cu6   Cu8   S    
C32   C48   A    
C17   C33   A    
C74   C82   S    
C11   C59   S    
C184  O112  S    
C175  O94   S    
C101  C139  A    
C124  C136  A    
O96   H24   S    
C77   O27   A    
Cu7   O27   S    
C78   O28   A    
Cu8   O28   S    
O90   H21   S    
C3    C51   S    
O92   H22   S    
C171  O85   D    
C118  C130  A    
C44   C56   A    
C114  C170  S    
O112  H32   S    
Cu12  O45   S    
C46   C54   A    
C109  C143  A    
C25   C61   A    
C27   C63   A    
C2    O6    A    
C28   C64   A    
Cu1   O17   S    
C69   C136  S    
C161  O66   S    
C67   C130  S    
C70   O42   A    
C111  C167  S    
C109  C165  S    
C113  C169  S    
O52   H2    S    
C24   C40   A    
C122  C178  S    
C65   O37   A    
C75   O23   A    
C127  C133  A    
Cu7   O15   S    
C99   C155  S    
C82   C90   T    
Cu9   O33   S    
Cu10  O39   S    
C101  C117  A    
C142  C150  S    
O106  H29   S    
C157  O58   S    
C42   C54   A    
C75   C83   S    
C178  O99   D    
C163  O69   D    
C43   F27   S    
C24   F8    S    
C9    C145  T    
C92   C93   S    
C1    O7    A    
C181  O105  D    
C112  C128  A    
O102  H27   S    
C20   C36   A    
C27   C43   A    
C21   C37   A    
C102  C158  S    
C155  O54   S    
C176  O95   D    
C98   C154  S    
Cu1   O5    S    
Cu2   O2    S    
C101  C157  S    
C17   C57   A    
C104  C120  A    
O98   H25   S    
C182  O107  D    
Cu11  Cu12  S    
C78   O26   A    
O108  H30   S    
C140  C148  S    
C141  C149  S    
C115  C131  A    
C177  O97   D    
C139  C147  S    
C113  C129  A    
C179  O101  D    
C4    C52   S    
C106  C162  S    
C5    C53   S    
C164  O71   D    
C105  C141  A    
C37   C51   A    
Cu12  O47   S    
C116  C172  S    
C102  C138  A    
C110  C142  A    
C100  C140  A    
C168  O80   S    
C72   O46   A    
O94   H23   S    
C4    O4    A    
C180  O104  S    
C7    O11   A    
C70   C133  S    
C86   C94   T    
C166  O75   D    
C102  C118  A    
C78   C86   S    
C42   F26   S    
Cu7   O11   S    
Cu8   O12   S    
C14   C150  T    
C75   O21   A    
C117  C173  S    
C162  O68   S    
Cu9   O35   S    
Cu10  O37   S    
C16   C152  T    
C163  O70   S    
C111  C141  A    
C170  O83   D    
C40   C52   A    
Cu11  O41   S    
C164  O72   S    
C26   F10   S    
C1    O1    A    
C24   C60   A    
C156  O55   D    
C105  C121  A    
Cu5   O13   S    
C112  C144  A    
C119  C175  S    
C18   C34   A    
C18   F2    S    
C33   F17   S    
C109  C125  A    
O80   H16   S    
C35   F19   S    
C159  O62   S    
O86   H19   S    
C111  C127  A    
C69   O45   A    
C97   C113  A    
O72   H12   S    
C76   O22   A    
Cu8   O30   S    
C48   C56   A    
C118  C174  S    
C120  C132  A    
C103  C119  A    
O66   H9    S    
C38   C50   A    
C154  O52   S    
C80   O30   A    
C48   F32   S    
C12   C148  T    
C30   C62   A    
C26   C62   A    
C13   C149  T    
C173  O90   S    
C41   F25   S    
Cu1   O21   S    
C23   C39   A    
Cu2   O18   S    
C172  O88   S    
C9    C57   S    
C100  C156  S    
Cu5   O25   S    
C12   C60   S    
Cu3   O7    S    
C13   C61   S    
O58   H5    S    
C15   C63   S    
C16   C64   S    
C121  C133  A    
C159  O61   D    
C1    C49   S    
C32   F16   S    
