data_mof_unit_16311.cif
_audit_creation_date              2012-10-26T20:03:41-0400
_audit_creation_method            fapswitch 2.2
_symmetry_space_group_name_H-M    P1
_symmetry_Int_Tables_number       1
_space_group_crystal_system       triclinic
_cell_length_a                    12.325504
_cell_length_b                    13.213273
_cell_length_c                    15.852143
_cell_angle_alpha                 77.890958
_cell_angle_beta                  101.119142
_cell_angle_gamma                 116.496886
_cell_volume                      2244.5108037

loop_
_atom_site_label
_atom_site_type_symbol
_atom_type_description
_atom_site_fract_x
_atom_site_fract_y
_atom_site_fract_z
_atom_type_partial_charge
C1    C     C_R   0.854601 0.286618 0.508676 0.538904
C2    C     C_R   0.227044 0.834628 0.476138 -0.009054
C3    C     C_R   0.811842 0.090256 0.579970 -0.184771
C4    C     C_R   0.999479 0.499785 0.659919 0.547834
C5    C     C_R   0.728839 0.986270 0.617231 -0.072491
C6    C     C_R   0.603871 0.954752 0.597412 0.234779
C7    C     C_R   0.559941 0.019067 0.526607 0.017271
C8    C     C_R   0.645450 0.125808 0.488993 -0.004962
C9    C     C_R   0.434862 0.982258 0.492085 0.016564
C10   C     C_R   0.394900 0.059198 0.433468 0.049252
C11   C     C_R   0.480131 0.163622 0.398230 -0.133539
C12   C     C_3   0.999708 0.499991 0.916863 0.002430
C13   C     C_R   0.603517 0.192322 0.420756 -0.109726
C14   C     C_R   0.350293 0.868352 0.507407 -0.144918
C15   C     C_R   0.186294 0.915365 0.428117 -0.133524
C16   C     C_R   0.144973 0.713198 0.488062 0.545802
C17   C     C_R   0.770844 0.164556 0.521455 -0.013541
C18   C     C_R   0.345349 0.327307 0.636510 -0.144521
C19   C     C_R   0.759923 0.645491 0.383690 0.052412
C20   C     C_R   0.663348 0.676850 0.358085 -0.158414
C21   C     C_R   0.559555 0.621706 0.401628 -0.131565
C22   C     C_R   0.551201 0.534061 0.471901 -0.001896
C23   C     C_3   0.114227 0.530112 0.038668 0.017342
C24   C     C_R   0.652741 0.504935 0.495845 0.181025
C25   C     C_R   0.446645 0.474583 0.519383 -0.007361
C26   C     C_R   0.445763 0.387115 0.588930 0.038066
C27   C     C_R   0.545326 0.360123 0.611117 -0.169491
C28   C     C_R   0.000475 0.500151 0.340089 0.546887
C29   C     C_R   0.646687 0.418221 0.566114 -0.092130
C30   C     C_R   0.342195 0.497811 0.501437 0.052369
C31   C     C_R   0.245931 0.354413 0.615630 0.048239
C32   C     C_3   0.929804 0.398523 0.034812 0.260416
C33   C     C_3   0.885488 0.471052 0.960011 -0.097814
C34   C     C_3   0.001851 0.501595 0.083051 0.082679
C35   C     C_1   0.998831 0.499854 0.749530 -0.027204
C36   C     C_1   0.001278 0.500333 0.250475 -0.024324
C37   C     C_3   0.041998 0.424335 0.990828 -0.080642
C38   C     C_3   0.243362 0.564115 0.085515 -0.282334
C39   C     C_3   0.334626 0.587031 0.023385 -0.432405
C40   C     C_3   0.073736 0.606065 0.963495 -0.104153
C41   C     C_3   0.959822 0.576658 0.008597 -0.144670
C42   C     C_1   0.998939 0.499891 0.825117 -0.059244
C43   C     C_1   0.001583 0.500768 0.174878 -0.023381
C44   C     C_R   0.270456 0.026886 0.405224 -0.129015
Cu1   Cu    Cu3+1 0.098270 0.475420 0.519690 0.943350
Cu2   Cu    Cu3+1 0.901730 0.524580 0.480310 0.922702
H1    H     H_    0.790944 0.444947 0.927021 0.114036
H2    H     H_    0.840141 0.688770 0.349536 0.125813
H3    H     H_    0.487559 0.649382 0.378953 0.100002
H4    H     H_    0.668935 0.744103 0.304279 0.105763
H5    H     H_    0.718632 0.392273 0.589323 0.183036
H6    H     H_    0.926629 0.639026 0.017007 0.111906
H7    H     H_    0.133751 0.692013 0.932686 0.115460
H8    H     H_    0.074256 0.361045 0.982978 0.103975
H9    H     H_    0.091063 0.890598 0.403236 0.126694
H10   H     H_    0.451569 0.220112 0.348930 0.111034
H11   H     H_    0.239034 0.086390 0.362442 0.111735
H12   H     H_    0.380607 0.803313 0.539131 0.184704
H13   H     H_    0.465199 0.889596 0.661982 0.320371
H14   H     H_    0.820453 0.241760 0.027464 0.315564
H15   H     H_    0.310155 0.509178 0.994128 0.155238
H16   H     H_    0.336197 0.657949 0.970902 0.158333
H17   H     H_    0.427314 0.611498 0.059472 0.141567
H18   H     H_    0.270330 0.642253 0.115141 0.143250
H19   H     H_    0.244348 0.494147 0.138172 0.151083
H20   H     H_    0.907654 0.117166 0.603858 0.129232
H21   H     H_    0.761919 0.935089 0.668584 0.146516
H22   H     H_    0.665254 0.267372 0.383398 0.156635
H23   H     H_    0.168016 0.308583 0.652041 0.118897
H24   H     H_    0.545425 0.293642 0.664500 0.110212
H25   H     H_    0.343935 0.260199 0.689660 0.092305
H26   H     H_    0.334873 0.562737 0.449846 0.117908
N1    N     N_R   0.246280 0.438200 0.549540 -0.231687
N2    N     N_R   0.754330 0.561180 0.450980 -0.235839
O1    O     O_R   0.972510 0.318130 0.524770 -0.500824
O2    O     O_3   0.854588 0.290616 0.074276 -0.695972
O3    O     O_R   0.806530 0.359650 0.491510 -0.530025
O4    O     O_R   0.082970 0.479240 0.637550 -0.491794
O5    O     O_R   0.916990 0.520750 0.604290 -0.512276
O6    O     O_R   0.193470 0.640350 0.508490 -0.506760
O7    O     O_R   0.027490 0.681870 0.475230 -0.504623
O8    O     O_R   0.083010 0.479250 0.395710 -0.498885
O9    O     O_R   0.917030 0.520760 0.362450 -0.505651
O10   O     O_3   0.530233 0.868638 0.654366 -0.718165

loop_
_geom_bond_atom_site_label_1
_geom_bond_atom_site_label_2
_ccdc_geom_bond_type
C8    C13   A    
C27   C29   A    
C1    O3    A    
C19   C20   A    
C18   C26   A    
C5    H21   S    
C21   H3    S    
C7    C8    A    
Cu1   Cu2   S    
C26   C27   A    
C15   C44   A    
C5    C6    A    
C31   N1    A    
C23   C40   S    
C25   C30   A    
Cu1   N1    S    
C12   C37   S    
C35   C42   T    
C24   C29   A    
C20   H4    S    
Cu2   O5    S    
Cu1   O8    S    
C22   C25   A    
C12   C42   S    
Cu1   O4    S    
C2    C16   S    
C9    C10   A    
C41   H6    S    
C4    C35   S    
C21   C22   A    
C28   O9    A    
C34   C41   S    
C14   H12   S    
C38   H18   S    
C39   H15   S    
C6    O10   S    
C28   O8    A    
C1    O1    A    
H13   O10   S    
C4    O5    A    
C30   N1    A    
C19   H2    S    
C25   C26   A    
C23   C37   S    
C10   C44   A    
H14   O2    S    
C16   O6    A    
C15   H9    S    
C12   C40   S    
C9    C14   A    
C4    O4    A    
Cu2   O7    S    
C38   H19   S    
C44   H11   S    
C23   C34   S    
C32   C37   S    
C2    C15   A    
C27   H24   S    
C37   H8    S    
C40   C41   S    
C33   H1    S    
C22   C24   A    
C3    H20   S    
Cu2   N2    S    
C29   H5    S    
C18   H25   S    
C7    C9    A    
C39   H16   S    
C19   N2    A    
C34   C43   S    
C3    C5    A    
C32   O2    S    
Cu2   O3    S    
C30   H26   S    
C6    C7    A    
C23   C38   S    
C39   H17   S    
C1    C17   S    
C8    C17   A    
Cu1   O1    S    
C33   C41   S    
C32   C33   S    
C11   C13   A    
C24   N2    A    
C38   C39   S    
C16   O7    A    
C3    C17   A    
Cu1   O6    S    
C2    C14   A    
C10   C11   A    
Cu2   O9    S    
C31   H23   S    
C20   C21   A    
C28   C36   S    
C40   H7    S    
C36   C43   T    
C18   C31   A    
C12   C33   S    
C11   H10   S    
C32   C34   S    
C13   H22   S    
