data_mof_unit_31745.cif
_audit_creation_date              2012-12-11T16:26:16-0500
_audit_creation_method            fapswitch 2.2
_symmetry_space_group_name_H-M    P1
_symmetry_Int_Tables_number       1
_space_group_crystal_system       triclinic
_cell_length_a                    14.004713
_cell_length_b                    14.00471
_cell_length_c                    31.964367
_cell_angle_alpha                 90.0
_cell_angle_beta                  89.999976
_cell_angle_gamma                 120.000254
_cell_volume                      5429.30152919

loop_
_atom_site_label
_atom_site_type_symbol
_atom_type_description
_atom_site_fract_x
_atom_site_fract_y
_atom_site_fract_z
_atom_type_partial_charge
C1    C     C_R   0.567575 0.444140 0.810383 0.517188
C2    C     C_R   0.876565 0.432425 0.689617 0.517186
C3    C     C_R   0.555860 0.123435 0.810383 0.517188
C4    C     C_R   0.567575 0.444140 0.689617 0.517188
C5    C     C_R   0.876565 0.432425 0.810383 0.517186
C6    C     C_R   0.555860 0.123435 0.689617 0.517185
C7    C     C_R   0.444140 0.567575 0.310383 0.517188
C8    C     C_R   0.432425 0.876565 0.189617 0.517186
C9    C     C_R   0.123435 0.555860 0.310383 0.517187
C10   C     C_R   0.444140 0.567575 0.189617 0.517188
C11   C     C_R   0.432425 0.876565 0.310383 0.517186
C12   C     C_R   0.123435 0.555860 0.189617 0.517185
C13   C     C_1   0.006832 0.541027 0.018582 0.182649
C14   C     C_1   0.534196 0.993169 0.481418 0.182648
C15   C     C_1   0.458972 0.465805 0.018582 0.182649
C16   C     C_1   0.006830 0.541026 0.481418 0.182648
C17   C     C_1   0.534195 0.993168 0.018582 0.182649
C18   C     C_1   0.458973 0.465804 0.481418 0.182648
C19   C     C_1   0.541026 0.006831 0.518582 0.182649
C20   C     C_1   0.993170 0.534196 0.981418 0.182648
C21   C     C_1   0.465804 0.458973 0.518582 0.182649
C22   C     C_1   0.541025 0.006829 0.981418 0.182648
C23   C     C_1   0.993169 0.534196 0.518582 0.182648
C24   C     C_1   0.465803 0.458974 0.981418 0.182648
C25   C     C_R   0.926967 0.467702 0.852155 -0.084119
C26   C     C_R   0.540735 0.073034 0.647845 -0.084118
C27   C     C_R   0.532298 0.459265 0.852155 -0.084119
C28   C     C_R   0.926967 0.467702 0.647845 -0.084119
C29   C     C_R   0.540734 0.073033 0.852155 -0.084118
C30   C     C_R   0.532299 0.459265 0.647845 -0.084119
C31   C     C_R   0.467702 0.926966 0.352155 -0.084119
C32   C     C_R   0.073034 0.540735 0.147845 -0.084118
C33   C     C_R   0.459265 0.532298 0.352155 -0.084119
C34   C     C_R   0.467701 0.926966 0.147845 -0.084119
C35   C     C_R   0.073033 0.540734 0.352155 -0.084119
C36   C     C_R   0.459265 0.532299 0.147845 -0.084119
C37   C     C_R   0.982410 0.579658 0.865181 -0.053184
C38   C     C_R   0.597242 0.017586 0.634819 -0.053184
C39   C     C_R   0.420342 0.402753 0.865181 -0.053184
C40   C     C_R   0.982411 0.579657 0.634819 -0.053184
C41   C     C_R   0.597246 0.017588 0.865181 -0.053185
C42   C     C_R   0.420343 0.402753 0.634819 -0.053185
C43   C     C_R   0.579657 0.982410 0.365181 -0.053184
C44   C     C_R   0.017587 0.597243 0.134819 -0.053184
C45   C     C_R   0.402753 0.420342 0.365181 -0.053185
C46   C     C_R   0.579657 0.982410 0.134819 -0.053185
C47   C     C_R   0.017589 0.597245 0.365181 -0.053184
C48   C     C_R   0.402753 0.420343 0.134819 -0.053185
C49   C     C_R   0.008381 0.605054 0.908324 -0.033059
C50   C     C_R   0.596668 0.991615 0.591676 -0.033058
C51   C     C_R   0.394945 0.403327 0.908324 -0.033059
C52   C     C_R   0.008381 0.605054 0.591676 -0.033059
C53   C     C_R   0.596671 0.991617 0.908324 -0.033059
C54   C     C_R   0.394946 0.403327 0.591676 -0.033059
C55   C     C_R   0.605054 0.008381 0.408324 -0.033059
C56   C     C_R   0.991616 0.596669 0.091676 -0.033058
C57   C     C_R   0.403327 0.394946 0.408324 -0.033059
C58   C     C_R   0.605053 0.008381 0.091676 -0.033058
C59   C     C_R   0.991618 0.596672 0.408324 -0.033059
C60   C     C_R   0.403326 0.394946 0.091676 -0.033059
C61   C     C_R   0.974869 0.517160 0.937228 0.022355
C62   C     C_R   0.542291 0.025132 0.562772 0.022356
C63   C     C_R   0.482840 0.457710 0.937227 0.022354
C64   C     C_R   0.974868 0.517159 0.562772 0.022354
C65   C     C_R   0.542289 0.025130 0.937227 0.022354
C66   C     C_R   0.482841 0.457709 0.562772 0.022355
C67   C     C_R   0.517159 0.974868 0.437228 0.022355
C68   C     C_R   0.025133 0.542291 0.062772 0.022356
C69   C     C_R   0.457709 0.482840 0.437228 0.022355
C70   C     C_R   0.517159 0.974867 0.062772 0.022356
C71   C     C_R   0.025131 0.542291 0.437227 0.022355
C72   C     C_R   0.457708 0.482841 0.062772 0.022356
C73   C     C_R   0.924800 0.408195 0.923362 0.380428
C74   C     C_R   0.483400 0.075207 0.576637 0.380429
C75   C     C_R   0.591805 0.516606 0.923362 0.380427
C76   C     C_R   0.924799 0.408194 0.576637 0.380428
C77   C     C_R   0.483393 0.075199 0.923362 0.380427
C78   C     C_R   0.591806 0.516605 0.576637 0.380429
C79   C     C_R   0.408194 0.924799 0.423362 0.380428
C80   C     C_R   0.075206 0.483400 0.076637 0.380429
C81   C     C_R   0.516605 0.591805 0.423362 0.380428
C82   C     C_R   0.408194 0.924797 0.076637 0.380428
C83   C     C_R   0.075201 0.483395 0.423362 0.380428
C84   C     C_R   0.516604 0.591806 0.076637 0.380430
C85   C     C_R   0.902443 0.384021 0.881372 -0.084968
C86   C     C_R   0.481583 0.097563 0.618628 -0.084966
C87   C     C_R   0.615979 0.518423 0.881372 -0.084968
C88   C     C_R   0.902442 0.384021 0.618628 -0.084969
C89   C     C_R   0.481577 0.097556 0.881372 -0.084968
C90   C     C_R   0.615979 0.518422 0.618628 -0.084967
C91   C     C_R   0.384021 0.902443 0.381372 -0.084968
C92   C     C_R   0.097563 0.481582 0.118628 -0.084966
C93   C     C_R   0.518422 0.615979 0.381372 -0.084968
C94   C     C_R   0.384020 0.902441 0.118628 -0.084968
C95   C     C_R   0.097557 0.481578 0.381372 -0.084968
C96   C     C_R   0.518422 0.615980 0.118628 -0.084967
Cr1   Cr    Cr6+3 0.504240 0.249200 0.750000 1.082755
Cr2   Cr    Cr6+3 0.744960 0.495760 0.750000 1.082757
Cr3   Cr    Cr6+3 0.750800 0.255040 0.750000 1.082756
Cr4   Cr    Cr6+3 0.249200 0.504240 0.250000 1.082756
Cr5   Cr    Cr6+3 0.495760 0.744960 0.250000 1.082757
Cr6   Cr    Cr6+3 0.255040 0.750800 0.250000 1.082755
H1    H     H_    0.140890 0.438926 0.127887 0.192817
H2    H     H_    0.298036 0.859118 0.372112 0.192819
H3    H     H_    0.561081 0.701964 0.127887 0.192819
H4    H     H_    0.140882 0.438919 0.372113 0.192818
H5    H     H_    0.298036 0.859116 0.127887 0.192817
H6    H     H_    0.561082 0.701963 0.372112 0.192819
H7    H     H_    0.438927 0.140891 0.627887 0.192816
H8    H     H_    0.859119 0.298037 0.872112 0.192819
H9    H     H_    0.701964 0.561082 0.627888 0.192819
H10   H     H_    0.438917 0.140880 0.872112 0.192819
H11   H     H_    0.859118 0.298036 0.627888 0.192817
H12   H     H_    0.701963 0.561083 0.872112 0.192819
O1    O     O_R   0.480350 0.140770 0.796330 -0.491083
O2    O     O_R   0.660420 0.519650 0.703670 -0.491082
O3    O     O_R   0.859230 0.339580 0.796330 -0.491082
O4    O     O_R   0.480350 0.140770 0.703670 -0.491082
O5    O     O_R   0.660420 0.519650 0.796330 -0.491082
O6    O     O_R   0.859230 0.339580 0.703670 -0.491082
O7    O     O_R   0.140770 0.480350 0.296330 -0.491082
O8    O     O_R   0.519650 0.660420 0.203670 -0.491082
O9    O     O_R   0.339580 0.859230 0.296330 -0.491082
O10   O     O_R   0.140770 0.480350 0.203670 -0.491082
O11   O     O_R   0.519650 0.660420 0.296330 -0.491082
O12   O     O_R   0.339580 0.859230 0.203670 -0.491083
O13   O     O_R   0.514930 0.348530 0.793250 -0.492729
O14   O     O_R   0.833600 0.485070 0.706750 -0.492730
O15   O     O_R   0.651470 0.166400 0.793250 -0.492729
O16   O     O_R   0.514930 0.348530 0.706750 -0.492730
O17   O     O_R   0.833600 0.485070 0.793250 -0.492730
O18   O     O_R   0.651470 0.166400 0.706750 -0.492729
O19   O     O_R   0.348530 0.514930 0.293250 -0.492730
O20   O     O_R   0.485070 0.833600 0.206750 -0.492730
O21   O     O_R   0.166400 0.651470 0.293250 -0.492730
O22   O     O_R   0.348530 0.514930 0.206750 -0.492730
O23   O     O_R   0.485070 0.833600 0.293250 -0.492730
O24   O     O_R   0.166400 0.651470 0.206750 -0.492729
O25   O     O_3   0.666667 0.333333 0.750000 -0.254222
O26   O     O_3   0.333333 0.666667 0.250000 -0.254222
C97   C     C_2   0.011200 0.667662 0.833422 0.240307
H13   H     H_    0.033269 0.657004 0.801914 0.105936
O27   O     O_2   0.005815 0.750080 0.841427 -0.451289
C98   C     C_2   0.656451 0.988791 0.666578 0.240306
H14   H     H_    0.623724 0.966726 0.698087 0.105935
O28   O     O_2   0.744252 0.994170 0.658575 -0.451290
C99   C     C_2   0.332338 0.343539 0.833422 0.240307
H15   H     H_    0.342997 0.376265 0.801914 0.105936
O29   O     O_2   0.249919 0.255735 0.841426 -0.451289
C100  C     C_2   0.011201 0.667662 0.666578 0.240307
H16   H     H_    0.033270 0.657003 0.698086 0.105935
O30   O     O_2   0.005816 0.750080 0.658573 -0.451288
C101  C     C_2   0.656460 0.988799 0.833422 0.240306
H17   H     H_    0.623733 0.966730 0.801914 0.105935
O31   O     O_2   0.744265 0.994186 0.841426 -0.451287
C102  C     C_2   0.332338 0.343539 0.666578 0.240307
H18   H     H_    0.342997 0.376265 0.698086 0.105936
O32   O     O_2   0.249919 0.255735 0.658574 -0.451289
C103  C     C_2   0.667661 0.011201 0.333422 0.240307
H19   H     H_    0.657004 0.033269 0.301914 0.105936
O33   O     O_2   0.750080 0.005815 0.341427 -0.451289
C104  C     C_2   0.988793 0.656452 0.166578 0.240306
H20   H     H_    0.966727 0.623726 0.198086 0.105935
O34   O     O_2   0.994172 0.744254 0.158574 -0.451290
C105  C     C_2   0.343539 0.332338 0.333422 0.240307
H21   H     H_    0.376265 0.342997 0.301914 0.105936
O35   O     O_2   0.255734 0.249919 0.341426 -0.451289
C106  C     C_2   0.667661 0.011201 0.166577 0.240306
H22   H     H_    0.657003 0.033270 0.198085 0.105936
O36   O     O_2   0.750080 0.005817 0.158573 -0.451288
C107  C     C_2   0.988798 0.656458 0.333422 0.240307
H23   H     H_    0.966730 0.623732 0.301914 0.105936
O37   O     O_2   0.994182 0.744262 0.341426 -0.451289
C108  C     C_2   0.343539 0.332339 0.166578 0.240307
H24   H     H_    0.376266 0.342997 0.198085 0.105936
O38   O     O_2   0.255735 0.249919 0.158573 -0.451289
C109  C     C_2   0.925665 0.647648 0.077597 0.327723
H25   H     H_    0.867290 0.651904 0.098705 0.154800
O39   O     O_2   0.935865 0.686008 0.042513 -0.370612
C110  C     C_2   0.721985 0.074328 0.422404 0.327725
H26   H     H_    0.784619 0.132700 0.401296 0.154802
O40   O     O_2   0.750143 0.064126 0.457488 -0.370611
C111  C     C_2   0.352342 0.278015 0.077596 0.327725
H27   H     H_    0.348081 0.215382 0.098704 0.154802
O41   O     O_2   0.313982 0.249857 0.042512 -0.370610
C112  C     C_2   0.925670 0.647655 0.422403 0.327724
H28   H     H_    0.867298 0.651915 0.401296 0.154802
O42   O     O_2   0.935871 0.686014 0.457488 -0.370610
C113  C     C_2   0.721984 0.074329 0.077596 0.327724
H29   H     H_    0.784618 0.132701 0.098704 0.154802
O43   O     O_2   0.750142 0.064129 0.042512 -0.370612
C114  C     C_2   0.352343 0.278014 0.422403 0.327725
H30   H     H_    0.348081 0.215381 0.401296 0.154802
O44   O     O_2   0.313984 0.249856 0.457488 -0.370610
C115  C     C_2   0.647646 0.925663 0.577597 0.327723
H31   H     H_    0.651902 0.867288 0.598705 0.154800
O45   O     O_2   0.686007 0.935863 0.542513 -0.370612
C116  C     C_2   0.074328 0.721985 0.922404 0.327725
H32   H     H_    0.132700 0.784619 0.901296 0.154803
O46   O     O_2   0.064127 0.750143 0.957488 -0.370611
C117  C     C_2   0.278015 0.352343 0.577596 0.327724
H33   H     H_    0.215382 0.348082 0.598704 0.154802
O47   O     O_2   0.249857 0.313983 0.542512 -0.370610
C118  C     C_2   0.647654 0.925669 0.922403 0.327724
H34   H     H_    0.651917 0.867299 0.901295 0.154802
O48   O     O_2   0.686011 0.935868 0.957488 -0.370612
C119  C     C_2   0.074329 0.721985 0.577596 0.327724
H35   H     H_    0.132701 0.784619 0.598704 0.154801
O49   O     O_2   0.064128 0.750143 0.542512 -0.370611
C120  C     C_2   0.278014 0.352344 0.922403 0.327726
H36   H     H_    0.215381 0.348082 0.901295 0.154802
O50   O     O_2   0.249856 0.313985 0.957488 -0.370610
F1    F     F_    0.104918 0.428904 0.049100 -0.562174
F2    F     F_    0.323987 0.895092 0.450899 -0.562173
F3    F     F_    0.571104 0.676014 0.049101 -0.562169
F4    F     F_    0.104908 0.428895 0.450899 -0.562172
F5    F     F_    0.323986 0.895089 0.049101 -0.562172
F6    F     F_    0.571106 0.676013 0.450899 -0.562169
F7    F     F_    0.428905 0.104919 0.549100 -0.562175
F8    F     F_    0.895093 0.323987 0.950899 -0.562172
F9    F     F_    0.676014 0.571106 0.549101 -0.562169
F10   F     F_    0.428893 0.104906 0.950899 -0.562171
F11   F     F_    0.895092 0.323987 0.549101 -0.562172
F12   F     F_    0.676012 0.571107 0.950899 -0.562169

loop_
_geom_bond_atom_site_label_1
_geom_bond_atom_site_label_2
_ccdc_geom_bond_type
C68   C80   A    
C39   C51   A    
C96   H3    S    
C105  H21   S    
C82   C94   A    
C21   C66   S    
C52   C119  S    
C33   C45   A    
C55   C110  S    
C31   C43   A    
C99   H15   S    
C91   H2    S    
Cr1   O13   S    
C35   C47   A    
C29   C89   A    
C83   F4    S    
C4    C30   S    
Cr2   O5    S    
C32   C92   A    
Cr5   O20   S    
C78   C90   A    
C15   C72   S    
C107  O37   D    
C89   H10   S    
C45   C57   A    
C54   C66   A    
C37   C97   S    
Cr3   O18   S    
C71   C83   A    
C102  H18   S    
C99   O29   D    
C10   O22   A    
Cr1   O16   S    
C7    O19   A    
C43   C103  S    
C111  O41   D    
C93   H6    S    
Cr6   O24   S    
C60   C72   A    
C19   C62   S    
C18   C21   T    
C88   H11   S    
C37   C49   A    
C59   C71   A    
C59   C112  S    
C113  O43   D    
Cr4   O7    S    
C117  H33   S    
C43   C55   A    
C20   C61   S    
C3    C29   S    
C44   C56   A    
C108  H24   S    
C87   H12   S    
Cr4   O26   S    
C92   H1    S    
C25   C37   A    
Cr3   O6    S    
Cr6   O21   S    
Cr2   O2    S    
C15   C24   T    
C79   F2    S    
C27   C39   A    
C109  O39   D    
Cr2   O17   S    
C28   C88   A    
C9    O7    A    
C14   C67   S    
C103  O33   D    
C116  H32   S    
C34   C46   A    
Cr1   O1    S    
C53   C65   A    
C76   C88   A    
C41   C101  S    
C84   F3    S    
C30   C90   A    
C49   C116  S    
C60   C111  S    
Cr2   O14   S    
C112  H28   S    
C11   C31   S    
C17   C70   S    
C77   F10   S    
C46   C58   A    
Cr5   O8    S    
C38   C98   S    
C117  O47   D    
Cr3   O25   S    
C16   C71   S    
C44   C104  S    
C90   H9    S    
Cr5   O26   S    
C110  O40   D    
C48   C60   A    
C104  O34   D    
C56   C109  S    
C76   F11   S    
C32   C44   A    
C66   C78   A    
C11   O9    A    
C94   H5    S    
C72   C84   A    
C53   C118  S    
C49   C61   A    
C7    C33   S    
C8    O20   A    
C119  H35   S    
C1    O13   A    
C86   H7    S    
C67   C79   A    
C57   C114  S    
C98   O28   D    
C85   H8    S    
C52   C64   A    
Cr3   O15   S    
C2    C28   S    
C58   C70   A    
C4    O16   A    
C6    O18   A    
C61   C73   A    
C40   C52   A    
C7    O11   A    
C73   F8    S    
C5    O3    A    
Cr4   O10   S    
C97   O27   D    
C114  O44   D    
C80   C92   A    
C42   C102  S    
C111  H27   S    
C3    O1    A    
C22   C65   S    
C1    O5    A    
C95   H4    S    
Cr3   O3    S    
C65   C77   A    
C81   C93   A    
C50   C115  S    
C36   C96   A    
C47   C107  S    
C103  H19   S    
C12   O10   A    
C26   C86   A    
C62   C74   A    
C83   C95   A    
C58   C113  S    
C25   C85   A    
C64   C76   A    
C40   C100  S    
C8    C34   S    
C74   C86   A    
C27   C87   A    
C107  H23   S    
C41   C53   A    
Cr1   O4    S    
C46   C106  S    
C109  H25   S    
C48   C108  S    
C5    C25   S    
C9    O21   A    
C75   C87   A    
C106  H22   S    
C118  O48   D    
C75   F12   S    
Cr6   O26   S    
C24   C63   S    
C31   C91   A    
C50   C62   A    
C100  O30   D    
C101  O31   D    
C112  O42   D    
Cr6   O9    S    
C84   C96   A    
Cr4   O19   S    
C9    C35   S    
C104  H20   S    
C73   C85   A    
C8    O12   A    
C51   C63   A    
C23   C64   S    
Cr5   O23   S    
C13   C20   T    
C29   C41   A    
C3    O15   A    
C77   C89   A    
C79   C91   A    
C14   C19   T    
C4    O2    A    
C26   C38   A    
C34   C94   A    
C119  O49   D    
C98   H14   S    
Cr6   O12   S    
C33   C93   A    
C55   C67   A    
C80   F1    S    
C38   C50   A    
C35   C95   A    
C16   C23   T    
C54   C117  S    
C120  O50   D    
C17   C22   T    
Cr2   O25   S    
C57   C69   A    
C114  H30   S    
C102  O32   D    
C11   O23   A    
C56   C68   A    
C97   H13   S    
C42   C54   A    
C51   C120  S    
C6    C26   S    
C82   F5    S    
C63   C75   A    
C18   C69   S    
C81   F6    S    
C74   F7    S    
C106  O36   D    
C10   C36   S    
C36   C48   A    
C12   O24   A    
C113  H29   S    
C70   C82   A    
C108  O38   D    
C69   C81   A    
C78   F9    S    
C47   C59   A    
C115  H31   S    
C10   O8    A    
C5    O17   A    
C118  H34   S    
C105  O35   D    
C120  H36   S    
C39   C99   S    
C1    C27   S    
C28   C40   A    
C100  H16   S    
C30   C42   A    
C116  O46   D    
C2    O6    A    
C101  H17   S    
C45   C105  S    
Cr5   O11   S    
Cr1   O25   S    
C12   C32   S    
C110  H26   S    
Cr4   O22   S    
C6    O4    A    
C115  O45   D    
C13   C68   S    
C2    O14   A    
