data_mof_unit_66570.cif
_audit_creation_date              2012-12-11T15:08:40-0500
_audit_creation_method            fapswitch 2.2
_symmetry_space_group_name_H-M    P1
_symmetry_Int_Tables_number       1
_space_group_crystal_system       triclinic
_cell_length_a                    27.120522
_cell_length_b                    7.101173
_cell_length_c                    12.159063
_cell_angle_alpha                 89.981411
_cell_angle_beta                  104.133197
_cell_angle_gamma                 90.213868
_cell_volume                      2270.78641347

loop_
_atom_site_label
_atom_site_type_symbol
_atom_type_description
_atom_site_fract_x
_atom_site_fract_y
_atom_site_fract_z
_atom_type_partial_charge
O1    O     O_R   0.437360 0.505910 0.042120 -0.537248
O2    O     O_R   0.562640 0.005910 0.957880 -0.539351
O3    O     O_R   0.542480 0.176660 0.157100 -0.536519
O4    O     O_R   0.457520 0.676660 0.842900 -0.532214
C1    C     C_R   0.555595 0.344734 0.198073 0.697286
C2    C     C_R   0.443937 0.844281 0.802320 0.695024
O5    O     O_R   0.436520 0.176250 0.054800 -0.546700
O6    O     O_R   0.563480 0.676250 0.945200 -0.542336
O7    O     O_R   0.455920 0.005040 0.854840 -0.542411
O8    O     O_R   0.544080 0.505040 0.145160 -0.534932
C3    C     C_R   0.417742 0.344422 0.061980 0.699270
C4    C     C_R   0.582437 0.845091 0.938906 0.710544
O9    O     O_3   0.506490 0.338900 0.934520 -0.370783
O10   O     O_3   0.493510 0.838900 0.065480 -0.370713
V1    V     V_3+5 0.498800 0.064400 0.012150 1.510608
V2    V     V_3+5 0.501200 0.564400 0.987850 1.526616
C5    C     C_R   0.679195 0.903311 0.771590 -0.028075
C6    C     C_R   0.319857 0.376868 0.228257 -0.028767
H1    H     H_    0.597983 0.887246 0.736563 0.120119
H2    H     H_    0.400645 0.341395 0.264794 0.119186
C7    C     C_R   0.632370 0.856082 0.913205 -0.072023
C8    C     C_R   0.367529 0.352240 0.086553 -0.070585
C9    C     C_R   0.871790 0.804664 0.208218 -0.061569
C10   C     C_R   0.127363 0.306016 0.789534 -0.064354
C11   C     C_R   0.828165 0.815507 0.248908 -0.041412
C12   C     C_R   0.171437 0.298351 0.750552 -0.036801
C13   C     C_R   0.781139 0.852780 0.175049 -0.185136
C14   C     C_R   0.219022 0.315246 0.825867 -0.162624
C15   C     C_R   0.775127 0.866890 0.056161 0.057093
C16   C     C_R   0.224881 0.357661 0.942380 0.060461
C17   C     C_R   0.820895 0.882880 0.018741 -0.007356
C18   C     C_R   0.179065 0.383783 0.978701 -0.011239
C19   C     C_R   0.726317 0.872865 0.973702 -0.039285
C20   C     C_R   0.273663 0.370209 0.024790 -0.034258
C21   C     C_R   0.725947 0.907382 0.856690 -0.029806
C22   C     C_R   0.273657 0.394085 0.142423 -0.026939
C23   C     C_R   0.771962 0.945330 0.826235 0.450758
C24   C     C_R   0.227922 0.437621 0.172381 0.441435
C25   C     C_R   0.818228 0.930903 0.906209 -0.256530
C26   C     C_R   0.181941 0.434463 0.090896 -0.252732
C27   C     C_R   0.677701 0.841645 0.999327 -0.069133
C28   C     C_R   0.322727 0.361788 0.998535 -0.098326
C29   C     C_R   0.633487 0.884085 0.801556 -0.221455
C30   C     C_R   0.365601 0.353492 0.198963 -0.216304
C31   C     C_R   0.869097 0.854328 0.095442 -0.075328
C32   C     C_R   0.130577 0.356615 0.902406 -0.073764
H3    H     H_    0.751185 0.879768 0.215545 0.188529
H4    H     H_    0.249754 0.285869 0.788607 0.141841
H5    H     H_    0.852551 0.962087 0.879393 0.148452
H6    H     H_    0.147911 0.472436 0.116819 0.155018
C33   C     C_R   0.094196 0.866218 0.306224 -0.133075
C34   C     C_R   0.905881 0.367256 0.693704 -0.134248
C35   C     C_R   0.410112 0.849835 0.688760 -0.059066
C36   C     C_R   0.589555 0.352039 0.311388 -0.063718
C37   C     C_R   0.108201 0.862592 0.508558 -0.091011
C38   C     C_R   0.892116 0.372763 0.491497 -0.091048
C39   C     C_R   0.075797 0.880965 0.402547 -0.190583
C40   C     C_R   0.924407 0.387472 0.597838 -0.191324
C41   C     C_R   0.147272 0.857296 0.315055 0.397417
C42   C     C_R   0.852738 0.360767 0.684406 0.398220
C43   C     C_R   0.182028 0.857038 0.425835 0.005032
C44   C     C_R   0.818155 0.363685 0.573379 0.002770
C45   C     C_R   0.161137 0.844072 0.522317 -0.019673
C46   C     C_R   0.839175 0.352991 0.477194 -0.020920
C47   C     C_R   0.236404 0.866341 0.444490 0.032266
C48   C     C_R   0.763828 0.374049 0.554287 0.034449
C49   C     C_R   0.268732 0.840038 0.555846 -0.041632
C50   C     C_R   0.731408 0.345081 0.443057 -0.035466
C51   C     C_R   0.246130 0.800920 0.648115 0.398577
C52   C     C_R   0.754316 0.306436 0.350952 0.394655
C53   C     C_R   0.192784 0.812260 0.631318 -0.128827
C54   C     C_R   0.807723 0.320574 0.368128 -0.126808
C55   C     C_R   0.259859 0.906565 0.355453 -0.037717
C56   C     C_R   0.740755 0.419623 0.642937 -0.040455
C57   C     C_R   0.311449 0.885480 0.367109 -0.193461
C58   C     C_R   0.689033 0.406321 0.631292 -0.199464
C59   C     C_R   0.343804 0.852574 0.473104 0.089641
C60   C     C_R   0.656351 0.370064 0.526082 0.091789
C61   C     C_R   0.323085 0.849360 0.569904 0.125902
C62   C     C_R   0.676939 0.354495 0.429236 0.123569
C63   C     C_R   0.396967 0.835385 0.485435 -0.019725
C64   C     C_R   0.603032 0.360376 0.514645 -0.017105
C65   C     C_R   0.429518 0.827916 0.593607 -0.188016
C66   C     C_R   0.570157 0.346817 0.407138 -0.188377
C67   C     C_R   0.357846 0.866375 0.676644 -0.112837
C68   C     C_R   0.641837 0.359813 0.322439 -0.107669
H7    H     H_    0.345766 0.901119 0.751482 0.137091
H8    H     H_    0.653243 0.380137 0.245517 0.161636
H9    H     H_    0.470156 0.811756 0.603824 0.117514
H10   H     H_    0.529377 0.338464 0.397687 0.116433
H11   H     H_    0.326128 0.906743 0.292759 0.128508
H12   H     H_    0.674663 0.434581 0.705297 0.129072
H13   H     H_    0.091024 0.864826 0.580039 0.152920
H14   H     H_    0.909414 0.377650 0.420271 0.156746
H15   H     H_    0.035671 0.900397 0.395732 0.168314
H16   H     H_    0.964498 0.409083 0.605116 0.169969
H17   H     H_    0.239778 0.959006 0.274894 0.151166
H18   H     H_    0.761390 0.472553 0.723076 0.149508
O11   O     O_R   0.955980 0.206520 0.854760 -0.531719
O12   O     O_R   0.044020 0.706520 0.145240 -0.531142
O13   O     O_R   0.063490 0.536770 0.945200 -0.532603
O14   O     O_R   0.936510 0.036770 0.054800 -0.531756
C69   C     C_R   0.082989 0.368416 0.940386 0.678501
C70   C     C_R   0.916883 0.867743 0.058728 0.680340
O15   O     O_R   0.957530 0.536190 0.842880 -0.553795
O16   O     O_R   0.042470 0.036190 0.157120 -0.553403
O17   O     O_R   0.937350 0.707210 0.042130 -0.551352
O18   O     O_R   0.062650 0.207210 0.957870 -0.550910
C71   C     C_R   0.942770 0.368506 0.803759 0.732639
C72   C     C_R   0.057193 0.868557 0.196304 0.732839
O19   O     O_3   0.993540 0.373870 0.065440 -0.376914
O20   O     O_3   0.006460 0.873870 0.934560 -0.377866
V3    V     V_3+5 0.001200 0.648440 0.987860 1.460912
V4    V     V_3+5 0.998800 0.148440 0.012140 1.461883
O21   O     O_3   0.164259 0.812518 0.219162 -0.553790
C73   C     C_3   0.152591 0.954527 0.134934 -0.243607
H19   H     H_    0.120657 0.907405 0.064614 0.180817
H20   H     H_    0.185609 0.973780 0.097173 0.150893
H21   H     H_    0.144036 0.094034 0.167679 0.098674
O22   O     O_3   0.835298 0.315213 0.779693 -0.551137
C74   C     C_3   0.847595 0.455269 0.865102 -0.237873
H22   H     H_    0.814624 0.474575 0.902905 0.150971
H23   H     H_    0.856755 0.595093 0.833404 0.098152
H24   H     H_    0.879288 0.406083 0.935078 0.179926
O23   O     O_3   0.275010 0.714051 0.745394 -0.543748
C75   C     C_3   0.275757 0.817422 0.845608 -0.245409
H25   H     H_    0.250408 0.750450 0.893277 0.182762
H26   H     H_    0.266248 0.968533 0.830149 0.109241
H27   H     H_    0.314525 0.810270 0.902436 0.149167
O24   O     O_3   0.725714 0.221774 0.252260 -0.561133
C76   C     C_3   0.726235 0.327646 0.153414 -0.258072
H28   H     H_    0.750249 0.256711 0.104296 0.182170
H29   H     H_    0.738810 0.476377 0.170912 0.136725
H30   H     H_    0.687366 0.329292 0.096826 0.152223
C77   C     C_1   0.419153 0.823972 0.388847 0.265489
N1    N     N_1   0.436880 0.814732 0.311552 -0.351438
C78   C     C_1   0.580915 0.364582 0.611546 0.263447
N2    N     N_1   0.563242 0.367930 0.689075 -0.351158
O25   O     O_3   0.770722 0.023894 0.721630 -0.537653
C79   C     C_3   0.797815 0.912968 0.660921 -0.142969
H31   H     H_    0.791862 0.759770 0.670314 0.096116
H32   H     H_    0.838991 0.947759 0.685264 0.154772
H33   H     H_    0.783079 0.948443 0.570237 0.200279
O26   O     O_3   0.229652 0.514061 0.277752 -0.538201
C80   C     C_3   0.201188 0.404364 0.336408 -0.142689
H34   H     H_    0.208058 0.251206 0.329991 0.100636
H35   H     H_    0.159982 0.436044 0.307855 0.148485
H36   H     H_    0.213974 0.444045 0.426922 0.201911
C81   C     C_1   0.675731 0.906350 0.650832 0.369834
N3    N     N_1   0.672557 0.907466 0.554141 -0.333419
C82   C     C_1   0.322514 0.373063 0.348664 0.364345
N4    N     N_1   0.325047 0.369484 0.445080 -0.331302
C83   C     C_1   0.670873 0.787895 0.109545 0.255787
N5    N     N_1   0.664170 0.745995 0.196798 -0.356276
C84   C     C_1   0.330996 0.376134 0.885479 0.285001
N6    N     N_1   0.339114 0.386700 0.796449 -0.301666
C85   C     C_1   0.919334 0.744247 0.282935 0.298101
N7    N     N_1   0.956901 0.693306 0.342610 -0.378033
C86   C     C_1   0.079274 0.251173 0.714413 0.296083
N8    N     N_1   0.041399 0.203540 0.654167 -0.377296
C87   C     C_1   0.831962 0.796894 0.368477 0.310355
N9    N     N_1   0.836379 0.781551 0.464845 -0.402926
C88   C     C_1   0.168010 0.277126 0.631235 0.311182
N10   N     N_1   0.164124 0.261934 0.535030 -0.402771
C89   C     C_1   0.169818 0.784050 0.726198 0.313380
N11   N     N_1   0.151000 0.764114 0.801243 -0.369514
C90   C     C_1   0.831064 0.292282 0.273809 0.310746
N12   N     N_1   0.850157 0.271972 0.199263 -0.367409

loop_
_geom_bond_atom_site_label_1
_geom_bond_atom_site_label_2
_ccdc_geom_bond_type
C50   C62   A    
C48   C50   A    
O12   C72   A    
C85   N7    T    
C9    C31   A    
C13   C15   A    
O13   V3    S    
C88   N10   T    
O1    C3    A    
C79   H33   S    
C37   H13   S    
C76   H30   S    
O2    C4    A    
C80   H36   S    
O11   V4    S    
O20   V4    S    
C87   N9    T    
C10   C86   S    
C77   N1    T    
C56   H18   S    
C55   H17   S    
C89   N11   T    
C56   C58   A    
O16   V4    S    
O15   V3    S    
C21   C23   A    
C58   C60   A    
C64   C78   S    
C80   H34   S    
C68   H8    S    
O21   C73   S    
O11   C71   A    
C15   C19   A    
C12   C88   S    
C52   O24   S    
C47   C55   A    
C73   H19   S    
C42   C44   A    
O6    V2    S    
O18   V4    S    
C51   C53   A    
C40   H16   S    
O17   V3    S    
C74   H24   S    
C62   C68   A    
C34   C42   A    
H2    C30   S    
C7    C29   A    
C8    C30   A    
C11   C87   S    
C20   C28   A    
C47   C49   A    
C37   C45   A    
C44   C46   A    
C82   N4    T    
C38   C46   A    
C69   O18   A    
C33   C39   A    
C20   C22   A    
C57   H11   S    
O5    V1    S    
C78   N2    T    
C51   O23   S    
O13   C69   A    
C24   C26   A    
C24   O26   S    
C55   C57   A    
C66   H10   S    
C2    O7    A    
C36   C66   A    
O20   V3    S    
C63   C65   A    
H1    C29   S    
C63   C77   S    
C27   C83   S    
C67   H7    S    
C65   H9    S    
C41   C43   A    
C44   C48   A    
C23   O25   S    
C1    C36   S    
C49   C61   A    
C79   H31   S    
O4    C2    A    
C73   H20   S    
C90   N12   T    
C36   C68   A    
C16   C20   A    
C75   H27   S    
C76   H29   S    
C4    C7    S    
C49   C51   A    
O4    V2    S    
C38   H14   S    
C5    C29   A    
O14   V4    S    
C31   C70   S    
C6    C30   A    
C60   C64   A    
O5    C3    A    
C86   N8    T    
C59   C63   A    
O6    C4    A    
C43   C45   A    
C59   C61   A    
O19   V3    S    
O1    V2    S    
O14   C70   A    
O2    V1    S    
C57   C59   A    
C74   H22   S    
C34   C40   A    
C58   H12   S    
C7    C27   A    
C50   C52   A    
C25   H5    S    
C45   C53   A    
C33   C72   S    
C64   C66   A    
C37   C39   A    
C53   C89   S    
O23   C75   S    
C54   C90   S    
C33   C41   A    
C2    C35   S    
C17   C31   A    
C6    C82   S    
C61   C67   A    
C18   C26   A    
O3    V1    S    
O22   C74   S    
O16   C72   A    
C13   H3    S    
O15   C71   A    
C14   H4    S    
C75   H26   S    
C18   C32   A    
C5    C81   S    
O12   V3    S    
C10   C12   A    
O26   C80   S    
O3    C1    A    
C52   C54   A    
O25   C79   S    
C79   H32   S    
C11   C13   A    
C32   C69   S    
C3    C8    S    
C12   C14   A    
C73   H21   S    
C35   C65   A    
C19   C27   A    
C22   C24   A    
O24   C76   S    
O7    V1    S    
C10   C32   A    
C1    O8    A    
C15   C17   A    
O8    V2    S    
C81   N3    T    
C16   C18   A    
C8    C28   A    
C34   C71   S    
C75   H25   S    
C26   H6    S    
C80   H35   S    
C9    C85   S    
C14   C16   A    
C19   C21   A    
C38   C40   A    
C42   O22   S    
O19   V4    S    
C60   C62   A    
C9    C11   A    
C74   H23   S    
C28   C84   S    
C43   C47   A    
C23   C25   A    
C41   O21   S    
C39   H15   S    
O9    V2    S    
C84   N6    T    
C17   C25   A    
O10   V1    S    
C35   C67   A    
C5    C21   A    
C83   N5    T    
C6    C22   A    
C70   O17   A    
C76   H28   S    
C46   C54   A    
C48   C56   A    
