data_mof_unit_28993.cif
_audit_creation_date              2012-12-10T19:10:32-0500
_audit_creation_method            fapswitch 2.2
_symmetry_space_group_name_H-M    P1
_symmetry_Int_Tables_number       1
_space_group_crystal_system       triclinic
_cell_length_a                    11.008876
_cell_length_b                    9.913917
_cell_length_c                    15.650179
_cell_angle_alpha                 90.118853
_cell_angle_beta                  90.497485
_cell_angle_gamma                 89.767297
_cell_volume                      1707.99546008

loop_
_atom_site_label
_atom_site_type_symbol
_atom_type_description
_atom_site_fract_x
_atom_site_fract_y
_atom_site_fract_z
_atom_type_partial_charge
C1    C     C_R   0.258755 0.500826 0.493946 0.927196
C2    C     C_3   0.630379 0.483750 0.950749 -0.393131
C3    C     C_3   0.631348 0.483429 0.049274 -0.384126
C4    C     C_1   0.498158 0.501106 0.825642 -0.080328
C5    C     C_1   0.501409 0.499935 0.174217 -0.125775
C6    C     C_1   0.502565 0.499813 0.249739 -0.178031
C7    C     C_3   0.072900 0.637295 0.527502 0.310916
C8    C     C_3   0.077997 0.387385 0.547561 0.238633
C9    C     C_3   0.932634 0.637356 0.518950 0.178672
C10   C     C_3   0.939281 0.375247 0.541147 0.144177
C11   C     C_3   0.066540 0.493406 0.389604 0.824339
C12   C     C_3   0.122602 0.501984 0.488129 -0.335034
C13   C     C_3   0.881410 0.496652 0.487516 -0.347012
C14   C     C_R   0.503230 0.499943 0.338763 0.855788
C15   C     C_3   0.925587 0.476256 0.395893 -0.333678
C16   C     C_3   0.375744 0.079682 0.507137 -0.287464
C17   C     C_3   0.374527 0.920671 0.490839 -0.213589
C18   C     C_3   0.540074 0.080574 0.414801 -0.357976
C19   C     C_3   0.562234 0.922267 0.422500 -0.370262
C20   C     C_3   0.581746 0.070935 0.566591 0.325830
C21   C     C_3   0.549443 0.917253 0.580084 0.277030
C22   C     C_R   0.742926 0.499004 0.494977 0.947923
C23   C     C_R   0.499560 0.500218 0.661198 0.961136
C24   C     C_3   0.446827 0.635256 0.049466 -0.406756
C25   C     C_3   0.421317 0.382486 0.048749 -0.407883
C26   C     C_3   0.420361 0.382857 0.950155 -0.368895
C27   C     C_3   0.445952 0.635675 0.950873 -0.370382
C28   C     C_1   0.498630 0.500855 0.750162 -0.082961
C29   C     C_3   0.500205 0.500263 0.082659 0.354330
C30   C     C_3   0.498593 0.500894 0.917135 0.318000
H1    H     H_    0.351284 0.650125 0.926885 0.174034
H2    H     H_    0.325238 0.393107 0.926210 0.172080
H3    H     H_    0.878262 0.542096 0.349618 0.235039
H4    H     H_    0.896423 0.375970 0.372414 0.214529
H5    H     H_    0.313735 0.124872 0.460479 0.162303
H6    H     H_    0.335564 0.899680 0.426157 0.148028
H7    H     H_    0.337147 0.106832 0.569405 0.207855
H8    H     H_    0.309520 0.871676 0.533337 0.232316
H9    H     H_    0.471073 0.100301 0.363694 0.169618
H10   H     H_    0.532447 0.871734 0.362502 0.200451
H11   H     H_    0.673322 0.066603 0.538976 0.180151
H12   H     H_    0.634546 0.861444 0.594751 0.143421
H13   H     H_    0.620959 0.131948 0.390868 0.239820
H14   H     H_    0.659501 0.907214 0.428016 0.271157
H15   H     H_    0.352546 0.649363 0.073191 0.167758
H16   H     H_    0.326655 0.392568 0.072506 0.172428
H17   H     H_    0.457943 0.284421 0.072338 0.174775
H18   H     H_    0.501996 0.721379 0.073627 0.175955
H19   H     H_    0.456530 0.284974 0.926085 0.205921
H20   H     H_    0.500799 0.721908 0.927392 0.209173
H21   H     H_    0.689654 0.567022 0.073372 0.177628
H22   H     H_    0.671491 0.387053 0.072876 0.177185
H23   H     H_    0.688262 0.567461 0.927229 0.182497
H24   H     H_    0.669999 0.387503 0.926716 0.186781
H25   H     H_    0.115869 0.717386 0.489341 0.182045
H26   H     H_    0.123950 0.295299 0.524593 0.175485
H27   H     H_    0.892774 0.650486 0.583382 0.114286
H28   H     H_    0.902802 0.384526 0.606657 0.169701
N1    N     N_3   0.499750 0.138610 0.498180 -0.114695
N2    N     N_3   0.499750 0.861390 0.498180 -0.128190
O1    O     O_R   0.314910 0.616040 0.499980 -0.599586
O2    O     O_R   0.314910 0.383960 0.499980 -0.669638
O3    O     O_R   0.500120 0.616090 0.377110 -0.625570
O4    O     O_R   0.500120 0.383910 0.377110 -0.643932
O5    O     O_R   0.685320 0.616040 0.499960 -0.565930
O6    O     O_R   0.685320 0.383960 0.499960 -0.522767
O7    O     O_R   0.500110 0.615990 0.622830 -0.559774
O8    O     O_R   0.500110 0.384010 0.622830 -0.538739
Zn1   Zn    Zn3+2 0.500150 0.654960 0.499960 1.011315
Zn2   Zn    Zn3+2 0.500150 0.345040 0.499960 1.005876
S1    S     S_3+6 0.887060 0.784878 0.455968 0.021557
O9    O     O_2   0.827380 0.879189 0.517432 -0.300803
O10   O     O_2   0.992322 0.858310 0.417215 -0.272512
O11   O     O_3   0.790164 0.746470 0.375702 -0.590714
H29   H     H_    0.810580 0.808057 0.328223 0.373775
S2    S     S_3+6 0.910685 0.201648 0.505173 0.029327
O12   O     O_2   0.890340 0.117590 0.583285 -0.216853
O13   O     O_2   0.803643 0.190433 0.446720 -0.341353
O14   O     O_3   0.027787 0.131798 0.452154 -0.560518
H30   H     H_    0.008053 0.142756 0.390696 0.394413
O15   O     O_3   0.079938 0.620741 0.347923 -0.593769
C31   C     C_3   0.186790 0.635784 0.300174 -0.248851
H31   H     H_    0.189982 0.564440 0.245439 0.190927
H32   H     H_    0.268538 0.629143 0.341164 0.141065
H33   H     H_    0.186497 0.738672 0.272510 0.184505
O16   O     O_3   0.095766 0.385521 0.332065 -0.641485
C32   C     C_3   0.210789 0.327727 0.337835 -0.355127
H34   H     H_    0.211167 0.256964 0.390738 0.204238
H35   H     H_    0.283001 0.402859 0.341391 0.162890
H36   H     H_    0.226738 0.267961 0.278999 0.192571
S3    S     S_3+6 0.627187 0.151251 0.667636 0.108430
O17   O     O_2   0.524338 0.191706 0.724607 -0.258514
O18   O     O_2   0.704359 0.050923 0.715643 -0.264535
O19   O     O_3   0.714528 0.286690 0.652612 -0.546840
H37   H     H_    0.739583 0.315827 0.710722 0.348006
S4    S     S_3+6 0.451192 0.888483 0.675618 0.040966
O20   O     O_2   0.532841 0.849301 0.749076 -0.285531
O21   O     O_2   0.379452 0.010328 0.701335 -0.306494
O22   O     O_3   0.344882 0.768851 0.664458 -0.538976
H38   H     H_    0.329669 0.735967 0.723149 0.369922
O23   O     O_3   0.109380 0.658816 0.614050 -0.554439
C33   C     C_3   0.083911 0.792937 0.640911 -0.109010
H39   H     H_    0.985389 0.811951 0.648384 0.174146
H40   H     H_    0.122773 0.869472 0.597376 0.179344
H41   H     H_    0.123978 0.808765 0.705300 0.183792
O24   O     O_3   0.112978 0.411655 0.634191 -0.560840
C34   C     C_3   0.146366 0.291722 0.676838 -0.214604
H42   H     H_    0.237170 0.257564 0.655493 0.193587
H43   H     H_    0.078029 0.210749 0.667668 0.191967
H44   H     H_    0.153030 0.313177 0.746296 0.184862

loop_
_geom_bond_atom_site_label_1
_geom_bond_atom_site_label_2
_ccdc_geom_bond_type
C32   H34   S    
C26   H2    S    
O23   C33   S    
C24   C27   S    
C7    H25   S    
C1    O2    A    
C8    H26   S    
C20   H11   S    
C11   O15   S    
C24   H15   S    
C10   H28   S    
S2    O13   D    
C16   H5    S    
C5    C6    T    
S3    O18   D    
O24   C34   S    
C11   O16   S    
S4    O22   S    
O2    Zn2   S    
C33   H41   S    
C18   C19   S    
C23   O7    A    
C3    C29   S    
C9    C13   S    
C24   C29   S    
C22   O6    A    
C11   C15   S    
O3    Zn1   S    
C16   C17   S    
S4    O21   D    
C34   H42   S    
S2    O14   S    
C17   H6    S    
O4    Zn2   S    
C25   H17   S    
C15   H4    S    
C27   H20   S    
C16   H7    S    
C27   C30   S    
C34   H43   S    
O19   H37   S    
C1    C12   S    
C10   S2    S    
C4    C28   T    
O15   C31   S    
C5    C29   S    
C25   C29   S    
C7    C12   S    
C20   S3    S    
O11   H29   S    
C27   H1    S    
C24   H18   S    
S2    O12   D    
C21   N2    S    
C2    H24   S    
C26   H19   S    
S3    O17   D    
S1    O10   D    
C3    H21   S    
O16   C32   S    
N1    Zn2   S    
C25   C26   S    
C10   C13   S    
C21   H12   S    
C1    O1    A    
O7    Zn1   S    
C16   N1    S    
C23   O8    A    
C18   H9    S    
C22   O5    A    
C6    C14   S    
O22   H38   S    
C8    C12   S    
C14   O4    A    
S4    O20   D    
C23   C28   S    
C20   N1    S    
C33   H40   S    
C8    C10   S    
C26   C30   S    
C31   H32   S    
C13   C15   S    
C34   H44   S    
C19   H14   S    
O1    Zn1   S    
C7    C9    S    
C9    S1    S    
C2    H23   S    
C8    O24   S    
S1    O11   S    
C3    H22   S    
C21   S4    S    
C19   N2    S    
C31   H33   S    
C2    C30   S    
C32   H35   S    
C2    C3    S    
S1    O9    D    
C18   H13   S    
S3    O19   S    
O6    Zn2   S    
N2    Zn1   S    
O5    Zn1   S    
C14   O3    A    
C13   C22   S    
C9    H27   S    
C17   H8    S    
C33   H39   S    
C19   H10   S    
C17   N2    S    
O14   H30   S    
C18   N1    S    
C20   C21   S    
O8    Zn2   S    
C31   H31   S    
C7    O23   S    
C32   H36   S    
C25   H16   S    
C15   H3    S    
C4    C30   S    
C11   C12   S    
