data_mof_unit_46013.cif
_audit_creation_date              2012-12-11T16:26:22-0500
_audit_creation_method            fapswitch 2.2
_symmetry_space_group_name_H-M    P1
_symmetry_Int_Tables_number       1
_space_group_crystal_system       triclinic
_cell_length_a                    13.952872
_cell_length_b                    13.948865
_cell_length_c                    31.924551
_cell_angle_alpha                 90.147014
_cell_angle_beta                  89.981882
_cell_angle_gamma                 119.991673
_cell_volume                      5381.36742703

loop_
_atom_site_label
_atom_site_type_symbol
_atom_type_description
_atom_site_fract_x
_atom_site_fract_y
_atom_site_fract_z
_atom_type_partial_charge
C1    C     C_R   0.566792 0.444360 0.810481 0.536031
C2    C     C_R   0.444680 0.566665 0.189642 0.536751
C3    C     C_3   0.734327 0.951505 0.638701 -0.470818
C4    C     C_3   0.340208 0.277986 0.851568 -0.262200
C5    C     C_3   0.278799 0.307341 0.819018 -0.426057
C6    C     C_3   0.967063 0.669957 0.655134 -0.259627
C7    C     C_3   0.062797 0.783776 0.642710 -0.469429
C8    C     C_3   0.720252 0.059866 0.851462 -0.262234
C9    C     C_3   0.693407 0.971662 0.817897 -0.424996
C10   C     C_3   0.330134 0.295865 0.655003 -0.258909
C11   C     C_3   0.216123 0.275887 0.641653 -0.470247
C12   C     C_3   0.666843 0.955608 0.346568 -0.258149
C13   C     C_R   0.434090 0.879220 0.310089 0.534035
C14   C     C_3   0.782933 0.043027 0.361024 -0.471537
C15   C     C_3   0.061380 0.720644 0.147778 -0.263892
C16   C     C_3   0.968848 0.689272 0.179710 -0.426283
C17   C     C_3   0.295186 0.328045 0.344099 -0.261091
C18   C     C_3   0.281752 0.214840 0.354398 -0.469940
C19   C     C_3   0.659399 0.939683 0.147851 -0.263490
C20   C     C_3   0.719803 0.031970 0.180075 -0.426012
C21   C     C_3   0.063357 0.721239 0.348787 -0.255646
C22   C     C_3   0.012791 0.784354 0.369917 -0.474873
C23   C     C_3   0.291184 0.332843 0.151147 -0.267879
C24   C     C_R   0.122800 0.555716 0.189401 0.537693
C25   C     C_3   0.329703 0.282416 0.185022 -0.425789
C26   C     C_3   0.995423 0.319871 0.062601 -0.274151
C27   C     C_3   0.104401 0.326141 0.050957 -0.445740
C28   C     C_3   0.345050 0.032993 0.435113 -0.274657
C29   C     C_3   0.406008 0.155835 0.446626 -0.432962
C30   C     C_3   0.679881 0.675572 0.062942 -0.276943
C31   C     C_3   0.757996 0.631761 0.052660 -0.437278
C32   C     C_3   0.989294 0.321270 0.437255 -0.278000
C33   C     C_3   0.097342 0.323602 0.447335 -0.445668
C34   C     C_3   0.321903 0.000844 0.062511 -0.276463
C35   C     C_1   0.014454 0.513220 0.017297 -0.039330
C36   C     C_3   0.369145 0.122889 0.051683 -0.437912
C37   C     C_3   0.675285 0.665223 0.437930 -0.277227
C38   C     C_3   0.669986 0.769181 0.448543 -0.448274
C39   C     C_3   0.318966 0.987220 0.562943 -0.273753
C40   C     C_3   0.316305 0.093754 0.555231 -0.445732
C41   C     C_3   0.042997 0.347237 0.932020 -0.276612
C42   C     C_3   0.168114 0.406681 0.938505 -0.431477
C43   C     C_3   0.671635 0.670239 0.560814 -0.279615
C44   C     C_3   0.774366 0.662316 0.550797 -0.446581
C45   C     C_3   0.311001 0.976702 0.934478 -0.277876
C46   C     C_1   0.512453 0.001115 0.480691 -0.040344
C47   C     C_3   0.239284 0.853458 0.944094 -0.435603
C48   C     C_3   0.004245 0.327583 0.562241 -0.278828
C49   C     C_3   0.893704 0.225084 0.551877 -0.447556
C50   C     C_3   0.667021 0.683850 0.936441 -0.277611
C51   C     C_3   0.614066 0.753849 0.947062 -0.436769
C52   C     C_1   0.492199 0.490422 0.019179 -0.040184
C53   C     C_1   0.001990 0.513963 0.481836 -0.041827
C54   C     C_1   0.500219 0.987970 0.017590 -0.039913
C55   C     C_1   0.482914 0.480548 0.480507 -0.042303
C56   C     C_1   0.513623 0.003873 0.518370 -0.042088
C57   C     C_R   0.879147 0.433847 0.689996 0.534715
C58   C     C_1   0.011981 0.512198 0.979758 -0.040039
C59   C     C_1   0.485433 0.478403 0.518160 -0.042404
C60   C     C_1   0.502313 0.991761 0.980088 -0.040037
C61   C     C_1   0.998034 0.512106 0.519411 -0.040452
C62   C     C_1   0.493786 0.488988 0.981646 -0.041239
C63   C     C_R   0.939141 0.474549 0.850578 0.012547
C64   C     C_R   0.533827 0.060700 0.649257 0.000260
C65   C     C_R   0.527835 0.463513 0.851305 0.013364
C66   C     C_R   0.940415 0.473417 0.649858 0.002119
C67   C     C_R   0.534918 0.062079 0.850738 0.013493
C68   C     C_R   0.555553 0.122288 0.810401 0.536683
C69   C     C_R   0.526798 0.464602 0.649166 0.001334
C70   C     C_R   0.475592 0.941954 0.350075 0.000753
C71   C     C_R   0.066595 0.536810 0.148158 0.013055
C72   C     C_R   0.465851 0.524624 0.349990 0.002010
C73   C     C_R   0.469806 0.932998 0.148212 0.013928
C74   C     C_R   0.065417 0.537620 0.351621 -0.002120
C75   C     C_R   0.465815 0.528195 0.149081 0.016351
C76   C     C_R   0.951004 0.569316 0.872450 0.007343
C77   C     C_R   0.612537 0.039192 0.629386 0.005548
C78   C     C_R   0.431994 0.380911 0.872528 0.008501
C79   C     C_R   0.566223 0.444816 0.689791 0.534319
C80   C     C_R   0.964524 0.574978 0.630608 0.006124
C81   C     C_R   0.615877 0.046099 0.871929 0.007138
C82   C     C_R   0.425105 0.386315 0.630017 0.008018
C83   C     C_R   0.574175 0.959634 0.370252 0.007314
C84   C     C_R   0.052870 0.618903 0.126759 0.008236
C85   C     C_R   0.387528 0.422590 0.368854 0.008410
C86   C     C_R   0.566070 0.947766 0.126858 0.008322
C87   C     C_R   0.049379 0.619684 0.372107 0.003017
C88   C     C_R   0.388420 0.427651 0.128908 0.006167
C89   C     C_R   0.980944 0.582309 0.914878 -0.121712
C90   C     C_R   0.877821 0.433518 0.810420 0.536159
C91   C     C_R   0.603280 0.019712 0.585834 -0.109373
C92   C     C_R   0.421198 0.394140 0.915506 -0.122228
C93   C     C_R   0.984114 0.585925 0.587143 -0.110060
C94   C     C_R   0.599644 0.017013 0.914433 -0.121475
C95   C     C_R   0.413823 0.392556 0.586387 -0.109092
C96   C     C_R   0.584142 0.979204 0.413749 -0.109113
C97   C     C_R   0.030946 0.606244 0.083581 -0.120664
C98   C     C_R   0.394933 0.410363 0.412326 -0.112905
C99   C     C_R   0.575723 0.970423 0.083780 -0.118199
C100  C     C_R   0.024355 0.607026 0.415202 -0.104359
C101  C     C_R   0.554967 0.121264 0.689759 0.534397
C102  C     C_R   0.402242 0.414983 0.086046 -0.124595
C103  C     C_R   0.004042 0.507612 0.935008 0.034620
C104  C     C_R   0.512491 0.009254 0.563383 0.028213
C105  C     C_R   0.499115 0.488403 0.936862 0.035303
C106  C     C_R   0.991763 0.504476 0.564241 0.029918
C107  C     C_R   0.504738 0.000087 0.935390 0.035514
C108  C     C_R   0.494704 0.480766 0.563110 0.028854
C109  C     C_R   0.506815 0.995617 0.435669 0.033994
C110  C     C_R   0.018221 0.513348 0.062125 0.032355
C111  C     C_R   0.484488 0.489993 0.435589 0.028469
C112  C     C_R   0.445121 0.565851 0.309993 0.533802
C113  C     C_R   0.495116 0.982224 0.062350 0.035724
C114  C     C_R   0.009555 0.514000 0.436999 0.027341
C115  C     C_R   0.492209 0.497005 0.063942 0.036849
C116  C     C_R   0.008141 0.423488 0.912141 0.027658
C117  C     C_R   0.424802 0.010472 0.584678 0.029060
C118  C     C_R   0.585188 0.576899 0.914933 0.028842
C119  C     C_R   0.987261 0.413382 0.584855 0.028237
C120  C     C_R   0.418202 0.001381 0.913367 0.028333
C121  C     C_R   0.586247 0.568065 0.583566 0.028548
C122  C     C_R   0.421833 0.000759 0.413832 0.029608
C123  C     C_R   0.432888 0.877111 0.189432 0.536874
C124  C     C_R   0.016181 0.425271 0.084121 0.028596
C125  C     C_R   0.571833 0.581305 0.415227 0.029286
C126  C     C_R   0.407467 0.981771 0.084221 0.028788
C127  C     C_R   0.011120 0.426615 0.415573 0.028481
C128  C     C_R   0.576856 0.588791 0.085092 0.028550
C129  C     C_R   0.975042 0.407616 0.870207 -0.135244
C130  C     C_R   0.437211 0.037691 0.627205 -0.124378
C131  C     C_R   0.598516 0.563236 0.872381 -0.135824
C132  C     C_R   0.960565 0.398379 0.627322 -0.124979
C133  C     C_R   0.434340 0.032160 0.871253 -0.134285
C134  C     C_R   0.122761 0.555931 0.310598 0.535587
C135  C     C_R   0.601913 0.558174 0.626156 -0.124536
C136  C     C_R   0.405684 0.971282 0.371457 -0.132844
C137  C     C_R   0.040636 0.438125 0.126850 -0.130116
C138  C     C_R   0.560714 0.598275 0.372864 -0.124450
C139  C     C_R   0.396253 0.957670 0.126942 -0.133121
C140  C     C_R   0.039112 0.439559 0.373185 -0.124755
C141  C     C_R   0.562652 0.603046 0.127423 -0.132237
C142  C     C_3   0.931974 0.657484 0.852861 -0.261358
C143  C     C_3   0.019224 0.723296 0.819661 -0.423632
C144  C     C_3   0.706642 0.039375 0.653580 -0.259087
Cr1   Cr    Cr6+3 0.504240 0.249200 0.750000 0.985455
Cr2   Cr    Cr6+3 0.744960 0.495760 0.750000 0.985578
Cr3   Cr    Cr6+3 0.750800 0.255040 0.750000 0.985298
Cr4   Cr    Cr6+3 0.249200 0.504240 0.250000 0.986791
Cr5   Cr    Cr6+3 0.495760 0.744960 0.250000 0.985255
Cr6   Cr    Cr6+3 0.255040 0.750800 0.250000 0.983118
H1    H     H_    0.026915 0.670776 0.066130 0.098291
H2    H     H_    0.663194 0.011151 0.931895 0.098798
H3    H     H_    0.140776 0.325374 0.418015 0.148487
H4    H     H_    0.152331 0.397740 0.466437 0.160968
H5    H     H_    0.079437 0.248247 0.465197 0.125753
H6    H     H_    0.941509 0.308153 0.466473 0.152680
H7    H     H_    0.937500 0.248907 0.416815 0.130212
H8    H     H_    0.396545 0.174113 0.080636 0.157876
H9    H     H_    0.440406 0.151753 0.029966 0.162597
H10   H     H_    0.304346 0.134474 0.036249 0.121366
H11   H     H_    0.291560 0.949185 0.033784 0.145879
H12   H     H_    0.248327 0.974965 0.082865 0.122771
H13   H     H_    0.992206 0.657372 0.570708 0.108634
H14   H     H_    0.668749 0.811583 0.419416 0.149151
H15   H     H_    0.594481 0.747749 0.467046 0.160614
H16   H     H_    0.743946 0.826856 0.467147 0.126243
H17   H     H_    0.688153 0.629764 0.466923 0.152921
H18   H     H_    0.748877 0.688149 0.417964 0.128278
H19   H     H_    0.309167 0.129271 0.585375 0.144456
H20   H     H_    0.392809 0.155588 0.539068 0.165131
H21   H     H_    0.243687 0.075820 0.535487 0.126437
H22   H     H_    0.308399 0.943355 0.532854 0.145053
H23   H     H_    0.246926 0.930765 0.582561 0.130570
H24   H     H_    0.353233 0.328908 0.932926 0.096963
H25   H     H_    0.211277 0.432461 0.907856 0.158409
H26   H     H_    0.195948 0.480972 0.958649 0.160462
H27   H     H_    0.191148 0.349831 0.953941 0.126443
H28   H     H_    0.999943 0.315763 0.962357 0.145307
H29   H     H_    0.019202 0.273424 0.911931 0.123073
H30   H     H_    0.815495 0.660126 0.580189 0.150552
H31   H     H_    0.751765 0.586357 0.532291 0.161156
H32   H     H_    0.833516 0.735702 0.532381 0.126276
H33   H     H_    0.637079 0.683162 0.531584 0.153509
H34   H     H_    0.695742 0.744728 0.580523 0.130193
H35   H     H_    0.045768 0.372366 0.142826 0.125149
H36   H     H_    0.218707 0.804283 0.914681 0.159831
H37   H     H_    0.282465 0.825446 0.965780 0.161468
H38   H     H_    0.161065 0.837990 0.959130 0.122493
H39   H     H_    0.329013 0.026091 0.963681 0.146020
H40   H     H_    0.262261 0.001332 0.914152 0.122996
H41   H     H_    0.849609 0.184225 0.581134 0.151083
H42   H     H_    0.841046 0.247909 0.533148 0.160749
H43   H     H_    0.908090 0.165637 0.533582 0.125656
H44   H     H_    0.052306 0.361710 0.533065 0.153094
H45   H     H_    0.053878 0.303295 0.582171 0.130427
H46   H     H_    0.334817 0.966550 0.355586 0.121322
H47   H     H_    0.584944 0.775075 0.918012 0.158990
H48   H     H_    0.542968 0.708923 0.968652 0.160810
H49   H     H_    0.676077 0.831823 0.962556 0.122707
H50   H     H_    0.699473 0.665578 0.965203 0.146121
H51   H     H_    0.739811 0.733952 0.916034 0.123012
H52   H     H_    0.625773 0.676997 0.142888 0.119821
H53   H     H_    0.046090 0.374124 0.357660 0.128770
H54   H     H_    0.325502 0.952350 0.143117 0.119850
H55   H     H_    0.624807 0.673250 0.358390 0.127276
H56   H     H_    0.372486 0.046154 0.642515 0.129138
H57   H     H_    0.651775 0.980937 0.430973 0.108735
H58   H     H_    0.972551 0.338833 0.853390 0.120068
H59   H     H_    0.677002 0.622164 0.640746 0.128507
H60   H     H_    0.369439 0.038368 0.855066 0.119618
H61   H     H_    0.949417 0.323613 0.642086 0.128135
H62   H     H_    0.668507 0.629378 0.856188 0.118379
H63   H     H_    0.102864 0.766016 0.834156 0.143445
H64   H     H_    0.018200 0.668834 0.794079 0.159805
H65   H     H_    0.002666 0.786645 0.805916 0.120616
H66   H     H_    0.847322 0.621386 0.839983 0.187851
H67   H     H_    0.937293 0.717785 0.876918 0.111116
H68   H     H_    0.340817 0.342294 0.069329 0.098229
H69   H     H_    0.657772 0.869575 0.635802 0.158386
H70   H     H_    0.778467 0.974938 0.608248 0.134321
H71   H     H_    0.789857 0.944339 0.661829 0.132988
H72   H     H_    0.781731 0.122551 0.651720 0.155271
H73   H     H_    0.683146 0.020096 0.687005 0.158420
H74   H     H_    0.240873 0.352099 0.834241 0.143575
H75   H     H_    0.335238 0.360028 0.793842 0.158869
H76   H     H_    0.211979 0.230294 0.804574 0.121061
H77   H     H_    0.372055 0.226629 0.837688 0.186600
H78   H     H_    0.277878 0.223228 0.874986 0.111918
H79   H     H_    0.020163 0.671248 0.432755 0.113093
H80   H     H_    0.141988 0.782915 0.642076 0.158929
H81   H     H_    0.047507 0.809221 0.611671 0.134505
H82   H     H_    0.070440 0.846631 0.665949 0.132714
H83   H     H_    0.887361 0.668533 0.650966 0.150100
H84   H     H_    0.979189 0.661746 0.688978 0.160349
H85   H     H_    0.649101 0.887923 0.832171 0.144865
H86   H     H_    0.641152 0.976228 0.792691 0.159439
H87   H     H_    0.771428 0.984016 0.803694 0.120993
H88   H     H_    0.771525 0.144223 0.838637 0.186368
H89   H     H_    0.774237 0.051276 0.874991 0.112899
H90   H     H_    0.645015 0.975790 0.066367 0.097966
H91   H     H_    0.216418 0.355550 0.639639 0.159636
H92   H     H_    0.190988 0.232236 0.611063 0.133552
H93   H     H_    0.153332 0.222664 0.665151 0.132731
H94   H     H_    0.332228 0.217575 0.652312 0.152077
H95   H     H_    0.338170 0.319514 0.688560 0.158880
H96   H     H_    0.789965 0.125896 0.362531 0.157019
H97   H     H_    0.802787 0.021678 0.392056 0.135004
H98   H     H_    0.845181 0.046838 0.338374 0.132545
H99   H     H_    0.657130 0.871924 0.349453 0.154924
H100  H     H_    0.663400 0.973170 0.312906 0.160910
H101  H     H_    0.330260 0.339125 0.428414 0.106831
H102  H     H_    0.886978 0.643573 0.163961 0.145559
H103  H     H_    0.972632 0.636800 0.204969 0.159062
H104  H     H_    0.976957 0.765514 0.194129 0.122198
H105  H     H_    0.143652 0.772435 0.162277 0.185660
H106  H     H_    0.054070 0.775427 0.124299 0.111730
H107  H     H_    0.362362 0.217504 0.351469 0.159402
H108  H     H_    0.247909 0.187825 0.386362 0.140884
H109  H     H_    0.222559 0.152071 0.332012 0.130934
H110  H     H_    0.215872 0.326275 0.349904 0.147842
H111  H     H_    0.312734 0.338623 0.310071 0.163306
H112  H     H_    0.667357 0.013805 0.568928 0.109841
H113  H     H_    0.755813 0.114012 0.164582 0.145918
H114  H     H_    0.663149 0.027637 0.205324 0.158677
H115  H     H_    0.787966 0.024091 0.194474 0.121319
H116  H     H_    0.629124 0.857303 0.162116 0.184249
H117  H     H_    0.721861 0.947548 0.124391 0.110707
H118  H     H_    0.925195 0.726844 0.378523 0.150418
H119  H     H_    0.061259 0.829255 0.398103 0.135057
H120  H     H_    0.015073 0.846883 0.347847 0.132664
H121  H     H_    0.152855 0.779944 0.344015 0.182508
H122  H     H_    0.022412 0.694195 0.317712 0.151163
H123  H     H_    0.982838 0.649232 0.932930 0.098224
H124  H     H_    0.381320 0.250760 0.170862 0.147938
H125  H     H_    0.378536 0.344067 0.209593 0.157314
H126  H     H_    0.256570 0.212265 0.200056 0.122322
H127  H     H_    0.234643 0.359419 0.164278 0.180167
H128  H     H_    0.239988 0.265260 0.128700 0.113891
H129  H     H_    0.154578 0.399058 0.030770 0.166399
H130  H     H_    0.152268 0.333412 0.079672 0.145889
H131  H     H_    0.087726 0.250024 0.033771 0.124908
H132  H     H_    0.947758 0.247980 0.083669 0.129423
H133  H     H_    0.943991 0.303734 0.034099 0.143541
H134  H     H_    0.342283 0.328299 0.570166 0.109293
H135  H     H_    0.473162 0.175191 0.469490 0.163736
H136  H     H_    0.442777 0.207161 0.418257 0.158939
H137  H     H_    0.347027 0.178055 0.460809 0.124915
H138  H     H_    0.274709 0.016958 0.414264 0.125019
H139  H     H_    0.308472 0.981883 0.463437 0.142625
H140  H     H_    0.783771 0.607677 0.081877 0.157288
H141  H     H_    0.717485 0.558952 0.031453 0.162124
H142  H     H_    0.833033 0.697406 0.036849 0.121947
H143  H     H_    0.656605 0.702766 0.033978 0.146712
H144  H     H_    0.725791 0.750766 0.082781 0.122584
O1    O     O_R   0.480350 0.140770 0.796330 -0.533569
O2    O     O_R   0.140770 0.480350 0.203670 -0.530130
O3    O     O_R   0.519650 0.660420 0.296330 -0.523478
O4    O     O_R   0.339580 0.859230 0.203670 -0.532893
O5    O     O_R   0.514930 0.348530 0.793250 -0.500508
O6    O     O_R   0.833600 0.485070 0.706750 -0.501689
O7    O     O_R   0.651470 0.166400 0.793250 -0.500347
O8    O     O_R   0.514930 0.348530 0.706750 -0.501525
O9    O     O_R   0.833600 0.485070 0.793250 -0.501158
O10   O     O_R   0.651470 0.166400 0.706750 -0.501847
O11   O     O_R   0.348530 0.514930 0.293250 -0.502602
O12   O     O_R   0.660420 0.519650 0.703670 -0.522192
O13   O     O_R   0.485070 0.833600 0.206750 -0.500312
O14   O     O_R   0.166400 0.651470 0.293250 -0.506553
O15   O     O_R   0.348530 0.514930 0.206750 -0.499519
O16   O     O_R   0.485070 0.833600 0.293250 -0.501618
O17   O     O_R   0.166400 0.651470 0.206750 -0.499575
O18   O     O_3   0.666667 0.333333 0.750000 -0.208816
O19   O     O_3   0.333333 0.666667 0.250000 -0.208859
O20   O     O_R   0.859230 0.339580 0.796330 -0.532236
O21   O     O_R   0.480350 0.140770 0.703670 -0.522543
O22   O     O_R   0.660420 0.519650 0.796330 -0.533264
O23   O     O_R   0.859230 0.339580 0.703670 -0.524045
O24   O     O_R   0.140770 0.480350 0.296330 -0.521158
O25   O     O_R   0.519650 0.660420 0.203670 -0.533513
O26   O     O_R   0.339580 0.859230 0.296330 -0.528629

loop_
_geom_bond_atom_site_label_1
_geom_bond_atom_site_label_2
_ccdc_geom_bond_type
C68   O7    A    
C72   C112  S    
C29   H136  S    
C55   C59   T    
C64   C77   A    
C19   C20   S    
C57   O6    A    
C16   H102  S    
C31   H140  S    
C71   C137  A    
C13   O26   A    
C21   H121  S    
Cr6   O4    S    
Cr3   O23   S    
C17   C85   S    
C32   C127  S    
C98   H101  S    
C63   C76   A    
C94   H2    S    
C120  C133  A    
C118  C131  A    
C51   H47   S    
C101  O21   A    
C90   O9    A    
Cr3   O18   S    
C111  C125  A    
C14   H98   S    
Cr2   O9    S    
C34   H11   S    
C69   C135  A    
C21   C22   S    
C70   C136  A    
C40   H19   S    
C23   H128  S    
C37   H18   S    
C7    H82   S    
C45   C47   S    
C126  C139  A    
C8    C81   S    
C124  C137  A    
Cr1   O1    S    
C10   C82   S    
C12   H99   S    
C43   C44   S    
C4    C78   S    
C37   C38   S    
C16   H103  S    
C6    C80   S    
C121  C135  A    
C24   O17   A    
C86   C99   A    
C122  C136  A    
C18   H109  S    
Cr4   O11   S    
C60   C107  S    
C19   H116  S    
C99   H90   S    
C45   C120  S    
Cr2   O6    S    
C105  C118  A    
C107  C120  A    
C143  H65   S    
C104  C117  A    
C52   C115  S    
C77   C91   A    
C55   C111  S    
C33   H4    S    
C4    C5    S    
C88   C102  A    
Cr1   O5    S    
C6    C7    S    
C8    H88   S    
C125  C138  A    
C96   C109  A    
C66   C132  A    
C78   C92   A    
C103  C116  A    
C42   H26   S    
C20   H114  S    
C74   C134  S    
C43   H33   S    
C5    H75   S    
C95   C108  A    
Cr5   O13   S    
C13   C70   S    
C80   C93   A    
C44   H31   S    
C40   H21   S    
C2    C75   S    
C21   H122  S    
C7    H80   S    
C38   H15   S    
Cr3   O7    S    
C9    H85   S    
C11   H93   S    
C57   C66   S    
C72   C85   A    
C15   H105  S    
C35   C58   T    
C100  H79   S    
C25   H126  S    
C139  H54   S    
C28   C122  S    
C93   H13   S    
C32   H7    S    
C4    H77   S    
C18   H107  S    
C69   C82   A    
C75   C141  A    
C134  O14   A    
C32   H6    S    
C53   C61   T    
C3    H70   S    
C144  H73   S    
C1    C65   S    
C74   C87   A    
C76   C89   A    
C143  H63   S    
C72   C138  A    
C6    H84   S    
C89   C103  A    
C132  H61   S    
C24   O2    A    
Cr5   O16   S    
C94   C107  A    
C100  C114  A    
C141  H52   S    
C39   C40   S    
C129  H58   S    
C113  C126  A    
C73   C139  A    
C92   H24   S    
C74   C140  A    
C115  C128  A    
C130  H56   S    
C93   C106  A    
C17   C18   S    
C79   O8    A    
C22   H119  S    
C64   C130  A    
C67   C81   A    
C23   C88   S    
C48   H45   S    
C9    H87   S    
C11   H91   S    
C69   C79   S    
C127  C140  A    
C47   H37   S    
C19   H117  S    
C87   C100  A    
C14   H97   S    
C45   H39   S    
C29   H135  S    
C82   C95   A    
C50   C118  S    
C41   H29   S    
C34   H12   S    
C33   H5    S    
C27   H130  S    
C66   C80   A    
C33   H3    S    
C142  H66   S    
C52   C62   T    
C81   C94   A    
Cr1   O18   S    
Cr5   O3    S    
C83   C96   A    
C34   C36   S    
C26   H132  S    
C10   C11   S    
C102  H68   S    
C45   H40   S    
C28   H138  S    
C5    H74   S    
C30   H143  S    
C3    H71   S    
C1    O22   A    
C46   C56   T    
Cr4   O15   S    
C89   H123  S    
C106  C119  A    
C41   C42   S    
C108  C121  A    
C39   H23   S    
C44   H30   S    
C40   H20   S    
C23   H127  S    
C37   H17   S    
C49   H42   S    
C7    H81   S    
C26   C27   S    
C84   C97   A    
C28   C29   S    
C28   H139  S    
C136  H46   S    
Cr4   O24   S    
C30   C31   S    
Cr5   O25   S    
C68   O1    A    
C12   H100  S    
C101  O10   A    
C102  C115  A    
C90   O20   A    
C36   H9    S    
C110  C124  A    
C16   H104  S    
C138  H55   S    
C112  O11   A    
C2    O15   A    
C128  C141  A    
C43   C121  S    
C29   H137  S    
C26   C124  S    
C48   C119  S    
C137  H35   S    
C30   C128  S    
C67   C68   S    
C10   H94   S    
C56   C104  S    
C96   H57   S    
C39   C117  S    
C12   C83   S    
C39   H22   S    
C51   H48   S    
C34   C126  S    
C50   C51   S    
C97   H1    S    
C10   H95   S    
C61   C106  S    
C35   C110  S    
C17   H110  S    
C48   C49   S    
C135  H59   S    
C44   H32   S    
C53   C114  S    
C30   H144  S    
C50   H51   S    
C38   H16   S    
Cr3   O10   S    
C65   C78   A    
C48   H44   S    
C1    O5    A    
C3    C144  S    
C59   C108  S    
C99   C113  A    
Cr5   O19   S    
C32   C33   S    
C79   O12   A    
C25   H125  S    
C114  C127  A    
C31   H141  S    
C63   C129  A    
C17   H111  S    
C18   H108  S    
C92   C105  A    
Cr2   O12   S    
C3    H69   S    
C95   H134  S    
C46   C109  S    
C142  C143  S    
C21   C87   S    
Cr6   O17   S    
C91   C104  A    
C19   C86   S    
C134  O24   A    
C62   C105  S    
C54   C60   T    
C2    O25   A    
C25   H124  S    
C67   C133  A    
C42   H25   S    
C20   H113  S    
C109  C122  A    
C42   H27   S    
Cr6   O26   S    
C15   C16   S    
C54   C113  S    
C43   H34   S    
C5    H76   S    
C123  O13   A    
C13   O16   A    
C85   C98   A    
Cr4   O19   S    
C116  C129  A    
C8    C9    S    
C57   O23   A    
C144  H72   S    
C36   H8    S    
C22   H120  S    
Cr6   O19   S    
C38   H14   S    
C9    H86   S    
C133  H60   S    
C65   C131  A    
C37   C125  S    
C15   H106  S    
C64   C101  S    
Cr4   O2    S    
C41   H28   S    
C140  H53   S    
C50   H50   S    
C31   H142  S    
C27   H129  S    
C73   C123  S    
C47   H36   S    
C142  H67   S    
C70   C83   A    
C4    H78   S    
Cr2   O18   S    
C119  C132  A    
C117  C130  A    
C15   C84   S    
C26   H133  S    
C91   H112  S    
C51   H49   S    
C143  H64   S    
Cr6   O14   S    
C6    H83   S    
C12   C14   S    
Cr3   O20   S    
C123  O4    A    
C41   C116  S    
Cr1   O8    S    
C71   C84   A    
C8    H89   S    
C98   C111  A    
C20   H115  S    
C27   H131  S    
C49   H41   S    
C112  O3    A    
C77   C144  S    
C97   C110  A    
C49   H43   S    
Cr1   O21   S    
C63   C90   S    
Cr2   O22   S    
C23   C25   S    
C73   C86   A    
C36   H10   S    
C22   H118  S    
C75   C88   A    
C131  H62   S    
C11   H92   S    
C58   C103  S    
C47   H38   S    
C24   C71   S    
C14   H96   S    
C76   C142  S    
