data_mof_unit_12187.cif
_audit_creation_date              2012-12-11T16:35:18-0500
_audit_creation_method            fapswitch 2.2
_symmetry_space_group_name_H-M    P1
_symmetry_Int_Tables_number       1
_space_group_crystal_system       triclinic
_cell_length_a                    6.925974
_cell_length_b                    17.678902
_cell_length_c                    19.522758
_cell_angle_alpha                 109.137767
_cell_angle_beta                  89.795835
_cell_angle_gamma                 90.558684
_cell_volume                      2258.21730467

loop_
_atom_site_label
_atom_site_type_symbol
_atom_type_description
_atom_site_fract_x
_atom_site_fract_y
_atom_site_fract_z
_atom_type_partial_charge
O1    O     O_R   0.505700 0.440210 0.561730 -0.521620
O2    O     O_R   0.169350 0.406300 0.412660 -0.546383
O3    O     O_R   0.005650 0.559790 0.438270 -0.513104
C1    C     C_R   0.338742 0.382701 0.385218 0.686099
O4    O     O_R   0.175560 0.430650 0.559600 -0.521649
O5    O     O_R   0.011900 0.584320 0.586250 -0.547273
C2    C     C_R   0.344111 0.413623 0.579572 0.743215
O6    O     O_R   0.499450 0.415680 0.413750 -0.539033
O7    O     O_3   0.341370 0.550390 0.508570 -0.360889
V1    V     V_3+5 0.063940 0.490650 0.498410 1.531439
O8    O     O_R   0.682570 0.593700 0.587340 -0.514791
C3    C     C_R   0.851158 0.616231 0.615442 0.797832
O9    O     O_R   0.676370 0.569350 0.440400 -0.542026
C4    C     C_R   0.846071 0.584859 0.419121 0.729881
V2    V     V_3+5 0.564750 0.509350 0.501590 1.554221
O10   O     O_3   0.837190 0.449610 0.491430 -0.371478
C5    C     C_R   0.038140 0.686136 0.287102 -0.151044
H1    H     H_    0.169712 0.686019 0.256927 0.184012
C6    C     C_R   0.029721 0.639491 0.332826 0.659891
C7    C     C_R   0.858932 0.635536 0.371333 -0.169703
C8    C     C_R   0.699647 0.680966 0.363776 -0.201893
H2    H     H_    0.567099 0.680471 0.393233 0.189478
C9    C     C_R   0.709830 0.728601 0.318916 -0.030957
H3    H     H_    0.585755 0.764188 0.316017 0.164462
C10   C     C_R   0.878341 0.730973 0.279102 0.058078
C11   C     C_R   0.730286 0.782538 0.184669 0.560817
C12   C     C_R   0.741811 0.827426 0.137469 0.506496
C13   C     C_R   0.912892 0.869238 0.132293 -0.272711
C14   C     C_R   0.070662 0.865627 0.176126 -0.228715
H4    H     H_    0.203569 0.897570 0.173948 0.194782
C15   C     C_R   0.058174 0.821672 0.224050 -0.186595
H5    H     H_    0.181717 0.821411 0.257802 0.178935
C16   C     C_R   0.888130 0.779437 0.229078 -0.089981
H6    H     H_    0.811170 0.623872 0.932563 0.171325
C17   C     C_R   0.975299 0.904832 0.745218 0.458566
C18   C     C_R   0.000094 0.916744 0.677989 0.143661
C19   C     C_R   0.985448 0.851634 0.614121 0.591305
C20   C     C_R   0.941358 0.775753 0.616628 -0.312937
C21   C     C_R   0.913388 0.762003 0.683321 -0.090533
C22   C     C_R   0.933293 0.827248 0.749304 -0.077940
C23   C     C_R   0.860803 0.684758 0.684491 -0.075209
C24   C     C_R   0.829761 0.672243 0.751935 -0.059208
C25   C     C_R   0.882430 0.733313 0.817660 -0.091483
C26   C     C_R   0.915164 0.812943 0.816905 -0.133121
C27   C     C_R   0.750452 0.599561 0.755981 0.567109
C28   C     C_R   0.734322 0.586285 0.821966 -0.224983
C29   C     C_R   0.813087 0.640415 0.883983 -0.186112
C30   C     C_R   0.902167 0.711615 0.881882 0.268236
H7    H     H_    0.928465 0.727914 0.565299 0.142082
H8    H     H_    0.669240 0.531224 0.824310 0.168682
C31   C     C_R   0.511880 0.232629 0.382156 -0.227689
C32   C     C_R   0.603075 0.162872 0.382537 -0.136113
C33   C     C_R   0.636739 0.100846 0.317786 0.351722
C34   C     C_R   0.573849 0.108595 0.252376 -0.242100
C35   C     C_R   0.482135 0.179028 0.250292 0.027442
C36   C     C_R   0.450184 0.242446 0.316617 0.072636
C37   C     C_R   0.418735 0.186117 0.183665 -0.095720
C38   C     C_R   0.321986 0.256651 0.183737 -0.007438
C39   C     C_R   0.288321 0.319765 0.250139 -0.029802
C40   C     C_R   0.353692 0.313152 0.316731 -0.110018
C41   C     C_R   0.260158 0.266306 0.118053 -0.331386
C42   C     C_R   0.165070 0.335295 0.117763 0.600722
C43   C     C_R   0.131079 0.396564 0.182548 0.628248
C44   C     C_R   0.192666 0.389324 0.247968 -0.322150
H9    H     H_    0.487870 0.278158 0.434074 0.104342
H10   H     H_    0.645065 0.156676 0.433782 0.126110
H11   H     H_    0.598489 0.058803 0.203360 0.114140
H12   H     H_    0.286367 0.221130 0.066092 0.154229
H13   H     H_    0.164444 0.438962 0.296629 0.210231
C45   C     C_R   0.535300 0.317025 0.712922 -0.171581
H14   H     H_    0.667070 0.321054 0.743618 0.127037
C46   C     C_R   0.523153 0.361342 0.665619 -0.196151
H15   H     H_    0.647618 0.396489 0.660680 0.210729
C47   C     C_R   0.353603 0.361337 0.626145 -0.085605
C48   C     C_R   0.196797 0.311897 0.632897 0.285097
C49   C     C_R   0.210595 0.267617 0.680963 -0.198449
H16   H     H_    0.090244 0.229725 0.684893 0.100186
C50   C     C_R   0.379025 0.269820 0.721676 0.105945
C51   C     C_R   0.229928 0.211440 0.811788 -0.116700
H17   H     H_    0.092657 0.237829 0.806623 0.145502
C52   C     C_R   0.242827 0.167147 0.859292 -0.138889
H18   H     H_    0.114676 0.160197 0.888660 0.227260
C53   C     C_R   0.418637 0.132956 0.869367 -0.195584
C54   C     C_R   0.582015 0.144527 0.830534 0.623447
C55   C     C_R   0.568418 0.188508 0.782736 -0.237170
H19   H     H_    0.695937 0.194505 0.752644 0.121240
C56   C     C_R   0.392454 0.222606 0.772587 0.016740
O11   O     O_R   0.273230 0.084330 0.086440 -0.550874
O12   O     O_R   0.596660 0.069390 0.940470 -0.497468
O13   O     O_R   0.760270 0.915710 0.913690 -0.528710
C57   C     C_R   0.428180 0.084294 0.918795 0.763150
O14   O     O_R   0.603330 0.093680 0.087390 -0.548773
O15   O     O_R   0.766990 0.940160 0.061660 -0.517910
C58   C     C_R   0.434000 0.116911 0.115090 0.661482
O16   O     O_R   0.266510 0.059870 0.938470 -0.525692
O17   O     O_3   0.431050 0.949630 0.991510 -0.366086
V3    V     V_3+5 0.708490 0.009340 0.001580 1.597153
O18   O     O_R   0.096270 0.930570 0.059390 -0.545266
C59   C     C_R   0.926676 0.916540 0.081846 0.784992
O19   O     O_R   0.089600 0.906290 0.912460 -0.536680
C60   C     C_R   0.920855 0.881315 0.886185 0.875505
V4    V     V_3+5 0.207670 0.990600 0.998190 1.535143
O20   O     O_3   0.935250 0.050360 0.008480 -0.363929
F1    F     F_    0.992340 0.970056 0.805673 -0.661054
N1    N     N_2   0.045212 0.994255 0.674582 -0.464002
H20   H     H_    0.111293 0.032475 0.720284 0.305959
C61   C     C_3   0.888988 0.032063 0.649365 -0.413721
H21   H     H_    0.937056 0.091758 0.648305 0.163236
H22   H     H_    0.762775 0.039883 0.686221 0.205283
H23   H     H_    0.844980 0.995616 0.593602 0.234519
F2    F     F_    0.015785 0.861495 0.548829 -0.668630
F3    F     F_    0.679057 0.541893 0.697242 -0.721608
N2    N     N_2   0.033336 0.754897 0.938192 -0.542459
H24   H     H_    0.153035 0.775549 0.918051 0.261566
C62   C     C_3   0.089894 0.720432 0.992973 -0.447616
H25   H     H_    0.196902 0.760418 0.030161 0.246074
H26   H     H_    0.158251 0.661228 0.967255 0.205366
H27   H     H_    0.963396 0.714404 0.025835 0.201989
F4    F     F_    0.039208 0.463823 0.182122 -0.616089
F5    F     F_    0.188482 0.597306 0.338011 -0.683891
N3    N     N_2   0.727715 0.029219 0.318565 -0.521298
H28   H     H_    0.706251 0.980699 0.272283 0.247077
C63   C     C_3   0.927674 0.038678 0.341285 -0.523215
H29   H     H_    0.983517 0.980451 0.342439 0.214332
H30   H     H_    0.942093 0.082766 0.396626 0.198332
H31   H     H_    0.016174 0.058628 0.302641 0.188380
F6    F     F_    0.106868 0.342808 0.054057 -0.631463
N4    N     N_2   0.025735 0.305043 0.591008 -0.505320
H32   H     H_    0.903400 0.293049 0.616039 0.245332
C64   C     C_3   0.041734 0.251524 0.517151 -0.520658
H33   H     H_    0.060628 0.188940 0.516519 0.181744
H34   H     H_    0.165568 0.268835 0.489074 0.181553
H35   H     H_    0.908356 0.254877 0.487025 0.193388
F7    F     F_    0.754472 0.111886 0.837172 -0.663697
F8    F     F_    0.566753 0.739475 0.184434 -0.660492
F9    F     F_    0.587106 0.827270 0.094875 -0.664647

loop_
_geom_bond_atom_site_label_1
_geom_bond_atom_site_label_2
_ccdc_geom_bond_type
C50   C56   S    
C35   C36   A    
O17   V4    S    
C45   C50   A    
C23   C24   A    
C64   H34   S    
C17   C18   A    
C1    O6    A    
N4    H32   S    
C51   C56   A    
C52   H18   S    
C27   F3    S    
C63   H29   S    
C21   C23   A    
C20   H7    S    
C27   C28   A    
N1    C61   S    
C54   F7    S    
C11   C12   A    
C19   C20   A    
C12   F9    S    
C13   C14   A    
C49   C50   A    
C31   C36   A    
C55   H19   S    
C20   C21   A    
C63   H30   S    
C62   H25   S    
C48   N4    S    
C31   H9    S    
C11   F8    S    
C28   C29   A    
O8    V2    S    
C29   C30   A    
C62   H26   S    
C61   H21   S    
C15   C16   A    
C45   H14   S    
O1    V2    S    
O12   C57   A    
C25   C30   A    
O15   C59   A    
O13   V3    S    
O16   V4    S    
C38   C41   A    
C39   C40   A    
O9    C4    A    
C61   H22   S    
C41   C42   A    
O19   V4    S    
C52   C53   A    
O14   V3    S    
C2    C47   S    
C55   C56   A    
O11   C58   A    
C19   F2    S    
C47   C48   A    
C43   C44   A    
C31   C32   A    
C4    C7    S    
C49   H16   S    
C46   C47   A    
C17   F1    S    
C21   C22   A    
C51   C52   A    
C63   H31   S    
C34   H11   S    
C38   C39   A    
O18   V4    S    
C36   C40   A    
O12   V3    S    
C24   C27   A    
O2    C1    A    
C48   C49   A    
O13   C60   A    
C14   H4    S    
C43   F4    S    
C11   C16   A    
C53   C54   A    
C9    H3    S    
C62   H27   S    
O17   V3    S    
C1    C40   S    
C42   C43   A    
O14   C58   A    
C5    H1    S    
C39   C44   A    
C35   C37   A    
C44   H13   S    
C54   C55   A    
N3    H28   S    
V3    O20   S    
O3    C4    A    
C13   C59   S    
C6    F5    S    
O6    V2    S    
C37   C58   S    
O9    V2    S    
C25   C26   A    
C61   H23   S    
C64   H35   S    
C24   C25   A    
O2    V1    S    
O15   V3    S    
C32   H10   S    
C32   C33   A    
C3    C23   S    
O4    C2    A    
N2    H24   S    
O7    V1    S    
C34   C35   A    
C18   C19   A    
C18   N1    S    
O1    C2    A    
C15   H5    S    
C46   H15   S    
N4    C64   S    
O5    V1    S    
O11   V4    S    
C26   C60   S    
C33   C34   A    
C53   C57   S    
N1    H20   S    
C28   H8    S    
C5    C10   A    
C6    C7    A    
C8    C9    A    
C64   H33   S    
O7    V2    S    
O4    V1    S    
C14   C15   A    
O3    V1    S    
C33   N3    S    
O5    C3    A    
C41   H12   S    
C37   C38   A    
C42   F6    S    
V1    O10   S    
O19   C60   A    
C5    C6    A    
C17   C22   A    
C9    C10   A    
V4    O20   S    
N3    C63   S    
C57   O16   A    
C51   H17   S    
C22   C26   A    
C7    C8    A    
O18   C59   A    
C12   C13   A    
C45   C46   A    
H6    C29   S    
C8    H2    S    
V2    O10   S    
O8    C3    A    
C10   C16   S    
C30   N2    S    
N2    C62   S    
