data_mof_unit_16665.cif
_audit_creation_date              2012-12-11T15:10:51-0500
_audit_creation_method            fapswitch 2.2
_symmetry_space_group_name_H-M    P1
_symmetry_Int_Tables_number       1
_space_group_crystal_system       triclinic
_cell_length_a                    21.152174
_cell_length_b                    7.239308
_cell_length_c                    18.258385
_cell_angle_alpha                 89.977988
_cell_angle_beta                  93.411269
_cell_angle_gamma                 89.977098
_cell_volume                      2790.89928505

loop_
_atom_site_label
_atom_site_type_symbol
_atom_type_description
_atom_site_fract_x
_atom_site_fract_y
_atom_site_fract_z
_atom_type_partial_charge
O1    O     O_R   0.448880 0.506250 0.415280 -0.529169
O2    O     O_R   0.551120 0.006250 0.584720 -0.529261
O3    O     O_R   0.434830 0.174000 0.557310 -0.521047
O4    O     O_R   0.565170 0.674000 0.442690 -0.521039
C1    C     C_R   0.416989 0.344587 0.579649 0.696492
C2    C     C_R   0.583013 0.844574 0.420351 0.696572
O5    O     O_R   0.441680 0.176440 0.414130 -0.530520
O6    O     O_R   0.558320 0.676440 0.585870 -0.530520
O7    O     O_R   0.558020 0.007570 0.440520 -0.519320
O8    O     O_R   0.441980 0.507570 0.559480 -0.519238
C3    C     C_R   0.428065 0.344872 0.388311 0.675538
C4    C     C_R   0.571948 0.844751 0.611689 0.675420
O9    O     O_3   0.538160 0.339670 0.508820 -0.364344
O10   O     O_3   0.461840 0.839670 0.491180 -0.364251
V1    V     V_3+5 0.492920 0.064260 0.498360 1.420952
V2    V     V_3+5 0.507080 0.564260 0.501640 1.421132
C5    C     C_R   0.875758 0.986085 0.688218 -0.159809
C6    C     C_R   0.123859 0.479933 0.312033 -0.159689
H1    H     H_    0.795856 0.985860 0.570926 0.126141
H2    H     H_    0.203573 0.476490 0.429486 0.126145
H3    H     H_    0.897673 0.017187 0.637473 0.114002
H4    H     H_    0.101759 0.508149 0.362909 0.113995
C7    C     C_R   0.887123 0.942967 0.819799 -0.036202
C8    C     C_R   0.112849 0.442282 0.180196 -0.035896
C9    C     C_R   0.582668 0.811317 0.745820 -0.159329
C10   C     C_R   0.417622 0.315958 0.254007 -0.159589
C11   C     C_R   0.617451 0.807213 0.812816 -0.119887
C12   C     C_R   0.382950 0.313723 0.186926 -0.119771
C13   C     C_R   0.682466 0.840065 0.816651 -0.156706
C14   C     C_R   0.317821 0.344751 0.183158 -0.156684
C15   C     C_R   0.714803 0.878725 0.752784 0.077175
C16   C     C_R   0.285256 0.379625 0.247185 0.077145
C17   C     C_R   0.678465 0.884853 0.683922 0.068952
C18   C     C_R   0.321461 0.383644 0.316152 0.068932
C19   C     C_R   0.781875 0.911112 0.754981 0.073461
C20   C     C_R   0.218092 0.410430 0.245037 0.073535
C21   C     C_R   0.810507 0.950835 0.688265 0.137722
C22   C     C_R   0.189223 0.446404 0.311920 0.137633
C23   C     C_R   0.774005 0.956025 0.621838 -0.198267
C24   C     C_R   0.225598 0.449515 0.378453 -0.198205
C25   C     C_R   0.709186 0.923185 0.619558 -0.191002
C26   C     C_R   0.290517 0.418285 0.380674 -0.190592
C27   C     C_R   0.821810 0.906377 0.820748 -0.213672
C28   C     C_R   0.178285 0.407614 0.179165 -0.213560
C29   C     C_R   0.913503 0.983454 0.753365 -0.164933
C30   C     C_R   0.086219 0.479068 0.246801 -0.165136
C31   C     C_R   0.612072 0.850390 0.681019 -0.080405
C32   C     C_R   0.387971 0.351108 0.318975 -0.080101
H5    H     H_    0.803752 0.877358 0.873498 0.094369
H6    H     H_    0.196513 0.381235 0.126303 0.094133
H7    H     H_    0.532271 0.783389 0.744456 0.106373
H8    H     H_    0.468133 0.289816 0.255295 0.106238
H9    H     H_    0.706013 0.833976 0.870528 0.108746
H10   H     H_    0.294378 0.340409 0.129202 0.108741
C33   C     C_1   0.864609 0.938954 0.132201 -0.209040
C34   C     C_1   0.135389 0.438912 0.867800 -0.209035
C35   C     C_1   0.821794 0.924898 0.176008 -0.002983
C36   C     C_1   0.178205 0.424859 0.823993 -0.002985
C37   C     C_1   0.771260 0.905764 0.228169 -0.003959
C38   C     C_1   0.228740 0.405748 0.771831 -0.003951
C39   C     C_1   0.728703 0.889116 0.272177 -0.004229
C40   C     C_1   0.271298 0.389128 0.727822 -0.004220
C41   C     C_1   0.678147 0.869979 0.324308 -0.002388
C42   C     C_1   0.321855 0.370015 0.675692 -0.002378
C43   C     C_1   0.635293 0.855922 0.368060 -0.206420
C44   C     C_1   0.364709 0.355962 0.631939 -0.206419
O11   O     O_R   0.058070 0.289240 0.940580 -0.519950
O12   O     O_R   0.941930 0.789240 0.059420 -0.519957
O13   O     O_R   0.058330 0.616740 0.085880 -0.532163
O14   O     O_R   0.941670 0.116740 0.914120 -0.532204
C45   C     C_R   0.072012 0.448713 0.111729 0.684064
C46   C     C_R   0.927986 0.948833 0.888263 0.684044
O15   O     O_R   0.065180 0.619040 0.942700 -0.522140
O16   O     O_R   0.934820 0.119040 0.057300 -0.522142
O17   O     O_R   0.948870 0.787780 0.915270 -0.529690
O18   O     O_R   0.051130 0.287780 0.084730 -0.529670
C47   C     C_R   0.083167 0.450316 0.920178 0.705298
C48   C     C_R   0.916832 0.950329 0.079823 0.705391
O19   O     O_3   0.961870 0.453310 0.991210 -0.365503
O20   O     O_3   0.038130 0.953310 0.008790 -0.365455
V3    V     V_3+5 0.007070 0.728770 0.001630 1.415424
V4    V     V_3+5 0.992930 0.228770 0.998370 1.415469
H11   H     H_    0.963608 0.013359 0.751983 0.107298
H12   H     H_    0.035999 0.507307 0.248257 0.107173
H13   H     H_    0.593787 0.777251 0.862435 0.119859
H14   H     H_    0.406801 0.286848 0.137169 0.119843
H15   H     H_    0.683206 0.928455 0.566679 0.111138
H16   H     H_    0.316400 0.421892 0.433636 0.110474

loop_
_geom_bond_atom_site_label_1
_geom_bond_atom_site_label_2
_ccdc_geom_bond_type
C14   C16   A    
C41   C43   T    
C7    C29   A    
O20   V3    S    
C11   C13   A    
O11   C47   A    
O2    C4    A    
C2    O7    A    
C23   C25   A    
O5    C3    A    
C14   H10   S    
O12   V3    S    
C16   C20   A    
C19   C21   A    
C5    C29   A    
C46   O17   A    
C45   O18   A    
H2    C24   S    
C35   C37   S    
C36   C38   S    
C7    C27   A    
C38   C40   T    
O13   C45   A    
C40   C42   S    
C2    C43   S    
C18   C26   A    
O1    C3    A    
C15   C17   A    
C19   C27   A    
C9    C31   A    
C10   C32   A    
C24   C26   A    
O6    V2    S    
C3    C32   S    
C29   H11   S    
O16   V4    S    
C4    C31   S    
C6    C30   A    
O15   V3    S    
C11   H13   S    
O12   C48   A    
C25   H15   S    
C37   C39   T    
O4    C2    A    
O18   V4    S    
C33   C48   S    
C27   H5    S    
C5    H3    S    
C34   C47   S    
C42   C44   T    
O4    V2    S    
C9    H7    S    
C10   H8    S    
O6    C4    A    
C39   C41   S    
O1    V2    S    
C5    C21   A    
O2    V1    S    
H1    C23   S    
C30   H12   S    
C33   C35   T    
C12   H14   S    
C17   C31   A    
C15   C19   A    
C20   C28   A    
C26   H16   S    
C20   C22   A    
O3    V1    S    
C28   H6    S    
C6    H4    S    
C7    C46   S    
O17   V3    S    
C1    C44   S    
O3    C1    A    
O19   V4    S    
C9    C11   A    
C10   C12   A    
C8    C30   A    
C12   C14   A    
C6    C22   A    
C17   C25   A    
C1    O8    A    
C13   C15   A    
O8    V2    S    
C22   C24   A    
C13   H9    S    
C8    C28   A    
O5    V1    S    
C34   C36   T    
O7    V1    S    
O14   V4    S    
O13   V3    S    
C18   C32   A    
O11   V4    S    
C21   C23   A    
O16   C48   A    
O9    V2    S    
O15   C47   A    
O10   V1    S    
O14   C46   A    
C8    C45   S    
C16   C18   A    
