data_mof_unit_64658.cif
_audit_creation_date              2012-12-10T18:13:14-0500
_audit_creation_method            fapswitch 2.2
_symmetry_space_group_name_H-M    P1
_symmetry_Int_Tables_number       1
_space_group_crystal_system       triclinic
_cell_length_a                    10.771751
_cell_length_b                    9.445296
_cell_length_c                    19.378858
_cell_angle_alpha                 90.021678
_cell_angle_beta                  89.963204
_cell_angle_gamma                 89.830839
_cell_volume                      1971.64192703

loop_
_atom_site_label
_atom_site_type_symbol
_atom_type_description
_atom_site_fract_x
_atom_site_fract_y
_atom_site_fract_z
_atom_type_partial_charge
C1    C     C_R   0.259760 0.500036 0.500484 0.974424
C2    C     C_R   0.502246 0.500031 0.069987 0.462740
C3    C     C_R   0.443274 0.610328 0.816813 0.564876
C4    C     C_R   0.559818 0.389776 0.816465 0.560056
C5    C     C_R   0.442961 0.610282 0.744893 0.510565
C6    C     C_R   0.558960 0.389768 0.744525 0.548262
C7    C     C_R   0.500624 0.500010 0.708185 -0.488103
C8    C     C_R   0.501830 0.500066 0.853549 -0.414152
C9    C     C_3   0.070692 0.587260 0.562560 0.308332
C10   C     C_3   0.071629 0.345681 0.507781 0.270927
C11   C     C_3   0.927653 0.596010 0.559260 0.397690
C12   C     C_3   0.929416 0.346358 0.512168 0.438433
C13   C     C_3   0.071599 0.564237 0.431549 1.049046
C14   C     C_3   0.121641 0.499899 0.500253 -0.584984
C15   C     C_3   0.877999 0.499069 0.500620 -0.615519
C16   C     C_R   0.500014 0.499982 0.367575 0.911753
C17   C     C_3   0.927506 0.555077 0.430021 0.867816
C18   C     C_3   0.627594 0.083407 0.493132 0.965445
C19   C     C_3   0.627499 0.915977 0.492406 0.978866
C20   C     C_3   0.449169 0.083974 0.566998 0.426310
C21   C     C_3   0.450656 0.916590 0.567316 0.490513
C22   C     C_3   0.423451 0.083641 0.444603 -0.332564
C23   C     C_3   0.422232 0.916739 0.445106 -0.338147
C24   C     C_R   0.739952 0.499658 0.500452 1.055420
C25   C     C_R   0.500046 0.500014 0.632406 0.986808
C26   C     C_R   0.511921 0.627416 0.255250 -0.172926
C27   C     C_R   0.489955 0.372526 0.255140 -0.168987
C28   C     C_R   0.512815 0.627918 0.183363 0.635490
C29   C     C_R   0.490342 0.372026 0.183251 0.636370
C30   C     C_R   0.501867 0.499977 0.146309 -0.230326
C31   C     C_R   0.500558 0.499972 0.291713 -0.199534
C32   C     C_R   0.502251 0.500073 0.929833 0.539776
Cu1   Cu    Cu3+1 0.499860 0.642410 0.500030 1.149797
Cu2   Cu    Cu3+1 0.499860 0.357590 0.500030 1.133999
H1    H     H_    0.521014 0.727222 0.282296 0.217943
H2    H     H_    0.480537 0.272707 0.282087 0.208853
N1    N     N_R   0.524059 0.379021 0.034166 -0.093629
N2    N     N_R   0.480531 0.621072 0.034247 -0.095023
N3    N     N_R   0.523957 0.379005 0.965550 -0.091455
N4    N     N_R   0.480644 0.621125 0.965639 -0.090467
N5    N     N_3   0.500250 0.143650 0.501520 -0.349441
N6    N     N_3   0.500250 0.856350 0.501520 -0.366028
O1    O     O_R   0.317570 0.620260 0.500040 -0.483907
O2    O     O_R   0.317570 0.379740 0.500040 -0.538943
O3    O     O_R   0.499870 0.620300 0.400170 -0.583714
O4    O     O_R   0.499870 0.379700 0.400170 -0.582299
O5    O     O_R   0.682190 0.620260 0.500020 -0.504009
O6    O     O_R   0.682190 0.379740 0.500020 -0.499444
O7    O     O_R   0.499890 0.620220 0.599880 -0.540326
O8    O     O_R   0.499890 0.379780 0.599880 -0.542486
F1    F     F_    0.878376 0.687894 0.416066 -0.515068
F2    F     F_    0.889857 0.464873 0.377528 -0.571897
F3    F     F_    0.701867 0.128546 0.547169 -0.550519
F4    F     F_    0.703973 0.868534 0.545202 -0.605301
F5    F     F_    0.679819 0.133279 0.432364 -0.578984
F6    F     F_    0.677367 0.868031 0.430632 -0.531849
H3    H     H_    0.505645 0.120539 0.611455 0.170131
H4    H     H_    0.509398 0.881411 0.611250 0.145026
H5    H     H_    0.326692 0.123851 0.448263 0.305874
H6    H     H_    0.324996 0.879041 0.450145 0.305695
H7    H     H_    0.458815 0.120142 0.393817 0.223235
H8    H     H_    0.455122 0.878025 0.394151 0.224134
F7    F     F_    0.329695 0.134035 0.578125 -0.544960
F8    F     F_    0.332595 0.865317 0.579960 -0.450651
F9    F     F_    0.526542 0.753854 0.150542 -0.553531
F10   F     F_    0.477229 0.246089 0.150312 -0.555411
F11   F     F_    0.383516 0.717087 0.850158 -0.514821
F12   F     F_    0.620064 0.283050 0.849478 -0.513344
F13   F     F_    0.382893 0.716320 0.711277 -0.521342
F14   F     F_    0.618526 0.283749 0.710490 -0.517154
F15   F     F_    0.118358 0.723322 0.563371 -0.480265
F16   F     F_    0.108611 0.262112 0.452485 -0.548596
H9    H     H_    0.099504 0.534977 0.611499 0.185522
H10   H     H_    0.110191 0.296816 0.555495 0.230812
F17   F     F_    0.877123 0.558494 0.622508 -0.547296
F18   F     F_    0.893269 0.295485 0.576237 -0.489393
H11   H     H_    0.899632 0.707348 0.548859 0.261890
H12   H     H_    0.891818 0.273273 0.472334 0.259938
F19   F     F_    0.108126 0.704576 0.425943 -0.550374
F20   F     F_    0.121403 0.492157 0.375528 -0.555593

loop_
_geom_bond_atom_site_label_1
_geom_bond_atom_site_label_2
_ccdc_geom_bond_type
C19   F6    S    
C13   F19   S    
C27   C29   A    
Cu1   O3    S    
C4    C8    A    
C17   F1    S    
C20   N5    S    
C16   C31   S    
C23   N6    S    
Cu1   N6    S    
C22   N5    S    
Cu1   O7    S    
C6    F14   S    
C18   C19   S    
C32   N3    A    
C25   O8    A    
C21   F8    S    
C5    F13   S    
C11   H11   S    
C18   F3    S    
C11   C15   S    
C1    O1    A    
C23   H8    S    
C12   H12   S    
Cu2   O4    S    
C19   N6    S    
C13   F20   S    
C26   C31   A    
C13   C14   S    
Cu2   N5    S    
C9    H9    S    
C17   F2    S    
C23   H6    S    
Cu2   O8    S    
C27   C31   A    
Cu1   O1    S    
Cu2   O2    S    
C4    C6    A    
C3    C8    A    
C10   C14   S    
C18   N5    S    
C16   O4    A    
C22   H5    S    
C4    F12   S    
C29   F10   S    
C8    C32   S    
C9    C14   S    
C29   C30   A    
C2    N2    A    
C1    O2    A    
C12   C15   S    
Cu1   Cu2   S    
C9    C11   S    
C10   C12   S    
C18   F5    S    
C19   F4    S    
C15   C24   S    
C12   F18   S    
Cu1   O5    S    
Cu2   O6    S    
C5    C7    A    
C15   C17   S    
C24   O5    A    
C3    F11   S    
C9    F15   S    
C24   O6    A    
C3    C5    A    
C16   O3    A    
C6    C7    A    
C27   H2    S    
C26   C28   A    
C7    C25   S    
C13   C17   S    
C2    C30   S    
C20   F7    S    
C28   C30   A    
C28   F9    S    
C21   H4    S    
N1    N3    A    
C11   F17   S    
C22   H7    S    
N2    N4    A    
C10   H10   S    
C2    N1    A    
C32   N4    A    
C25   O7    A    
C21   N6    S    
C26   H1    S    
C20   C21   S    
C22   C23   S    
C1    C14   S    
C20   H3    S    
C10   F16   S    
