data_mof_unit_21726.cif
_audit_creation_date              2012-10-26T21:01:36-0400
_audit_creation_method            fapswitch 2.2
_symmetry_space_group_name_H-M    P1
_symmetry_Int_Tables_number       1
_space_group_crystal_system       triclinic
_cell_length_a                    15.86089
_cell_length_b                    13.093866
_cell_length_c                    11.744797
_cell_angle_alpha                 99.023004
_cell_angle_beta                  95.996247
_cell_angle_gamma                 91.628913
_cell_volume                      2393.3056931

loop_
_atom_site_label
_atom_site_type_symbol
_atom_type_description
_atom_site_fract_x
_atom_site_fract_y
_atom_site_fract_z
_atom_type_partial_charge
C1    C     C_R   0.507753 0.300219 0.480588 0.571832
C2    C     C_R   0.532761 0.971761 0.455846 -0.052136
C3    C     C_R   0.404924 0.427538 0.018132 -0.093049
C4    C     C_R   0.595227 0.572491 0.981706 -0.099524
C5    C     C_R   0.414577 0.428256 0.138826 0.411970
C6    C     C_R   0.585403 0.571862 0.861069 0.368524
C7    C     C_R   0.544855 0.526205 0.156992 0.076026
C8    C     C_R   0.455122 0.473957 0.843035 0.094061
C9    C     C_R   0.535426 0.524675 0.034921 -0.031322
C10   C     C_R   0.464670 0.475437 0.965044 -0.036335
C11   C     C_R   0.339732 0.498344 0.498231 0.584351
C12   C     C_R   0.500945 0.700546 0.520558 0.636561
C13   C     C_R   0.660158 0.498521 0.501646 0.587629
C14   C     C_3   0.971437 0.406705 0.535566 -0.091834
C15   C     C_3   0.028451 0.584159 0.472656 -0.176033
C16   C     C_3   0.016849 0.413826 0.426876 0.244918
C17   C     C_3   0.982443 0.576463 0.581887 0.209941
C18   C     C_1   0.249842 0.494757 0.495054 0.060081
C19   C     C_1   0.749963 0.498057 0.505558 0.101402
C20   C     C_3   0.038247 0.486152 0.608889 0.242548
C21   C     C_3   0.962566 0.503939 0.400159 0.244893
C22   C     C_3   0.083117 0.491961 0.499857 -0.053424
C23   C     C_R   0.553152 0.022052 0.364906 -0.040273
C24   C     C_3   0.917157 0.497544 0.507704 -0.017032
C25   C     C_1   0.174349 0.492313 0.495581 0.015750
C26   C     C_1   0.825553 0.497849 0.507556 0.091555
C27   C     C_R   0.501024 0.813580 0.531044 0.004249
C28   C     C_R   0.523603 0.188470 0.474087 -0.032709
C29   C     C_3   0.971177 0.535751 0.211758 0.046924
C30   C     C_3   0.951801 0.642169 0.180119 -0.259074
C31   C     C_3   0.003401 0.666859 0.084330 -0.440752
C32   C     C_3   0.105596 0.541472 0.798328 0.024126
C33   C     C_3   0.186861 0.597402 0.775591 -0.248144
C34   C     C_R   0.461531 0.978964 0.629006 -0.043891
C35   C     C_3   0.222028 0.675781 0.881315 -0.411588
C36   C     C_R   0.547352 0.128765 0.371021 0.204478
C37   C     C_R   0.455999 0.871692 0.615486 0.193710
C38   C     C_R   0.513467 0.137741 0.571357 0.172453
C39   C     C_R   0.543628 0.865239 0.454029 0.219987
C40   C     C_R   0.502554 0.029755 0.552671 -0.040031
Cu1   Cu    Cu3+1 0.506200 0.507730 0.615930 1.176612
Cu2   Cu    Cu3+1 0.493800 0.492270 0.384070 1.168532
H1    H     H_    0.946946 0.334618 0.561864 0.184043
H2    H     H_    0.015759 0.821245 0.782366 0.384947
H3    H     H_    0.958100 0.476702 0.132375 0.211093
H4    H     H_    0.040245 0.534055 0.241544 0.144082
H5    H     H_    0.883106 0.643914 0.149968 0.222220
H6    H     H_    0.966889 0.702289 0.258205 0.189229
H7    H     H_    0.072434 0.666566 0.112705 0.151769
H8    H     H_    0.988324 0.744654 0.063683 0.200473
H9    H     H_    0.987479 0.608908 0.004590 0.179392
H10   H     H_    0.119181 0.509581 0.880263 0.170523
H11   H     H_    0.054374 0.595304 0.814320 0.194021
H12   H     H_    0.052873 0.656298 0.446441 0.160019
H13   H     H_    0.235594 0.539925 0.755374 0.182989
H14   H     H_    0.173354 0.638722 0.700535 0.224629
H15   H     H_    0.174821 0.734906 0.902634 0.188364
H16   H     H_    0.280674 0.715202 0.862763 0.240925
H17   H     H_    0.237934 0.636193 0.957310 0.145976
H18   H     H_    0.709859 0.683476 0.381418 0.365786
H19   H     H_    0.657891 0.262390 0.700062 0.345200
H20   H     H_    0.358315 0.936135 0.839521 0.370173
H21   H     H_    0.645958 0.130197 0.102480 0.398906
H22   H     H_    0.677509 0.777643 0.940246 0.364766
H23   H     H_    0.570030 0.977542 0.285776 0.240133
H24   H     H_    0.209203 0.418125 0.248684 0.391263
H25   H     H_    0.429613 0.023300 0.696033 0.214759
H26   H     H_    0.399999 0.434827 0.790495 0.152143
H27   H     H_    0.600095 0.564912 0.209479 0.174210
H28   H     H_    0.349446 0.390374 0.964333 0.161672
H29   H     H_    0.650741 0.609746 0.035298 0.164391
H30   H     H_    0.963065 0.162323 0.247456 0.388586
N1    N     N_R   0.515540 0.519350 0.790140 -0.225176
N2    N     N_R   0.484460 0.480650 0.209860 -0.247806
O1    O     O_R   0.504400 0.354460 0.582000 -0.458800
O2    O     O_2   0.106405 0.243909 0.383594 -0.228377
O3    O     O_3   0.947424 0.224678 0.298887 -0.463968
O4    O     O_2   0.890774 0.746405 0.597714 -0.196229
O5    O     O_2   0.906640 0.658678 0.767905 -0.238025
O6    O     O_3   0.036503 0.767265 0.724365 -0.536551
O7    O     O_3   0.916505 0.511766 0.292554 -0.527859
O8    O     O_3   0.080084 0.456742 0.710577 -0.533665
O9    O     O_2   0.577965 0.761129 0.250147 -0.317463
O10   O     O_2   0.690526 0.880455 0.358548 -0.232468
O11   O     O_3   0.665123 0.707993 0.430668 -0.493170
O12   O     O_R   0.495600 0.645540 0.418000 -0.479821
O13   O     O_2   0.452237 0.245451 0.756287 -0.262665
O14   O     O_2   0.561747 0.125390 0.798094 -0.245465
O15   O     O_3   0.609681 0.295500 0.736140 -0.463713
O16   O     O_2   0.336110 0.727488 0.633007 -0.291668
O17   O     O_2   0.444485 0.774557 0.798925 -0.281267
O18   O     O_3   0.325909 0.902920 0.765674 -0.489514
O19   O     O_2   0.504098 0.212140 0.179699 -0.215410
O20   O     O_2   0.638464 0.276490 0.295655 -0.268462
O21   O     O_3   0.633183 0.095672 0.168362 -0.481620
O22   O     O_2   0.737967 0.558674 0.783457 -0.215738
O23   O     O_R   0.493920 0.341410 0.386200 -0.414864
O24   O     O_2   0.651764 0.694038 0.715777 -0.210819
O25   O     O_3   0.719985 0.724384 0.926029 -0.487275
O26   O     O_2   0.283295 0.287379 0.086296 -0.238430
O27   O     O_2   0.347466 0.308313 0.284819 -0.222223
O28   O     O_3   0.255608 0.455452 0.219995 -0.548061
O29   O     O_R   0.506080 0.658590 0.613800 -0.417804
O30   O     O_R   0.384320 0.506520 0.597880 -0.524017
O31   O     O_R   0.615680 0.493480 0.402120 -0.501697
O32   O     O_R   0.373840 0.493460 0.402080 -0.449201
O33   O     O_R   0.626160 0.506540 0.597920 -0.444744
O34   O     O_2   0.061903 0.330210 0.217667 -0.289585
S1    S     S_3+6 0.036528 0.301036 0.328337 0.056610
S2    S     S_3+6 0.950727 0.689563 0.670475 0.034621
S3    S     S_3+6 0.620609 0.803578 0.369088 0.031223
S4    S     S_3+6 0.533138 0.200925 0.719423 0.043255
S5    S     S_3+6 0.390250 0.815246 0.704647 0.018272
S6    S     S_3+6 0.580554 0.182540 0.252074 0.067409
S7    S     S_3+6 0.673424 0.636990 0.815146 0.105459
S8    S     S_3+6 0.325797 0.365030 0.185135 0.094124

loop_
_geom_bond_atom_site_label_1
_geom_bond_atom_site_label_2
_ccdc_geom_bond_type
C33   H13   S    
C11   C18   S    
C16   C21   S    
C20   O8    S    
C34   C37   A    
Cu1   Cu2   S    
H24   O28   S    
O26   S8    D    
C13   O33   A    
C36   S6    S    
C17   S2    S    
O20   S6    D    
Cu1   O29   S    
O15   S4    S    
C29   C30   S    
C35   H16   S    
C34   C40   A    
C30   H6    S    
C24   C26   S    
O25   S7    S    
C30   C31   S    
C37   S5    S    
O21   S6    S    
H21   O21   S    
C17   C20   S    
O34   S1    D    
C35   H17   S    
O16   S5    D    
C14   C24   S    
C5    N2    A    
C19   C26   T    
C32   H10   S    
C2    C39   A    
C15   C22   S    
C27   C39   A    
O2    S1    D    
C22   C25   S    
H20   O18   S    
C1    C28   S    
O22   S7    D    
C11   O30   A    
Cu2   O12   S    
C9    C10   A    
C33   H14   S    
C39   S3    S    
C18   C25   T    
C31   H7    S    
H19   O15   S    
C16   S1    S    
C7    N2    A    
H22   O25   S    
Cu2   N2    S    
O10   S3    D    
C13   C19   S    
C12   C27   S    
C1    O1    A    
C15   H12   S    
C14   C20   S    
C30   H5    S    
H2    O6    S    
C3    H28   S    
C12   O29   A    
C13   O31   A    
Cu2   O23   S    
C1    O23   A    
O13   S4    D    
C3    C5    A    
O17   S5    D    
C29   H3    S    
C29   O7    S    
H30   O3    S    
C31   H9    S    
Cu1   O1    S    
C28   C38   A    
C11   O32   A    
O4    S2    D    
O3    S1    S    
Cu2   O32   S    
C4    C6    A    
C21   O7    S    
C8    H26   S    
C5    S8    S    
O9    S3    D    
C31   H8    S    
C38   S4    S    
C32   H11   S    
C6    N1    A    
O18   S5    S    
C7    C9    A    
C16   C22   S    
Cu1   O33   S    
O5    S2    D    
C20   C22   S    
O11   S3    S    
C34   H25   S    
C7    H27   S    
H18   O11   S    
C15   C17   S    
C32   O8    S    
Cu1   O30   S    
C12   O12   A    
C29   H4    S    
C35   H15   S    
C32   C33   S    
C23   H23   S    
C17   C24   S    
C3    C10   A    
C38   C40   A    
O24   S7    D    
C27   C37   A    
C8    N1    A    
C33   C35   S    
C14   C16   S    
O19   S6    D    
Cu2   O31   S    
C6    S7    S    
O28   S8    S    
Cu1   N1    S    
O14   S4    D    
C2    C40   A    
C15   C21   S    
C28   C36   A    
C8    C10   A    
C23   C36   A    
C21   C24   S    
O6    S2    S    
C2    C23   A    
O27   S8    D    
C4    C9    A    
C4    H29   S    
C14   H1    S    
