data_mof_unit_61434.cif
_audit_creation_date              2013-03-05T16:17:02-0500
_audit_creation_method            fapswitch 2.2
_symmetry_space_group_name_H-M    P1
_symmetry_Int_Tables_number       1
_space_group_crystal_system       triclinic
_cell_length_a                    13.075531
_cell_length_b                    13.626539
_cell_length_c                    15.745594
_cell_angle_alpha                 90.024305
_cell_angle_beta                  92.71962
_cell_angle_gamma                 85.790435
_cell_volume                      2794.72619295

loop_
_atom_site_label
_atom_site_type_symbol
_atom_site_description
_atom_site_fract_x
_atom_site_fract_y
_atom_site_fract_z
_atom_type_partial_charge
O1    O     O_R   0.402510 0.634760 0.495090 -0.601252
O2    O     O_R   0.597490 0.365240 0.504910 -0.593705
O3    O     O_R   0.572960 0.644530 0.503700 -0.603959
O4    O     O_R   0.427040 0.355470 0.496300 -0.604729
C1    C     C_R   0.481280 0.685119 0.499099 0.885620
C2    C     C_R   0.518721 0.314881 0.500901 0.885998
O5    O     O_R   0.414790 0.495120 0.618920 -0.591916
O6    O     O_R   0.585210 0.504880 0.381080 -0.598835
O7    O     O_R   0.585240 0.504900 0.627530 -0.607172
O8    O     O_R   0.414760 0.495100 0.372470 -0.606137
C3    C     C_R   0.499420 0.500005 0.662313 0.896948
C4    C     C_R   0.500577 0.499996 0.337686 0.896971
Zn1   Zn    Zn3+2 0.386190 0.493480 0.494250 1.035022
Zn2   Zn    Zn3+2 0.613810 0.506520 0.505750 1.035898
C5    C     C_3   0.443321 0.580193 0.026491 -0.202370
C6    C     C_3   0.556580 0.419855 0.973496 -0.201937
C7    C     C_3   0.539910 0.582493 0.972878 -0.201214
C8    C     C_3   0.459990 0.417554 0.027107 -0.200796
H1    H     H_    0.573252 0.649273 0.949057 0.160204
H2    H     H_    0.426648 0.350774 0.050927 0.160484
H3    H     H_    0.396479 0.645059 0.049811 0.159169
H4    H     H_    0.603422 0.354989 0.950175 0.159524
C9    C     C_1   0.498272 0.499952 0.751076 -0.142860
C10   C     C_1   0.501706 0.500068 0.248918 -0.146661
C11   C     C_3   0.404008 0.497725 0.969475 0.036154
C12   C     C_3   0.595893 0.502323 0.030508 0.038454
C13   C     C_3   0.499035 0.499988 0.917084 0.134469
C14   C     C_3   0.500869 0.500059 0.082903 0.134701
C15   C     C_1   0.498226 0.499952 0.826269 -0.036952
C16   C     C_1   0.501715 0.500084 0.173722 -0.038466
C17   C     C_1   0.533523 0.211723 0.501618 -0.143869
C18   C     C_1   0.466483 0.788278 0.498384 -0.148228
C19   C     C_2   0.544478 0.020565 0.502146 -0.151054
C20   C     C_2   0.455536 0.979437 0.497859 -0.153637
C21   C     C_1   0.457650 0.875690 0.497959 0.033209
C22   C     C_1   0.542361 0.124311 0.502044 0.035396
H5    H     H_    0.382309 0.022907 0.494329 0.174593
H6    H     H_    0.617705 0.977095 0.505675 0.175862
N1    N     N_1   0.234530 0.484780 0.486590 -0.073780
N2    N     N_1   0.765470 0.515220 0.513410 -0.073532
C23   C     C_2   0.033645 0.469668 0.477221 0.092137
C24   C     C_2   0.967309 0.521701 0.529106 0.091899
C25   C     C_1   0.854697 0.517687 0.519135 0.228087
C26   C     C_1   0.145643 0.479278 0.483093 0.226862
C27   C     C_1   0.701552 0.504844 0.065752 0.188269
N3    N     N_1   0.784870 0.506832 0.093597 -0.146037
C28   C     C_1   0.298361 0.495209 0.934197 0.192397
N4    N     N_1   0.215057 0.493228 0.906318 -0.135418
N5    N     N_R   0.005072 0.584909 0.595364 0.207985
O9    O     O_R   0.944507 0.656001 0.624279 -0.360517
O10   O     O_R   0.093848 0.564533 0.634771 -0.374159
N6    N     N_R   0.996135 0.404342 0.412510 0.208419
O11   O     O_R   0.051579 0.381641 0.347868 -0.359097
O12   O     O_R   0.914412 0.357408 0.422799 -0.376443

loop_
_geom_bond_atom_site_label_1
_geom_bond_atom_site_label_2
_geom_bond_distance
_ccdc_geom_bond_type
O6    Zn2   1.981225 S    
O7    Zn2   1.971310 S    
C5    C7    1.554239 S    
N1    C26   1.168834 T    
C11   C13   1.525865 S    
C20   H5    1.087404 S    
C13   C15   1.429473 S    
C23   C24   1.378022 D    
C4    C10   1.398479 S    
C23   N6    1.444663 S    
C12   C14   1.525873 S    
C19   H6    1.087404 S    
C5    H3    1.110335 S    
O6    C4    1.278639 A    
C1    C18   1.404792 S    
C6    C13   1.537594 S    
C14   C16   1.429514 S    
C19   C20   1.326395 D    
C6    C8    1.554235 S    
C8    C11   1.540503 S    
C27   N3    1.157060 T    
O5    C3    1.278598 A    
O7    C3    1.277861 A    
C5    C14   1.537630 S    
O2    C2    1.277979 A    
O3    Zn2   1.916752 S    
O8    C4    1.277844 A    
O1    C1    1.277990 A    
C7    C12   1.540476 S    
C9    C15   1.183987 T    
C3    C9    1.398430 S    
C7    H1    1.110329 S    
N6    O12   1.301511 A    
C2    C17   1.404785 S    
C8    H2    1.110328 S    
C6    C12   1.540469 S    
O2    Zn2   1.952424 S    
C23   C26   1.478367 S    
C10   C16   1.184014 T    
Zn1   N1    1.993197 S    
O1    Zn1   1.952425 S    
C24   C25   1.478394 S    
C24   N5    1.444606 S    
Zn2   N2    1.993198 S    
C7    C13   1.537603 S    
C18   C21   1.188234 T    
O5    Zn1   1.981225 S    
C19   C22   1.411945 S    
C8    C14   1.537638 S    
N6    O11   1.301566 A    
C5    C11   1.540499 S    
O4    C2    1.281662 A    
C20   C21   1.411947 S    
O4    Zn1   1.916752 S    
N5    O9    1.301561 A    
C11   C28   1.466996 S    
C17   C22   1.188231 T    
C6    H4    1.110335 S    
C12   C27   1.466970 S    
O3    C1    1.281652 A    
N2    C25   1.168849 T    
C28   N4    1.157067 T    
N5    O10   1.301548 A    
O8    Zn1   1.971308 S    
