data_mof_unit_48782.cif
_audit_creation_date              2012-12-10T18:04:00-0500
_audit_creation_method            fapswitch 2.2
_symmetry_space_group_name_H-M    P1
_symmetry_Int_Tables_number       1
_space_group_crystal_system       triclinic
_cell_length_a                    10.76289
_cell_length_b                    9.587486
_cell_length_c                    10.844906
_cell_angle_alpha                 89.620789
_cell_angle_beta                  91.575489
_cell_angle_gamma                 90.008453
_cell_volume                      1118.62807807

loop_
_atom_site_label
_atom_site_type_symbol
_atom_type_description
_atom_site_fract_x
_atom_site_fract_y
_atom_site_fract_z
_atom_type_partial_charge
C1    C     C_R   0.262558 0.499924 0.497080 0.835344
C2    C     C_R   0.737545 0.499760 0.497466 0.832820
C3    C     C_R   0.417308 0.076327 0.428281 -0.032661
C4    C     C_R   0.581830 0.075105 0.572900 -0.032895
C5    C     C_R   0.415404 0.928979 0.428831 0.224459
C6    C     C_R   0.582194 0.927549 0.573935 0.230612
C7    C     C_R   0.500897 0.500216 0.262245 0.839602
C8    C     C_R   0.503300 0.499499 0.737492 0.801518
C9    C     C_R   0.516300 0.624331 0.062255 0.128138
C10   C     C_R   0.519495 0.623778 0.935208 0.160269
C11   C     C_R   0.511494 0.499497 0.128952 -0.087815
C12   C     C_R   0.516190 0.498478 0.870733 -0.099733
C13   C     C_R   0.524797 0.372927 0.065533 -0.149618
C14   C     C_R   0.527339 0.372408 0.936992 -0.190439
C15   C     C_3   0.434898 0.746405 0.921938 -0.444585
C16   C     C_3   0.428691 0.745084 0.061022 -0.434922
C17   C     C_R   0.062723 0.435878 0.393759 0.136528
C18   C     C_R   0.932316 0.434466 0.394488 0.135740
C19   C     C_R   0.871501 0.498920 0.492545 -0.098648
C20   C     C_R   0.128768 0.499851 0.491962 -0.085074
C21   C     C_R   0.938931 0.563328 0.587962 -0.167366
C22   C     C_R   0.067136 0.564492 0.587404 -0.175460
Cu1   Cu    Cu3+1 0.500000 0.640660 0.500000 1.010771
Cu2   Cu    Cu3+1 0.500000 0.359340 0.500000 0.986178
H1    H     H_    0.528072 0.274039 0.114378 0.184368
H2    H     H_    0.531682 0.273287 0.889960 0.173442
H3    H     H_    0.482777 0.839989 0.885369 0.223457
H4    H     H_    0.335132 0.714673 0.092366 0.233510
H5    H     H_    0.344829 0.720672 0.874667 0.203772
H6    H     H_    0.470354 0.839329 0.104716 0.221923
H7    H     H_    0.892399 0.609704 0.664628 0.180162
H8    H     H_    0.118616 0.613464 0.662765 0.154459
H9    H     H_    0.350718 0.133885 0.371537 0.177240
H10   H     H_    0.646689 0.131749 0.631839 0.156541
N1    N     N_R   0.500000 0.852070 0.500000 -0.194457
N2    N     N_R   0.500000 0.147940 0.500000 -0.192516
O1    O     O_R   0.319640 0.618740 0.499990 -0.555192
O2    O     O_R   0.680360 0.618740 0.500010 -0.550445
O3    O     O_R   0.319620 0.381170 0.499990 -0.570765
O4    O     O_R   0.680380 0.381170 0.500010 -0.568717
O5    O     O_R   0.499990 0.618810 0.319660 -0.562993
O6    O     O_R   0.500010 0.618810 0.680340 -0.564514
O7    O     O_R   0.499960 0.381240 0.319650 -0.573835
O8    O     O_R   0.500040 0.381240 0.680350 -0.590943
I1    I     I_    0.160416 0.351848 0.241619 -0.313125
I2    I     I_    0.827493 0.340981 0.246382 -0.290702
I3    I     I_    0.266691 0.845512 0.321108 -0.328022
I4    I     I_    0.711591 0.839120 0.702264 -0.375413

loop_
_geom_bond_atom_site_label_1
_geom_bond_atom_site_label_2
_ccdc_geom_bond_type
C16   H4    S    
C8    O8    A    
Cu1   Cu2   S    
C4    N2    A    
C2    O4    A    
Cu1   O2    S    
C5    I3    S    
C9    C10   A    
C2    O2    A    
C15   H3    S    
Cu1   O5    S    
C1    O1    A    
C8    C12   S    
C21   H7    S    
C17   C18   A    
C20   C22   A    
Cu1   O1    S    
C13   C14   A    
C14   H2    S    
C7    C11   S    
C9    C11   A    
C13   H1    S    
Cu2   N2    S    
Cu1   O6    S    
C22   H8    S    
C3    N2    A    
C10   C12   A    
C19   C21   A    
C9    C16   S    
C8    O6    A    
C15   H5    S    
Cu1   N1    S    
C10   C15   S    
C7    O5    A    
Cu2   O8    S    
C4    H10   S    
C1    O3    A    
C16   H6    S    
C15   C16   S    
C18   I2    S    
C5    N1    A    
C11   C13   A    
Cu2   O3    S    
C6    N1    A    
C4    C6    A    
C18   C19   A    
C7    O7    A    
Cu2   O7    S    
C3    H9    S    
C1    C20   S    
Cu2   O4    S    
C2    C19   S    
C21   C22   A    
C17   C20   A    
C17   I1    S    
C12   C14   A    
C3    C5    A    
C6    I4    S    
