data_mof_unit_65168.cif
_audit_creation_date              2013-03-05T16:34:53-0500
_audit_creation_method            fapswitch 2.2
_symmetry_space_group_name_H-M    P1
_symmetry_Int_Tables_number       1
_space_group_crystal_system       triclinic
_cell_length_a                    35.542964
_cell_length_b                    35.543175
_cell_length_c                    29.128272
_cell_angle_alpha                 90.000059
_cell_angle_beta                  89.999869
_cell_angle_gamma                 89.998904
_cell_volume                      36798.0311611

loop_
_atom_site_label
_atom_site_type_symbol
_atom_site_description
_atom_site_fract_x
_atom_site_fract_y
_atom_site_fract_z
_atom_type_partial_charge
O1    O     O_R   0.968700 0.444570 0.500010 -0.586897
O2    O     O_R   0.444570 0.031300 0.500010 -0.586902
O3    O     O_R   0.031300 0.555430 0.500010 -0.586895
O4    O     O_R   0.555430 0.968700 0.500010 -0.586900
O5    O     O_R   0.968700 0.555430 0.499990 -0.586897
O6    O     O_R   0.444570 0.968700 0.499990 -0.586886
O7    O     O_R   0.031300 0.444570 0.499990 -0.586895
O8    O     O_R   0.555430 0.031300 0.499990 -0.586888
O9    O     O_R   0.468700 0.944570 0.000010 -0.586897
O10   O     O_R   0.944570 0.531300 0.000010 -0.586898
O11   O     O_R   0.531300 0.055430 0.000010 -0.586896
O12   O     O_R   0.055430 0.468700 0.000010 -0.586898
O13   O     O_R   0.468700 0.055430 0.999990 -0.586898
O14   O     O_R   0.944570 0.468700 0.999990 -0.586896
O15   O     O_R   0.531300 0.944570 0.999990 -0.586898
O16   O     O_R   0.055430 0.531300 0.999990 -0.586896
C1    C     C_R   0.000000 0.426723 0.500000 0.986801
C2    C     C_R   0.426723 0.000000 0.500001 0.986796
C3    C     C_R   1.000000 0.573277 0.500000 0.986801
C4    C     C_R   0.573277 1.000000 0.500000 0.986800
C5    C     C_R   0.500000 0.926723 1.000000 0.986807
C6    C     C_R   0.926723 0.500000 0.000000 0.986804
C7    C     C_R   0.500000 0.073277 1.000000 0.986807
C8    C     C_R   0.073277 0.500000 0.000000 0.986804
O17   O     O_R   0.968700 0.500000 0.436870 -0.585972
O18   O     O_R   0.500000 0.031300 0.436870 -0.585974
O19   O     O_R   0.031300 0.500000 0.436870 -0.585970
O20   O     O_R   0.500000 0.968700 0.436870 -0.585972
O21   O     O_R   0.968700 0.500000 0.563130 -0.585972
O22   O     O_R   0.500000 0.968700 0.563130 -0.585967
O23   O     O_R   0.031300 0.500000 0.563130 -0.585971
O24   O     O_R   0.500000 0.031300 0.563130 -0.585971
O25   O     O_R   0.468700 1.000000 0.936870 -0.585973
O26   O     O_R   0.000000 0.531300 0.936870 -0.585971
O27   O     O_R   0.531300 1.000000 0.936870 -0.585973
O28   O     O_R   0.000000 0.468700 0.936870 -0.585973
O29   O     O_R   0.468700 1.000000 0.063130 -0.585974
O30   O     O_R   0.000000 0.468700 0.063130 -0.585971
O31   O     O_R   0.531300 1.000000 0.063130 -0.585973
O32   O     O_R   0.000000 0.531300 0.063130 -0.585971
C9    C     C_R   0.000000 0.500000 0.414171 0.944546
C10   C     C_R   0.500000 1.000000 0.414171 0.944539
C11   C     C_R   1.000000 0.500000 0.585829 0.944547
C12   C     C_R   0.500000 1.000000 0.585829 0.944555
C13   C     C_R   0.500000 0.000000 0.914171 0.944553
C14   C     C_R   1.000000 0.500000 0.914171 0.944553
C15   C     C_R   0.500000 1.000000 0.085829 0.944554
C16   C     C_R   0.000000 0.500000 0.085829 0.944552
Zn1   Zn    Zn3+2 0.958200 0.500000 0.500000 1.119252
Zn2   Zn    Zn3+2 0.500000 0.041800 0.500000 1.119245
Zn3   Zn    Zn3+2 0.041800 0.500000 0.500000 1.119254
Zn4   Zn    Zn3+2 0.500000 0.958200 0.500000 1.119248
Zn5   Zn    Zn3+2 0.458200 0.000000 0.000000 1.119239
Zn6   Zn    Zn3+2 0.000000 0.541800 0.000000 1.119245
Zn7   Zn    Zn3+2 0.541800 0.000000 0.000000 1.119240
Zn8   Zn    Zn3+2 0.000000 0.458200 0.000000 1.119244
C17   C     C_1   0.000000 0.500000 0.363382 -0.080924
C18   C     C_1   0.500000 1.000000 0.363382 -0.080937
C19   C     C_1   1.000000 0.500000 0.636618 -0.080925
C20   C     C_1   0.500000 1.000000 0.636618 -0.080915
C21   C     C_1   0.500000 1.000000 0.863382 -0.080926
C22   C     C_1   1.000000 0.500000 0.863382 -0.080920
C23   C     C_1   0.500000 0.000000 0.136618 -0.080928
C24   C     C_1   1.000000 0.500000 0.136618 -0.080919
C25   C     C_1   0.000000 0.500000 0.321088 0.059747
C26   C     C_1   0.500000 1.000000 0.321089 0.059745
C27   C     C_1   1.000000 0.500000 0.678911 0.059746
C28   C     C_1   0.500000 0.000000 0.678911 0.059743
C29   C     C_1   0.500000 0.000000 0.821088 0.059743
C30   C     C_1   1.000000 0.500000 0.821089 0.059746
C31   C     C_1   0.500000 1.000000 0.178911 0.059744
C32   C     C_1   0.000000 0.500000 0.178911 0.059747
C33   C     C_1   0.000000 0.500000 0.271148 0.059919
C34   C     C_1   0.500000 1.000000 0.271148 0.059917
C35   C     C_1   1.000000 0.500000 0.728852 0.059918
C36   C     C_1   0.500000 1.000000 0.728852 0.059915
C37   C     C_1   0.500000 1.000000 0.771148 0.059915
C38   C     C_1   1.000000 0.500000 0.771148 0.059918
C39   C     C_1   0.500000 1.000000 0.228852 0.059916
C40   C     C_1   0.000000 0.500000 0.228852 0.059919
C41   C     C_R   0.021535 0.174340 0.532188 -0.172649
C42   C     C_R   0.174331 0.978345 0.532070 -0.172614
C43   C     C_R   0.978472 0.825659 0.532199 -0.172661
C44   C     C_R   0.825667 0.021650 0.532073 -0.172628
C45   C     C_R   0.021529 0.825657 0.467804 -0.172655
C46   C     C_R   0.174341 0.021725 0.467997 -0.172648
C47   C     C_R   0.978448 0.174343 0.467825 -0.172642
C48   C     C_R   0.825660 0.978292 0.467978 -0.172645
C49   C     C_R   0.521587 0.674338 0.032140 -0.172672
C50   C     C_R   0.674339 0.478415 0.032140 -0.172671
C51   C     C_R   0.478413 0.325662 0.032140 -0.172672
C52   C     C_R   0.325661 0.521585 0.032141 -0.172671
C53   C     C_R   0.521584 0.325661 0.967859 -0.172672
C54   C     C_R   0.674338 0.521587 0.967860 -0.172672
C55   C     C_R   0.478416 0.674339 0.967859 -0.172672
C56   C     C_R   0.325662 0.478413 0.967860 -0.172672
H1    H     H_    0.038539 0.189912 0.556562 0.192763
H2    H     H_    0.189901 0.961234 0.556335 0.192783
H3    H     H_    0.961478 0.810088 0.556584 0.192760
H4    H     H_    0.810095 0.038754 0.556345 0.192788
H5    H     H_    0.038522 0.810083 0.443420 0.192770
H6    H     H_    0.189925 0.038843 0.443753 0.192941
H7    H     H_    0.961442 0.189918 0.443456 0.192801
H8    H     H_    0.810079 0.961182 0.443723 0.192912
H9    H     H_    0.538623 0.689911 0.056480 0.192774
H10   H     H_    0.689913 0.461378 0.056479 0.192774
H11   H     H_    0.461377 0.310090 0.056480 0.192774
H12   H     H_    0.310087 0.538621 0.056480 0.192774
H13   H     H_    0.538621 0.310087 0.943519 0.192774
H14   H     H_    0.689911 0.538624 0.943521 0.192774
H15   H     H_    0.461379 0.689913 0.943520 0.192774
H16   H     H_    0.310089 0.461376 0.943521 0.192774
C57   C     C_R   0.022342 0.135079 0.532199 0.281282
C58   C     C_R   0.135070 0.977537 0.532064 0.281053
C59   C     C_R   0.977666 0.864920 0.532211 0.281288
C60   C     C_R   0.864928 0.022458 0.532072 0.281083
C61   C     C_R   0.022336 0.864918 0.467791 0.281290
C62   C     C_R   0.135077 0.022529 0.467969 0.280990
C63   C     C_R   0.977640 0.135081 0.467810 0.281244
C64   C     C_R   0.864924 0.977488 0.467956 0.280998
C65   C     C_R   0.522393 0.635076 0.032151 0.281195
C66   C     C_R   0.635078 0.477608 0.032150 0.281193
C67   C     C_R   0.477607 0.364923 0.032151 0.281196
C68   C     C_R   0.364922 0.522392 0.032151 0.281192
C69   C     C_R   0.522391 0.364922 0.967849 0.281194
C70   C     C_R   0.635076 0.522393 0.967849 0.281195
C71   C     C_R   0.477608 0.635078 0.967849 0.281194
C72   C     C_R   0.364924 0.477607 0.967850 0.281195
C73   C     C_R   0.999994 0.115135 0.500002 -0.271236
C74   C     C_R   0.115131 0.000022 0.500005 -0.271463
C75   C     C_R   0.000001 0.884864 0.500000 -0.271221
C76   C     C_R   0.884869 0.999982 0.500005 -0.271446
C77   C     C_R   0.500000 0.615134 0.000000 -0.271344
C78   C     C_R   0.615134 0.500000 1.000000 -0.271345
C79   C     C_R   0.500000 0.384866 1.000000 -0.271344
C80   C     C_R   0.384866 0.499999 0.000000 -0.271345
C81   C     C_R   0.999993 0.193641 0.500007 0.011960
C82   C     C_R   0.193636 0.000034 0.500037 0.011911
C83   C     C_R   1.000000 0.806359 0.500001 0.011976
C84   C     C_R   0.806364 0.999973 0.500027 0.011922
C85   C     C_R   0.500001 0.693638 1.000000 0.011976
C86   C     C_R   0.693638 0.500001 0.000000 0.011976
C87   C     C_R   0.499999 0.306362 0.999999 0.011976
C88   C     C_R   0.306362 0.499998 0.000001 0.011976
C89   C     C_1   0.999995 0.233606 0.500007 0.037161
C90   C     C_1   0.233602 0.000029 0.500042 0.037102
C91   C     C_1   0.999999 0.766393 0.500002 0.037166
C92   C     C_1   0.766398 0.999976 0.500030 0.037108
C93   C     C_1   0.500002 0.733604 0.999999 0.037141
C94   C     C_1   0.733604 0.500002 0.000000 0.037142
C95   C     C_1   0.499998 0.266396 0.999999 0.037142
C96   C     C_1   0.266396 0.499998 0.000001 0.037142
C97   C     C_1   0.999996 0.267203 0.500006 0.034999
C98   C     C_1   0.267199 0.000024 0.500040 0.034995
C99   C     C_1   0.999998 0.732797 0.500001 0.034995
C100  C     C_1   0.732801 0.999981 0.500028 0.034994
C101  C     C_1   0.500002 0.767201 0.999999 0.034988
C102  C     C_1   0.767201 0.500002 0.000000 0.034988
C103  C     C_1   0.499998 0.232799 0.999999 0.034988
C104  C     C_1   0.232799 0.499998 0.000001 0.034988
C105  C     C_R   0.022936 0.326470 0.530732 -0.181697
C106  C     C_R   0.326470 0.977076 0.530754 -0.181707
C107  C     C_R   0.977061 0.673530 0.530730 -0.181697
C108  C     C_R   0.673531 0.022926 0.530747 -0.181706
C109  C     C_R   0.022936 0.673530 0.469271 -0.181700
C110  C     C_R   0.326466 0.022950 0.469294 -0.181709
C111  C     C_R   0.977062 0.326470 0.469273 -0.181700
C112  C     C_R   0.673533 0.977053 0.469286 -0.181708
C113  C     C_R   0.522938 0.826469 0.030730 -0.181703
C114  C     C_R   0.826469 0.477066 0.030732 -0.181703
C115  C     C_R   0.477062 0.173531 0.030730 -0.181703
C116  C     C_R   0.173531 0.522934 0.030732 -0.181703
C117  C     C_R   0.522935 0.173531 0.969268 -0.181705
C118  C     C_R   0.826469 0.522938 0.969269 -0.181703
C119  C     C_R   0.477065 0.826469 0.969269 -0.181705
C120  C     C_R   0.173531 0.477062 0.969270 -0.181703
H17   H     H_    0.040194 0.310887 0.554828 0.194302
H18   H     H_    0.310889 0.959821 0.554853 0.194302
H19   H     H_    0.959803 0.689112 0.554825 0.194302
H20   H     H_    0.689112 0.040181 0.554846 0.194303
H21   H     H_    0.040194 0.689112 0.445176 0.194302
H22   H     H_    0.310882 0.040210 0.445203 0.194310
H23   H     H_    0.959803 0.310888 0.445178 0.194304
H24   H     H_    0.689117 0.959794 0.445193 0.194309
H25   H     H_    0.540196 0.810886 0.054826 0.194303
H26   H     H_    0.810887 0.459809 0.054828 0.194303
H27   H     H_    0.459804 0.189114 0.054825 0.194303
H28   H     H_    0.189113 0.540191 0.054828 0.194303
H29   H     H_    0.540192 0.189113 0.945173 0.194303
H30   H     H_    0.810886 0.540195 0.945173 0.194303
H31   H     H_    0.459808 0.810887 0.945173 0.194303
H32   H     H_    0.189114 0.459805 0.945174 0.194303
C121  C     C_R   0.022827 0.365739 0.531694 0.270224
C122  C     C_R   0.365739 0.977179 0.531706 0.270224
C123  C     C_R   0.977171 0.634261 0.531693 0.270225
C124  C     C_R   0.634261 0.022822 0.531702 0.270224
C125  C     C_R   0.022826 0.634261 0.468307 0.270227
C126  C     C_R   0.365735 0.022832 0.468319 0.270226
C127  C     C_R   0.977173 0.365739 0.468308 0.270226
C128  C     C_R   0.634264 0.977169 0.468314 0.270225
C129  C     C_R   0.522828 0.865738 0.031693 0.270223
C130  C     C_R   0.865738 0.477176 0.031695 0.270225
C131  C     C_R   0.477172 0.134262 0.031693 0.270224
C132  C     C_R   0.134261 0.522824 0.031695 0.270225
C133  C     C_R   0.522825 0.134262 0.968305 0.270225
C134  C     C_R   0.865738 0.522827 0.968306 0.270225
C135  C     C_R   0.477175 0.865738 0.968305 0.270226
C136  C     C_R   0.134262 0.477173 0.968306 0.270224
C137  C     C_R   0.000001 0.385633 0.500000 -0.288987
C138  C     C_R   0.385632 0.000002 0.500007 -0.288989
C139  C     C_R   0.999999 0.614367 0.500000 -0.288988
C140  C     C_R   0.614368 0.999998 0.500005 -0.288989
C141  C     C_R   0.500001 0.885632 0.999999 -0.288989
C142  C     C_R   0.885632 0.500001 0.000000 -0.288987
C143  C     C_R   0.499999 0.114368 0.999999 -0.288989
C144  C     C_R   0.114368 0.499999 0.000000 -0.288986
C145  C     C_R   0.999998 0.307169 0.500004 0.011289
C146  C     C_R   0.307166 0.000017 0.500030 0.011288
C147  C     C_R   0.999998 0.692831 0.500001 0.011289
C148  C     C_R   0.692834 0.999986 0.500021 0.011288
C149  C     C_R   0.500002 0.807168 0.999999 0.011289
C150  C     C_R   0.807168 0.500002 0.000001 0.011289
C151  C     C_R   0.499998 0.192832 0.999999 0.011289
C152  C     C_R   0.192832 0.499998 0.000001 0.011289
O33   O     O_R   0.055320 0.999990 0.464380 -0.585896
O34   O     O_R   0.999990 0.944680 0.464380 -0.585765
O35   O     O_R   0.944680 0.000010 0.464380 -0.585884
O36   O     O_R   0.000010 0.055320 0.464380 -0.585756
O37   O     O_R   0.055320 0.000010 0.535620 -0.585916
O38   O     O_R   0.999990 0.055320 0.535620 -0.585840
O39   O     O_R   0.944680 0.999990 0.535620 -0.585912
O40   O     O_R   0.000010 0.944680 0.535620 -0.585827
O41   O     O_R   0.555320 0.499990 0.964380 -0.585834
O42   O     O_R   0.499990 0.444680 0.964380 -0.585830
O43   O     O_R   0.444680 0.500010 0.964380 -0.585834
O44   O     O_R   0.500010 0.555320 0.964380 -0.585830
O45   O     O_R   0.555320 0.500010 0.035620 -0.585831
O46   O     O_R   0.499990 0.555320 0.035620 -0.585833
O47   O     O_R   0.444680 0.499990 0.035620 -0.585831
O48   O     O_R   0.500010 0.444680 0.035620 -0.585832
C153  C     C_R   0.073994 0.000007 0.500000 1.046448
C154  C     C_R   0.000001 0.926004 0.500000 1.046442
C155  C     C_R   0.926005 0.999994 0.500000 1.046412
C156  C     C_R   0.999998 0.073996 0.500000 1.046533
C157  C     C_R   0.573995 0.500000 1.000000 1.046175
C158  C     C_R   0.500000 0.426005 1.000000 1.046178
C159  C     C_R   0.426005 0.500000 0.000000 1.046176
C160  C     C_R   0.500000 0.573995 0.000000 1.046177
Zn9   Zn    Zn3+2 0.000000 1.000000 0.452410 1.201823
Zn10  Zn    Zn3+2 0.000000 1.000000 0.547590 1.201958
Zn11  Zn    Zn3+2 0.500000 0.500000 0.952410 1.202025
Zn12  Zn    Zn3+2 0.500000 0.500000 0.047590 1.202025
N1    N     N_R   0.046950 0.116149 0.563874 0.227429
O49   O     O_R   0.051890 0.129671 0.604952 -0.327359
O50   O     O_R   0.069015 0.089372 0.549625 -0.354566
N2    N     N_R   0.116134 0.952794 0.563580 0.227382
O51   O     O_R   0.129674 0.947643 0.604612 -0.327365
O52   O     O_R   0.089315 0.930837 0.549204 -0.355133
N3    N     N_R   0.953068 0.883851 0.563898 0.227433
O53   O     O_R   0.948148 0.870333 0.604981 -0.327345
O54   O     O_R   0.930993 0.910622 0.549656 -0.354570
N4    N     N_R   0.883862 0.047191 0.563601 0.227394
O55   O     O_R   0.870316 0.052335 0.604631 -0.327370
O56   O     O_R   0.910685 0.069149 0.549238 -0.355086
N5    N     N_R   0.046937 0.883846 0.436105 0.227427
O57   O     O_R   0.051874 0.870316 0.395030 -0.327382
O58   O     O_R   0.069003 0.910625 0.450346 -0.354599
N6    N     N_R   0.116152 0.047298 0.436465 0.227477
O59   O     O_R   0.129859 0.052684 0.395550 -0.327532
O60   O     O_R   0.089197 0.069109 0.450806 -0.355227
N7    N     N_R   0.953020 0.116154 0.436145 0.227445
O61   O     O_R   0.948019 0.129714 0.395096 -0.327413
O62   O     O_R   0.930992 0.089348 0.450392 -0.354663
N8    N     N_R   0.883852 0.952729 0.436443 0.227460
O63   O     O_R   0.870178 0.947396 0.395503 -0.327488
O64   O     O_R   0.910778 0.930884 0.450788 -0.355224
N9    N     N_R   0.547047 0.616144 0.063771 0.227424
O65   O     O_R   0.552067 0.629677 0.104829 -0.327332
O66   O     O_R   0.569071 0.589349 0.049478 -0.354865
N10   N     N_R   0.616146 0.452952 0.063770 0.227425
O67   O     O_R   0.629679 0.447932 0.104828 -0.327332
O68   O     O_R   0.589352 0.430929 0.049476 -0.354865
N11   N     N_R   0.452953 0.383856 0.063771 0.227425
O69   O     O_R   0.447933 0.370323 0.104829 -0.327333
O70   O     O_R   0.430929 0.410651 0.049478 -0.354865
N12   N     N_R   0.383853 0.547048 0.063770 0.227424
O71   O     O_R   0.370320 0.552068 0.104828 -0.327332
O72   O     O_R   0.410647 0.569071 0.049476 -0.354865
N13   N     N_R   0.547047 0.383853 0.936229 0.227424
O73   O     O_R   0.552066 0.370320 0.895171 -0.327332
O74   O     O_R   0.569070 0.410647 0.950522 -0.354863
N14   N     N_R   0.616144 0.547048 0.936230 0.227424
O75   O     O_R   0.629677 0.552068 0.895172 -0.327334
O76   O     O_R   0.589349 0.569071 0.950523 -0.354868
N15   N     N_R   0.452953 0.616147 0.936229 0.227425
O77   O     O_R   0.447934 0.629680 0.895171 -0.327333
O78   O     O_R   0.430930 0.589353 0.950523 -0.354863
N16   N     N_R   0.383856 0.452952 0.936230 0.227424
O79   O     O_R   0.370323 0.447931 0.895172 -0.327333
O80   O     O_R   0.410651 0.430929 0.950524 -0.354867
N17   N     N_R   0.044860 0.384763 0.566013 0.226876
O81   O     O_R   0.076960 0.370759 0.579045 -0.333095
O82   O     O_R   0.030482 0.412498 0.589295 -0.400224
N18   N     N_R   0.384766 0.955144 0.566020 0.226874
O83   O     O_R   0.370761 0.923045 0.579055 -0.333101
O84   O     O_R   0.412505 0.969519 0.589298 -0.400234
N19   N     N_R   0.955140 0.615237 0.566013 0.226876
O85   O     O_R   0.923039 0.629241 0.579045 -0.333097
O86   O     O_R   0.969518 0.587502 0.589295 -0.400225
N20   N     N_R   0.615235 0.044855 0.566019 0.226874
O87   O     O_R   0.629241 0.076953 0.579055 -0.333100
O88   O     O_R   0.587496 0.030480 0.589297 -0.400234
N21   N     N_R   0.044858 0.615237 0.433987 0.226877
O89   O     O_R   0.076958 0.629241 0.420954 -0.333099
O90   O     O_R   0.030480 0.587502 0.410705 -0.400223
N22   N     N_R   0.384757 0.044859 0.433993 0.226877
O91   O     O_R   0.370753 0.076960 0.420959 -0.333096
O92   O     O_R   0.412489 0.030478 0.410708 -0.400218
N23   N     N_R   0.955143 0.384764 0.433986 0.226877
O93   O     O_R   0.923043 0.370760 0.420952 -0.333098
O94   O     O_R   0.969522 0.412498 0.410704 -0.400223
N24   N     N_R   0.615242 0.955142 0.433989 0.226876
O95   O     O_R   0.629246 0.923042 0.420954 -0.333097
O96   O     O_R   0.587508 0.969522 0.410707 -0.400221
N25   N     N_R   0.544858 0.884762 0.066015 0.226875
O97   O     O_R   0.576957 0.870757 0.079050 -0.333102
O98   O     O_R   0.530479 0.912497 0.089295 -0.400228
N26   N     N_R   0.884763 0.455146 0.066016 0.226875
O99   O     O_R   0.870758 0.423047 0.079053 -0.333101
O100  O     O_R   0.912499 0.469524 0.089297 -0.400229
N27   N     N_R   0.455142 0.115238 0.066015 0.226875
O101  O     O_R   0.423043 0.129243 0.079050 -0.333102
O102  O     O_R   0.469521 0.087502 0.089295 -0.400228
N28   N     N_R   0.115237 0.544855 0.066016 0.226875
O103  O     O_R   0.129241 0.576953 0.079053 -0.333101
O104  O     O_R   0.087501 0.530476 0.089297 -0.400230
N29   N     N_R   0.544856 0.115237 0.933984 0.226875
O105  O     O_R   0.576955 0.129242 0.920948 -0.333103
O106  O     O_R   0.530478 0.087501 0.910704 -0.400228
N30   N     N_R   0.884762 0.544857 0.933984 0.226875
O107  O     O_R   0.870757 0.576956 0.920948 -0.333101
O108  O     O_R   0.912498 0.530478 0.910704 -0.400230
N31   N     N_R   0.455145 0.884763 0.933984 0.226875
O109  O     O_R   0.423046 0.870758 0.920948 -0.333104
O110  O     O_R   0.469523 0.912498 0.910704 -0.400228
N32   N     N_R   0.115238 0.455143 0.933984 0.226875
O111  O     O_R   0.129243 0.423044 0.920948 -0.333101
O112  O     O_R   0.087502 0.469522 0.910704 -0.400229

loop_
_geom_bond_atom_site_label_1
_geom_bond_atom_site_label_2
_geom_bond_distance
_ccdc_geom_bond_type
N24   O96   1.301095 A    
C105  C145  1.391581 A    
O25   C13   1.294144 A    
C118  C150  1.391581 A    
C119  C135  1.396039 A    
C10   C18   1.479393 S    
N29   O105  1.301390 A    
C7    C143  1.460508 S    
N17   O81   1.301387 A    
C14   C22   1.479393 S    
C131  C143  1.417919 A    
C2    C138  1.460514 S    
C130  N26   1.438675 S    
O18   Zn2   1.876359 S    
C128  N24   1.438675 S    
C74   C153  1.462120 S    
N7    O61   1.301355 A    
C22   C30   1.231939 T    
N8    O63   1.301614 A    
C132  N28   1.438675 S    
O3    C3    1.280632 A    
C91   C99   1.194119 T    
C69   C79   1.418779 A    
C87   C95   1.420522 S    
C58   C74   1.418810 A    
C79   C158  1.462186 S    
O5    Zn1   2.005197 S    
N20   O88   1.301092 A    
C44   H4    1.084297 S    
C51   H11   1.084285 S    
N30   O107  1.301391 A    
O17   C9    1.294144 A    
C80   C159  1.462174 S    
N22   O91   1.301389 A    
C127  C137  1.417916 A    
C110  C126  1.396039 A    
C125  C139  1.417915 A    
C56   C88   1.391276 A    
O36   C156  1.231730 A    
O45   C157  1.231709 A    
C100  C148  1.420546 S    
C130  C142  1.417918 A    
C45   C61   1.395763 A    
C47   H7    1.084284 S    
C104  C152  1.420528 S    
C23   C31   1.231939 T    
O26   Zn6   1.876359 S    
C34   C39   1.232004 T    
O40   C154  1.231725 A    
N16   O79   1.301347 A    
C105  H17   1.084249 S    
O27   C13   1.294143 A    
O8    Zn2   2.005172 S    
O31   C15   1.294144 A    
O36   Zn9   1.996923 S    
O32   C16   1.294147 A    
O46   Zn12  1.996924 S    
C112  C128  1.396040 A    
C65   N9    1.438403 S    
N3    O54   1.301175 A    
C66   N10   1.438404 S    
C115  C151  1.391581 A    
C64   N8    1.438578 S    
C63   N7    1.438434 S    
C120  C136  1.396035 A    
N14   O76   1.301178 A    
C42   C82   1.391266 A    
C59   N3    1.438388 S    
N12   O72   1.301178 A    
O41   C157  1.231709 A    
O11   C7    1.280635 A    
C4    C140  1.460510 S    
O16   Zn6   2.005172 S    
C114  C130  1.396031 A    
O38   C156  1.231719 A    
C77   C160  1.462186 S    
C9    C17   1.479393 S    
C124  C140  1.417920 A    
C70   C78   1.418781 A    
C118  C134  1.396035 A    
O6    Zn4   2.005175 S    
C69   N13   1.438402 S    
O15   Zn7   2.005200 S    
C107  C147  1.391577 A    
O34   Zn9   1.996927 S    
N23   O94   1.301093 A    
O44   C160  1.231712 A    
C29   C37   1.454686 S    
C110  H22   1.084252 S    
O9    C5    1.280635 A    
C31   C39   1.454686 S    
N15   O78   1.301179 A    
O21   Zn1   1.876357 S    
C124  N20   1.438673 S    
O23   C11   1.294144 A    
N22   O92   1.301094 A    
N1    O49   1.301342 A    
N21   O90   1.301092 A    
C26   C34   1.454686 S    
O13   C7    1.280635 A    
N25   O98   1.301091 A    
C66   C78   1.418780 A    
O2    Zn2   2.005189 S    
C19   C27   1.231939 T    
C114  C150  1.391582 A    
C52   H12   1.084285 S    
O7    C1    1.280631 A    
N2    O52   1.301189 A    
O28   C14   1.294147 A    
O26   C14   1.294149 A    
O29   C15   1.294143 A    
C67   N11   1.438403 S    
O30   C16   1.294149 A    
C11   C19   1.479393 S    
O35   Zn9   1.996915 S    
O29   Zn5   1.876357 S    
N18   O84   1.301094 A    
C44   C60   1.395762 A    
C51   C67   1.395772 A    
N9    O65   1.301347 A    
C101  C149  1.420540 S    
C48   H8    1.084301 S    
O19   Zn3   1.876360 S    
C51   C87   1.391278 A    
C102  C150  1.420528 S    
C54   C86   1.391278 A    
C43   C59   1.395758 A    
N10   O67   1.301345 A    
N28   O103  1.301391 A    
C67   C79   1.418780 A    
C95   C103  1.194126 T    
C47   C63   1.395781 A    
C122  C138  1.417921 A    
N32   O112  1.301094 A    
C60   C76   1.418806 A    
N13   O73   1.301346 A    
C119  C149  1.391581 A    
C105  C121  1.396035 A    
N5    O58   1.301190 A    
C20   C28   1.231939 T    
C70   N14   1.438403 S    
O32   Zn6   1.876357 S    
N31   O110  1.301091 A    
C107  H19   1.084251 S    
C5    C141  1.460508 S    
C27   C35   1.454686 S    
C46   H6    1.084298 S    
O18   C10   1.294149 A    
O22   Zn4   1.876356 S    
C120  C152  1.391580 A    
O47   Zn12  1.996916 S    
O23   Zn3   1.876355 S    
N26   O99   1.301392 A    
O42   Zn11  1.996927 S    
C117  C133  1.396036 A    
C108  C124  1.396044 A    
N4    O55   1.301381 A    
C73   C156  1.462225 S    
C28   C36   1.454686 S    
O12   C8    1.280637 A    
O1    C1    1.280632 A    
C133  N29   1.438674 S    
O14   C6    1.280637 A    
C6    C142  1.460499 S    
C32   C40   1.454686 S    
C8    C144  1.460499 S    
C134  C142  1.417916 A    
C71   N15   1.438403 S    
C82   C90   1.420531 S    
C63   C73   1.418823 A    
N8    O64   1.301281 A    
C126  C138  1.417917 A    
C119  H31   1.084249 S    
C106  H18   1.084249 S    
C109  C147  1.391576 A    
O30   Zn8   1.876356 S    
O46   C160  1.231711 A    
N11   O69   1.301345 A    
C111  C127  1.396034 A    
C43   H3    1.084285 S    
C127  N23   1.438675 S    
C111  C145  1.391575 A    
C61   N5    1.438401 S    
C53   H13   1.084284 S    
C68   N12   1.438403 S    
C106  C146  1.391580 A    
C42   H2    1.084297 S    
C43   C83   1.391264 A    
O10   C6    1.280637 A    
C41   C81   1.391252 A    
C3    C139  1.460490 S    
C81   C89   1.420504 S    
N30   O108  1.301091 A    
C1    C137  1.460490 S    
C52   C68   1.395769 A    
C15   C23   1.479393 S    
C16   C24   1.479393 S    
O2    C2    1.280639 A    
O33   C153  1.231696 A    
C56   C72   1.395767 A    
O47   C159  1.231709 A    
C116  C132  1.396035 A    
C49   C85   1.391279 A    
O31   Zn7   1.876355 S    
O45   Zn12  1.996911 S    
C99   C147  1.420519 S    
C48   C64   1.395848 A    
C108  H20   1.084247 S    
N24   O95   1.301390 A    
C48   C84   1.391288 A    
O21   C11   1.294143 A    
O48   C158  1.231712 A    
O22   C12   1.294149 A    
N16   O80   1.301178 A    
N29   O106  1.301095 A    
O13   Zn5   2.005197 S    
N17   O82   1.301093 A    
C57   N1    1.438397 S    
C68   C80   1.418780 A    
C52   C88   1.391274 A    
N19   O85   1.301389 A    
C50   H10   1.084285 S    
N15   O77   1.301345 A    
O3    Zn3   2.005183 S    
C54   H14   1.084285 S    
N27   O101  1.301390 A    
C62   C74   1.418910 A    
C109  C125  1.396029 A    
O37   C153  1.231681 A    
C107  C123  1.396029 A    
C114  H26   1.084250 S    
C46   C62   1.395865 A    
C128  C140  1.417919 A    
C72   N16   1.438403 S    
C129  C141  1.417918 A    
C50   C86   1.391275 A    
C118  H30   1.084252 S    
C62   N6    1.438614 S    
C72   C80   1.418778 A    
C55   C85   1.391279 A    
O9    Zn5   2.005186 S    
C117  C151  1.391583 A    
O11   Zn7   2.005183 S    
O41   Zn11  1.996913 S    
C132  C144  1.417915 A    
N20   O87   1.301388 A    
C131  N27   1.438676 S    
C94   C102  1.194123 T    
C71   C77   1.418779 A    
C17   C25   1.231939 T    
C75   C154  1.462232 S    
C129  N25   1.438677 S    
O5    C3    1.280631 A    
C126  N22   1.438677 S    
C86   C94   1.420514 S    
O7    Zn3   2.005200 S    
O42   C158  1.231711 A    
C136  N32   1.438676 S    
N21   O89   1.301388 A    
C49   C65   1.395772 A    
C12   C20   1.479393 S    
C13   C21   1.479393 S    
O28   Zn8   1.876360 S    
C115  C131  1.396036 A    
N25   O97   1.301393 A    
O17   Zn1   1.876358 S    
O34   C154  1.231729 A    
C113  C129  1.396040 A    
N23   O93   1.301389 A    
C55   C71   1.395770 A    
N6    O59   1.301651 A    
C133  C143  1.417918 A    
C88   C96   1.420514 S    
C41   C57   1.395754 A    
C123  N19   1.438672 S    
C92   C100  1.194130 T    
C93   C101  1.194126 T    
O14   Zn8   2.005175 S    
N31   O109  1.301392 A    
C96   C104  1.194123 T    
C125  N21   1.438670 S    
C30   C38   1.454686 S    
O43   Zn11  1.996915 S    
C84   C92   1.420531 S    
C85   C93   1.420522 S    
C59   C75   1.418800 A    
C56   H16   1.084286 S    
C83   C91   1.420504 S    
O8    C4    1.280643 A    
C57   C73   1.418804 A    
O4    Zn4   2.005186 S    
C116  C152  1.391579 A    
N14   O75   1.301346 A    
N10   O68   1.301177 A    
O35   C155  1.231700 A    
N12   O71   1.301345 A    
N28   O104  1.301092 A    
C120  H32   1.084250 S    
C134  N30   1.438672 S    
C135  C141  1.417915 A    
C25   C33   1.454686 S    
O20   C10   1.294147 A    
C121  N17   1.438673 S    
C18   C26   1.231939 T    
C113  C149  1.391580 A    
C112  H24   1.084252 S    
C90   C98   1.194130 T    
C98   C146  1.420549 S    
N5    O57   1.301378 A    
C45   C83   1.391265 A    
C78   C157  1.462174 S    
O37   Zn10  1.996911 S    
C53   C87   1.391278 A    
C89   C97   1.194119 T    
C108  C148  1.391584 A    
C135  N31   1.438674 S    
C136  C144  1.417917 A    
C50   C66   1.395769 A    
C47   C81   1.391262 A    
C61   C75   1.418806 A    
O43   C159  1.231709 A    
C54   C70   1.395767 A    
O25   Zn5   1.876358 S    
O6    C2    1.280646 A    
C111  H23   1.084252 S    
O27   Zn7   1.876360 S    
C36   C37   1.232004 T    
C42   C58   1.395752 A    
N26   O100  1.301091 A    
N1    O50   1.301173 A    
N4    O56   1.301183 A    
C112  C148  1.391580 A    
N19   O86   1.301092 A    
O39   C155  1.231680 A    
C123  C139  1.417915 A    
O19   C9    1.294143 A    
C76   C155  1.462124 S    
C121  C137  1.417913 A    
N2    O51   1.301386 A    
C106  C122  1.396042 A    
O24   C12   1.294147 A    
N27   O102  1.301093 A    
O24   Zn2   1.876357 S    
O12   Zn8   2.005186 S    
N18   O83   1.301389 A    
C53   C69   1.395774 A    
N9    O66   1.301180 A    
O40   Zn10  1.996926 S    
O44   Zn11  1.996923 S    
C49   H9    1.084285 S    
N3    O53   1.301338 A    
C45   H5    1.084285 S    
C21   C29   1.231939 T    
N7    O62   1.301175 A    
C110  C146  1.391583 A    
O33   Zn9   1.996913 S    
C64   C76   1.418885 A    
C97   C145  1.420522 S    
N6    O60   1.301296 A    
O48   Zn12  1.996926 S    
O4    C4    1.280642 A    
C58   N2    1.438446 S    
C115  H27   1.084250 S    
C109  H21   1.084251 S    
C113  H25   1.084251 S    
C55   H15   1.084285 S    
O20   Zn4   1.876360 S    
C122  N18   1.438672 S    
N32   O111  1.301389 A    
C41   H1    1.084288 S    
C116  H28   1.084252 S    
C103  C151  1.420540 S    
C117  H29   1.084250 S    
N13   O74   1.301178 A    
C33   C40   1.232004 T    
C24   C32   1.231939 T    
O10   Zn6   2.005189 S    
C35   C38   1.232004 T    
C60   N4    1.438450 S    
C46   C82   1.391292 A    
O15   C5    1.280635 A    
C44   C84   1.391269 A    
O16   C8    1.280637 A    
C65   C77   1.418778 A    
O38   Zn10  1.996924 S    
O39   Zn10  1.996916 S    
O1    Zn1   2.005186 S    
N11   O70   1.301178 A    
