data_mof_unit_54558.cif
_audit_creation_date              2012-12-10T20:30:14-0500
_audit_creation_method            fapswitch 2.2
_symmetry_space_group_name_H-M    P1
_symmetry_Int_Tables_number       1
_space_group_crystal_system       triclinic
_cell_length_a                    9.937374
_cell_length_b                    10.623855
_cell_length_c                    13.085675
_cell_angle_alpha                 90.548425
_cell_angle_beta                  69.915485
_cell_angle_gamma                 91.659984
_cell_volume                      1296.93940518

loop_
_atom_site_label
_atom_site_type_symbol
_atom_type_description
_atom_site_fract_x
_atom_site_fract_y
_atom_site_fract_z
_atom_type_partial_charge
C1    C     C_R   0.503880 0.739224 0.495261 0.954342
C2    C     C_R   0.368460 0.485672 0.822523 -0.103186
C3    C     C_R   0.547626 0.936016 0.568661 0.083235
C4    C     C_R   0.420046 0.494244 0.704111 0.827073
C5    C     C_R   0.513085 0.871316 0.488002 -0.228062
C6    C     C_R   0.493715 0.936330 0.400828 0.357574
C7    C     C_R   0.487975 0.066673 0.406966 -0.189289
C8    C     C_R   0.499221 0.128307 0.498478 -0.131671
C9    C     C_R   0.541996 0.064290 0.573629 0.108912
C10   C     C_3   0.478144 0.063340 0.695140 -0.442536
C11   C     C_3   0.484565 0.920974 0.689198 -0.445795
C12   C     C_R   0.432450 0.473810 0.984875 0.105027
C13   C     C_R   0.913237 0.598950 0.542777 0.218684
C14   C     C_R   0.945077 0.408807 0.449425 -0.195481
C15   C     C_R   0.087532 0.405789 0.449391 0.399734
C16   C     C_R   0.497661 0.260452 0.502387 0.908355
C17   C     C_R   0.055393 0.599230 0.542427 0.193356
C18   C     C_3   0.010707 0.644837 0.657009 -0.485790
C19   C     C_3   0.857665 0.644751 0.657353 -0.464433
C20   C     C_R   0.579959 0.498288 0.295878 1.002612
C21   C     C_R   0.770820 0.363973 0.019864 0.381503
C22   C     C_R   0.628382 0.479252 0.179084 -0.075045
C23   C     C_R   0.458369 0.439459 0.876077 0.108363
C24   C     C_R   0.238025 0.539874 0.882612 -0.106175
C25   C     C_R   0.200708 0.554689 0.994333 -0.059947
C26   C     C_R   0.297845 0.524922 0.045194 -0.156703
C27   C     C_R   0.542299 0.456025 0.028798 0.001880
C28   C     C_R   0.664582 0.384284 0.972066 0.043700
C29   C     C_R   0.675297 0.333895 0.870484 -0.165808
C30   C     C_R   0.574616 0.361802 0.823076 -0.233620
C31   C     C_R   0.534263 0.511013 0.127157 -0.183508
C32   C     C_R   0.748989 0.409185 0.125055 -0.302157
H1    H     H_    0.821967 0.385276 0.166716 0.201500
H2    H     H_    0.786070 0.574341 0.714208 0.228885
H3    H     H_    0.762330 0.274700 0.825268 0.229259
H4    H     H_    0.813831 0.740685 0.663255 0.212093
H5    H     H_    0.450250 0.574840 0.168316 0.209437
H6    H     H_    0.166806 0.573870 0.842909 0.157393
H7    H     H_    0.263568 0.539830 0.131980 0.144024
H8    H     H_    0.098693 0.594296 0.041024 0.156830
H9    H     H_    0.588585 0.320932 0.744337 0.172143
H10   H     H_    0.328650 0.316148 0.233968 0.363090
H11   H     H_    0.819818 0.097473 0.008517 0.364625
H12   H     H_    0.474459 0.119693 0.341435 0.240884
H13   H     H_    0.709321 0.833412 0.212866 0.357621
H14   H     H_    0.552167 0.105318 0.733960 0.208474
H15   H     H_    0.367127 0.098841 0.725953 0.235276
H16   H     H_    0.562234 0.882133 0.723958 0.211975
H17   H     H_    0.377152 0.872919 0.716013 0.204164
H18   H     H_    0.901140 0.334735 0.412182 0.212838
H19   H     H_    0.027427 0.574133 0.713282 0.228332
H20   H     H_    0.055120 0.740779 0.662915 0.222431
N1    N     N_R   0.856940 0.500860 0.500710 -0.141872
N2    N     N_R   0.142580 0.500820 0.500710 -0.160745
O1    O     O_R   0.385310 0.683210 0.499990 -0.582948
O2    O     O_2   0.093577 0.196409 0.329424 -0.298085
O3    O     O_3   0.341846 0.292982 0.302986 -0.559380
O4    O     O_2   0.007188 0.335272 0.845150 -0.303297
O5    O     O_2   0.023649 0.276287 0.020669 -0.278371
O6    O     O_3   0.879018 0.127933 0.935055 -0.521504
O7    O     O_2   0.349704 0.775001 0.314318 -0.265728
O8    O     O_2   0.472681 0.953785 0.201073 -0.263258
O9    O     O_3   0.627130 0.772875 0.227941 -0.593036
O10   O     O_R   0.614650 0.683240 0.500000 -0.610378
O11   O     O_R   0.328390 0.499940 0.653610 -0.607327
O12   O     O_R   0.557730 0.499980 0.653620 -0.624450
O13   O     O_R   0.385350 0.316760 0.500000 -0.516951
O14   O     O_R   0.614690 0.316790 0.500010 -0.641037
O15   O     O_R   0.442270 0.500020 0.346380 -0.566887
O16   O     O_R   0.671610 0.500060 0.346390 -0.625542
O17   O     O_2   0.179330 0.179726 0.480596 -0.246122
S1    S     S_3+6 0.175919 0.265532 0.391003 0.055880
S2    S     S_3+6 0.926854 0.277035 0.954084 0.010506
S3    S     S_3+6 0.481247 0.859646 0.283544 0.033352
Zn1   Zn    Zn3+2 0.346870 0.499980 0.499990 1.061110
Zn2   Zn    Zn3+2 0.653130 0.500020 0.500010 0.959652

loop_
_geom_bond_atom_site_label_1
_geom_bond_atom_site_label_2
_ccdc_geom_bond_type
C4    O12   A    
C18   H20   S    
C7    C8    A    
C15   S1    S    
C12   C23   A    
C22   C32   A    
C1    C5    S    
C5    C6    A    
C28   C29   A    
C19   H4    S    
C25   H8    S    
C4    O11   A    
C26   H7    S    
C21   S2    S    
O6    S2    S    
C18   C19   S    
C11   H17   S    
C8    C9    A    
O2    S1    D    
C10   H14   S    
C24   H6    S    
C30   H9    S    
C16   O14   A    
C9    C10   S    
O5    S2    D    
O1    Zn1   S    
C8    C16   S    
C20   O16   A    
C11   H16   S    
H10   O3    S    
C18   H19   S    
C6    S3    S    
C13   N1    A    
C21   C32   A    
C10   H15   S    
C22   C31   A    
C13   C19   S    
C12   C27   A    
C27   C31   A    
C15   N2    A    
C24   C25   A    
C25   C26   A    
H13   O9    S    
C31   H5    S    
C12   C26   A    
C2    C4    S    
C23   C30   A    
C29   C30   A    
C3    C9    A    
O12   Zn2   S    
C17   C18   S    
O10   Zn2   S    
C16   O13   A    
C7    H12   S    
H11   O6    S    
C21   C28   A    
C20   C22   S    
O16   Zn2   S    
C20   O15   A    
N1    Zn2   S    
O13   Zn1   S    
C1    O10   A    
C2    C23   A    
C3    C5    A    
C19   H2    S    
C6    C7    A    
O9    S3    S    
O7    S3    D    
O14   Zn2   S    
C29   H3    S    
O11   Zn1   S    
C13   C17   A    
C32   H1    S    
C1    O1    A    
O17   S1    D    
C2    C24   A    
C14   H18   S    
O15   Zn1   S    
O3    S1    S    
C3    C11   S    
C10   C11   S    
N2    Zn1   S    
C14   N1    A    
C27   C28   A    
C14   C15   A    
O8    S3    D    
C17   N2    A    
O4    S2    D    
