data_mof_unit_17851.cif
_audit_creation_date              2013-03-05T15:42:47-0500
_audit_creation_method            fapswitch 2.2
_symmetry_space_group_name_H-M    P1
_symmetry_Int_Tables_number       1
_space_group_crystal_system       triclinic
_cell_length_a                    9.768403
_cell_length_b                    10.911205
_cell_length_c                    13.388767
_cell_angle_alpha                 90.522121
_cell_angle_beta                  73.522395
_cell_angle_gamma                 89.401982
_cell_volume                      1368.2516972

loop_
_atom_site_label
_atom_site_type_symbol
_atom_site_description
_atom_site_fract_x
_atom_site_fract_y
_atom_site_fract_z
_atom_type_partial_charge
O1    O     O_R   0.382960 0.678040 0.499980 -0.608717
O2    O     O_R   0.617100 0.678080 0.500020 -0.551867
C1    C     C_R   0.500431 0.734420 0.497946 0.879738
O3    O     O_R   0.325800 0.499940 0.650950 -0.603282
O4    O     O_R   0.559930 0.499980 0.650990 -0.565735
C2    C     C_R   0.424467 0.516005 0.698871 0.826427
Cu1   Cu    Cu3+1 0.361370 0.499980 0.499980 1.034046
Cu2   Cu    Cu3+1 0.638630 0.500020 0.500020 1.021341
O5    O     O_R   0.382900 0.321920 0.499980 -0.524192
O6    O     O_R   0.617040 0.321960 0.500020 -0.578805
O7    O     O_R   0.440070 0.500020 0.349010 -0.561508
O8    O     O_R   0.674200 0.500060 0.349050 -0.572386
C3    C     C_R   0.499931 0.265563 0.501233 0.849130
C4    C     C_R   0.575874 0.497845 0.300204 0.789825
C5    C     C_R   0.795609 0.493213 0.018966 -0.067723
H1    H     H_    0.840816 0.458211 0.163597 0.183557
H2    H     H_    0.846517 0.573373 0.825774 0.181752
H3    H     H_    0.905755 0.478854 0.973933 0.146566
C6    C     C_R   0.616868 0.499758 0.186095 -0.072266
C7    C     C_R   0.239106 0.576969 0.864145 -0.274632
C8    C     C_R   0.198613 0.607933 0.970377 0.380215
C9    C     C_R   0.297369 0.591022 0.027337 -0.208292
C10   C     C_R   0.442198 0.564398 0.975824 -0.015615
C11   C     C_R   0.486296 0.569458 0.866106 -0.022167
C12   C     C_R   0.546756 0.539613 0.028397 0.085514
C13   C     C_R   0.692403 0.528588 0.970161 0.089938
C14   C     C_R   0.734141 0.563083 0.865900 -0.270185
C15   C     C_R   0.630811 0.596858 0.817094 0.348465
C16   C     C_R   0.511271 0.523054 0.136274 -0.204201
C17   C     C_R   0.758577 0.480789 0.126727 -0.114523
C18   C     C_R   0.383100 0.553838 0.810776 -0.112920
H4    H     H_    0.401807 0.528814 0.183202 0.177734
H5    H     H_    0.158684 0.575005 0.823110 0.161319
H6    H     H_    0.261232 0.608138 0.110118 0.173600
C19   C     C_2   0.614068 0.065817 0.498632 -0.152034
C20   C     C_2   0.496300 0.133443 0.506400 -0.300009
H7    H     H_    0.716062 0.109416 0.490663 0.187339
H8    H     H_    0.392171 0.093084 0.519059 0.157887
C21   C     C_2   0.611077 0.931785 0.503784 -0.085176
C22   C     C_2   0.501626 0.866454 0.490826 -0.293466
H9    H     H_    0.703348 0.886204 0.517642 0.201924
H10   H     H_    0.411826 0.908462 0.471722 0.153107
C23   C     C_2   0.072803 0.597363 0.496116 0.077395
N1    N     N_2   0.152660 0.501340 0.501130 -0.086907
C24   C     C_2   0.934497 0.588683 0.467617 0.062835
N2    N     N_2   0.846520 0.501370 0.501160 -0.262927
H11   H     H_    0.900563 0.664625 0.428226 0.141361
H12   H     H_    0.872186 0.440882 0.551825 0.233168
C25   C     C_R   0.100950 0.719262 0.534556 0.135666
C26   C     C_R   0.104424 0.823979 0.473521 -0.186345
C27   C     C_R   0.117342 0.940358 0.514327 -0.134291
C28   C     C_R   0.127240 0.953053 0.616038 -0.116290
C29   C     C_R   0.123648 0.849450 0.677258 -0.101945
C30   C     C_R   0.109225 0.733191 0.637029 0.004524
H13   H     H_    0.096343 0.815609 0.394741 0.139026
H14   H     H_    0.120050 0.020681 0.467013 0.185143
H15   H     H_    0.137481 0.043158 0.647409 0.159838
H16   H     H_    0.130045 0.859283 0.756319 0.170683
H17   H     H_    0.100464 0.654159 0.686126 0.117497
N3    N     N_R   0.122934 0.395564 0.452513 0.232011
O9    O     O_R   0.145720 0.392263 0.351880 -0.357388
O10   O     O_R   0.098643 0.293895 0.504154 -0.387169
N4    N     N_R   0.059820 0.660367 0.019208 0.105411
O11   O     O_R   0.988267 0.713485 0.962760 -0.380571
O12   O     O_R   0.012899 0.670714 0.120163 -0.379805
N5    N     N_R   0.667469 0.681387 0.731942 0.150090
O13   O     O_R   0.571859 0.758655 0.718715 -0.381077
O14   O     O_R   0.800120 0.698173 0.680958 -0.409653

loop_
_geom_bond_atom_site_label_1
_geom_bond_atom_site_label_2
_geom_bond_distance
_ccdc_geom_bond_type
O4    Cu2   1.948123 S    
C15   N5    1.439843 S    
C10   C11   1.410505 A    
N4    O12   1.301733 A    
C5    H3    1.082817 S    
C25   C30   1.404040 A    
N5    O14   1.297701 A    
C19   C20   1.338549 D    
Cu2   O8    1.951409 S    
C29   H16   1.082363 S    
C26   H13   1.082926 S    
C20   H8    1.081761 S    
O2    C1    1.296592 A    
C11   C18   1.420903 A    
Cu1   Cu2   2.708544 S    
C21   H9    1.086910 S    
C6    C16   1.400541 A    
O1    Cu1   1.956450 S    
C29   C30   1.397658 A    
C7    C8    1.401033 A    
N3    O10   1.300527 A    
Cu1   O7    1.948124 S    
C23   C24   1.508077 S    
C13   C14   1.395138 A    
O4    C2    1.305542 A    
N1    N3    1.393057 S    
O3    Cu1   1.951409 S    
C7    H5    1.079093 S    
O6    C3    1.300748 A    
C22   H10   1.079831 S    
C19   H7    1.086671 S    
O8    C4    1.306661 A    
C1    C22   1.444619 S    
N5    O13   1.301750 A    
C16   H4    1.076498 S    
N2    H12   1.029458 S    
C30   H17   1.078425 S    
C24   H11   1.084451 S    
C23   N1    1.313275 D    
C12   C16   1.400345 A    
C19   C21   1.464912 S    
C9    H6    1.077399 S    
O7    C4    1.301808 A    
Cu2   N2    2.035341 S    
C8    N4    1.437732 S    
C28   H15   1.082308 S    
H1    C17   1.082963 S    
N4    O11   1.301854 A    
H2    C14   1.084145 S    
C24   N2    1.286010 D    
C21   C22   1.341725 D    
C10   C12   1.420325 A    
C27   C28   1.398037 A    
C28   C29   1.397272 A    
C3    C20   1.444200 S    
O3    C2    1.312863 A    
C25   C26   1.405904 A    
C5    C17   1.392617 A    
C14   C15   1.397292 A    
Cu1   O5    1.952017 S    
O5    C3    1.296810 A    
C9    C10   1.412739 A    
C23   C25   1.478163 S    
C5    C13   1.400898 A    
C2    C18   1.490069 S    
C26   C27   1.398820 A    
C12   C13   1.418460 A    
C8    C9    1.400878 A    
C6    C17   1.399178 A    
C4    C6    1.465800 S    
Cu1   N1    2.034347 S    
Cu2   O6    1.956450 S    
O2    Cu2   1.952015 S    
C11   C15   1.414112 A    
N3    O9    1.301927 A    
O1    C1    1.301253 A    
C7    C18   1.404244 A    
C27   H14   1.082216 S    
