data_mof_unit_10512.cif
_audit_creation_date              2013-03-05T15:40:10-0500
_audit_creation_method            fapswitch 2.2
_symmetry_space_group_name_H-M    P1
_symmetry_Int_Tables_number       1
_space_group_crystal_system       triclinic
_cell_length_a                    7.52626
_cell_length_b                    8.679775
_cell_length_c                    12.986867
_cell_angle_alpha                 86.891899
_cell_angle_beta                  79.025722
_cell_angle_gamma                 103.132103
_cell_volume                      806.861735256

loop_
_atom_site_label
_atom_site_type_symbol
_atom_site_description
_atom_site_fract_x
_atom_site_fract_y
_atom_site_fract_z
_atom_type_partial_charge
O1    O     O_R   0.621060 0.286250 0.492350 -0.568613
O2    O     O_R   0.378940 0.713750 0.507650 -0.568611
O3    O     O_R   0.306310 0.256580 0.512240 -0.553000
O4    O     O_R   0.693690 0.743420 0.487760 -0.552997
C1    C     C_R   0.452493 0.199743 0.503452 0.877020
C2    C     C_R   0.547507 0.800257 0.496548 0.877002
O5    O     O_R   0.631800 0.512400 0.642670 -0.528995
O6    O     O_R   0.368200 0.487600 0.357330 -0.529005
O7    O     O_R   0.317060 0.482730 0.662570 -0.568044
O8    O     O_R   0.682940 0.517270 0.337430 -0.568052
C3    C     C_R   0.466957 0.498547 0.700811 0.835252
C4    C     C_R   0.533043 0.501458 0.299189 0.835274
Cu1   Cu    Cu3+1 0.686350 0.517570 0.488220 1.137277
Cu2   Cu    Cu3+1 0.313650 0.482430 0.511780 1.137280
N1    N     N_2   0.033570 0.455950 0.529530 0.073422
N2    N     N_2   0.966430 0.544050 0.470470 0.073416
C5    C     C_R   0.551236 0.507291 0.185743 -0.130433
C6    C     C_R   0.448765 0.492728 0.814258 -0.130451
C7    C     C_R   0.272258 0.373315 0.986001 -0.129952
C8    C     C_R   0.727728 0.626725 0.014003 -0.129928
C9    C     C_R   0.287208 0.395711 0.878272 -0.212792
C10   C     C_R   0.712774 0.604334 0.121733 -0.212836
C11   C     C_R   0.596257 0.573096 0.858447 0.306075
C12   C     C_R   0.403754 0.426909 0.141553 0.306105
C13   C     C_R   0.581945 0.550331 0.967775 0.005805
C14   C     C_R   0.418051 0.449693 0.032227 0.005794
H1    H     H_    0.825789 0.667680 0.155580 0.203577
H2    H     H_    0.174179 0.332384 0.844427 0.203592
H3    H     H_    0.146643 0.293985 0.032061 0.204596
H4    H     H_    0.853334 0.706068 0.967945 0.204593
C15   C     C_2   0.426291 0.031352 0.505580 -0.285936
C16   C     C_2   0.573709 0.968648 0.494419 -0.285952
H5    H     H_    0.284579 0.958719 0.516546 0.215555
H6    H     H_    0.715421 0.041281 0.483454 0.215555
N3    N     N_R   0.242398 0.320433 0.207237 0.115378
O9    O     O_R   0.260147 0.195608 0.260705 -0.345027
O10   O     O_R   0.081014 0.355767 0.220929 -0.337606
N4    N     N_R   0.757666 0.679508 0.792756 0.115389
O11   O     O_R   0.740006 0.804345 0.739257 -0.345015
O12   O     O_R   0.919022 0.644120 0.779110 -0.337613
Br1   Br    Br    0.877916 0.299229 0.634125 -0.313549
Br2   Br    Br    0.122084 0.700769 0.365874 -0.313550

loop_
_geom_bond_atom_site_label_1
_geom_bond_atom_site_label_2
_geom_bond_distance
_ccdc_geom_bond_type
C4    C5    1.450488 S    
C2    C16   1.427759 S    
O7    Cu2   1.963473 S    
C15   H5    1.087286 S    
C3    C6    1.450501 S    
C16   H6    1.087286 S    
C6    C9    1.397376 A    
C5    C10   1.397356 A    
O6    C4    1.299804 A    
C5    C12   1.407925 A    
C8    H4    1.081640 S    
Cu1   Cu2   2.707255 S    
O5    C3    1.299807 A    
O7    C3    1.299454 A    
O2    C2    1.296103 A    
O3    Cu2   1.948171 S    
O8    C4    1.299451 A    
O1    C1    1.296103 A    
N1    N2    1.299202 D    
N4    O12   1.301537 A    
C9    H2    1.084010 S    
C8    C10   1.381471 A    
C10   H1    1.084005 S    
C11   C13   1.402946 A    
N4    O11   1.301327 A    
O2    Cu2   1.950795 S    
C1    C15   1.427759 S    
C12   N3    1.437593 S    
O1    Cu1   1.950794 S    
C8    C13   1.402613 A    
C6    C11   1.407937 A    
C11   N4    1.437629 S    
N2    Br2   1.880856 S    
O5    Cu1   1.965255 S    
N1    Br1   1.880855 S    
O4    C2    1.292979 A    
Cu1   N2    2.034339 S    
N3    O10   1.301512 A    
O4    Cu1   1.948170 S    
C7    C14   1.402613 A    
Cu2   N1    2.034340 S    
O6    Cu2   1.965253 S    
C7    C9    1.381475 A    
C13   C14   1.422390 A    
C15   C16   1.330394 D    
N3    O9    1.301301 A    
C12   C14   1.402943 A    
O3    C1    1.292979 A    
O8    Cu1   1.963471 S    
C7    H3    1.081644 S    
