data_mof_unit_60381.cif
_audit_creation_date              2012-12-10T19:13:19-0500
_audit_creation_method            fapswitch 2.2
_symmetry_space_group_name_H-M    P1
_symmetry_Int_Tables_number       1
_space_group_crystal_system       triclinic
_cell_length_a                    15.997308
_cell_length_b                    14.769645
_cell_length_c                    10.950885
_cell_angle_alpha                 90.000019
_cell_angle_beta                  89.998081
_cell_angle_gamma                 90.000023
_cell_volume                      2587.4155348

loop_
_atom_site_label
_atom_site_type_symbol
_atom_type_description
_atom_site_fract_x
_atom_site_fract_y
_atom_site_fract_z
_atom_type_partial_charge
C1    C     C_R   0.340842 0.499979 0.499978 0.829664
C2    C     C_R   0.659158 0.499979 0.500022 0.829664
C3    C     C_R   0.550420 0.952114 0.581910 -0.157996
C4    C     C_R   0.449580 0.952114 0.418090 -0.158006
C5    C     C_R   0.500000 0.902867 0.500000 0.052387
C6    C     C_R   0.449581 0.047895 0.418088 -0.158866
C7    C     C_R   0.550419 0.047895 0.581912 -0.158876
C8    C     C_R   0.500000 0.097140 0.500000 0.053560
C9    C     C_1   0.500000 0.802715 0.500000 0.113621
C10   C     C_1   0.500000 0.197288 0.500000 0.109496
C11   C     C_R   0.501051 0.500044 0.264728 0.850260
C12   C     C_R   0.498949 0.500043 0.735271 0.850262
C13   C     C_2   0.501838 0.425652 0.933137 -0.154832
C14   C     C_2   0.498165 0.425652 0.066862 -0.154799
C15   C     C_2   0.494639 0.501534 0.866951 -0.314627
C16   C     C_2   0.505361 0.501534 0.133049 -0.314636
C17   C     C_R   0.956379 0.582134 0.498016 -0.175362
C18   C     C_R   0.043621 0.582135 0.498007 -0.175359
C19   C     C_R   0.912787 0.499971 0.500008 0.155362
C20   C     C_R   0.087212 0.499970 0.499991 0.155360
C21   C     C_R   0.956379 0.417806 0.501992 -0.175261
C22   C     C_R   0.043621 0.417806 0.501983 -0.175264
C23   C     C_1   0.823332 0.499972 0.500014 -0.067614
C24   C     C_1   0.176668 0.499972 0.499985 -0.067614
C25   C     C_1   0.251716 0.499975 0.499981 -0.171887
C26   C     C_1   0.748284 0.499976 0.500019 -0.171887
Cu1   Cu    Cu3+1 0.500000 0.589220 0.500000 0.977796
Cu2   Cu    Cu3+1 0.500000 0.410780 0.500000 0.975237
H1    H     H_    0.509454 0.360516 0.888396 0.168507
H2    H     H_    0.490551 0.360516 0.111604 0.168514
H3    H     H_    0.483630 0.567119 0.907837 0.148599
H4    H     H_    0.516368 0.567120 0.092163 0.148592
H5    H     H_    0.077015 0.645952 0.496460 0.138642
H6    H     H_    0.922985 0.645951 0.496475 0.138656
H7    H     H_    0.922984 0.353989 0.503539 0.138639
H8    H     H_    0.077015 0.353989 0.503524 0.138657
H9    H     H_    0.589975 0.916448 0.646167 0.130002
H10   H     H_    0.410024 0.916448 0.353833 0.129987
N1    N     N_1   0.500000 0.276710 0.500000 -0.156120
N2    N     N_1   0.500000 0.723290 0.500000 -0.153649
O1    O     O_R   0.380310 0.575320 0.500020 -0.571426
O2    O     O_R   0.619690 0.575320 0.499980 -0.571427
O3    O     O_R   0.380310 0.424640 0.499970 -0.571589
O4    O     O_R   0.619690 0.424640 0.500030 -0.571588
O5    O     O_R   0.500000 0.575320 0.321940 -0.579118
O6    O     O_R   0.500000 0.575320 0.678060 -0.579093
O7    O     O_R   0.500000 0.424640 0.321880 -0.576309
O8    O     O_R   0.500000 0.424640 0.678120 -0.576333
H11   H     H_    0.589971 0.083564 0.646172 0.129031
H12   H     H_    0.410029 0.083564 0.353828 0.129046

loop_
_geom_bond_atom_site_label_1
_geom_bond_atom_site_label_2
_ccdc_geom_bond_type
C19   C23   S    
Cu2   O7    S    
C5    C9    S    
C21   H7    S    
C16   H4    S    
C22   H8    S    
C11   C16   S    
Cu1   O1    S    
Cu2   O3    S    
C11   O7    A    
C12   C15   S    
Cu1   N2    S    
C12   O8    A    
Cu1   O5    S    
C17   C18   A    
C7    C8    A    
C2    C26   S    
C21   C22   A    
C6    H12   S    
C1    C25   S    
Cu1   O2    S    
C7    H11   S    
C1    O3    A    
C2    O2    A    
Cu1   O6    S    
C4    C6    A    
C17   C19   A    
C14   H2    S    
C3    C7    A    
C13   C15   D    
C18   H5    S    
C14   C16   D    
C11   O5    A    
C17   H6    S    
C20   C22   A    
C4    C5    A    
C24   C25   T    
C3    H9    S    
C18   C20   A    
C8    C10   S    
C23   C26   T    
C1    O1    A    
Cu1   Cu2   S    
Cu2   O8    S    
C6    C8    A    
Cu2   N1    S    
C19   C21   A    
C13   C14   S    
C15   H3    S    
Cu2   O4    S    
C9    N2    T    
C2    O4    A    
C20   C24   S    
C13   H1    S    
C4    H10   S    
C10   N1    T    
C3    C5    A    
C12   O6    A    
