data_mof_unit_17760.cif
_audit_creation_date              2013-03-05T16:11:29-0500
_audit_creation_method            fapswitch 2.2
_symmetry_space_group_name_H-M    P1
_symmetry_Int_Tables_number       1
_space_group_crystal_system       triclinic
_cell_length_a                    9.599517
_cell_length_b                    10.751881
_cell_length_c                    17.234834
_cell_angle_alpha                 89.435161
_cell_angle_beta                  85.658415
_cell_angle_gamma                 90.458954
_cell_volume                      1773.59748077

loop_
_atom_site_label
_atom_site_type_symbol
_atom_site_description
_atom_site_fract_x
_atom_site_fract_y
_atom_site_fract_z
_atom_type_partial_charge
O1    O     O_R   0.379740 0.682430 0.499960 -0.530243
O2    O     O_R   0.620260 0.682190 0.500020 -0.559131
C1    C     C_R   0.500811 0.739478 0.502272 0.875906
O3    O     O_R   0.365800 0.500150 0.613560 -0.493666
O4    O     O_R   0.606310 0.499910 0.613620 -0.608085
C2    C     C_R   0.481283 0.504109 0.649988 0.863428
Cu1   Cu    Cu3+1 0.357600 0.500140 0.499960 1.121883
Cu2   Cu    Cu3+1 0.642400 0.499860 0.500040 0.963730
O5    O     O_R   0.379740 0.317810 0.499980 -0.506142
O6    O     O_R   0.620260 0.317570 0.500040 -0.622095
O7    O     O_R   0.393690 0.500090 0.386380 -0.520015
O8    O     O_R   0.634200 0.499850 0.386440 -0.588897
C3    C     C_R   0.500038 0.260387 0.502380 0.824690
C4    C     C_R   0.519305 0.501127 0.350702 0.816583
C5    C     C_R   0.474111 0.524204 0.734776 -0.130738
C6    C     C_R   0.588628 0.583933 0.765434 -0.174057
C7    C     C_R   0.590743 0.603294 0.844905 -0.015219
C8    C     C_R   0.480276 0.559431 0.895626 0.105298
C9    C     C_R   0.362713 0.506590 0.865764 -0.144710
C10   C     C_R   0.358244 0.488708 0.786095 0.397208
C11   C     C_R   0.494754 0.617835 0.147535 -0.150366
C12   C     C_R   0.470137 0.604329 0.227744 -0.042415
C13   C     C_R   0.625978 0.427729 0.225413 -0.171826
C14   C     C_R   0.648330 0.439331 0.145036 -0.041615
C15   C     C_R   0.581882 0.533677 0.105238 0.052272
C16   C     C_2   0.484015 0.565511 0.980403 -0.289029
C17   C     C_2   0.596831 0.537541 0.019289 0.303816
C18   C     C_R   0.534839 0.508682 0.266559 -0.011560
H1    H     H_    0.677330 0.616286 0.727864 0.207356
H2    H     H_    0.404144 0.670447 0.259755 0.194986
H3    H     H_    0.678441 0.354825 0.255498 0.165536
H4    H     H_    0.275578 0.475225 0.904999 0.195770
H5    H     H_    0.445486 0.693804 0.118670 0.161874
H6    H     H_    0.384432 0.581912 0.012854 0.160857
H7    H     H_    0.679786 0.650206 0.866747 0.187973
H8    H     H_    0.715113 0.372834 0.113921 0.191381
C19   C     C_3   0.516300 0.930618 0.418658 0.138496
H9    H     H_    0.421785 0.903695 0.389516 0.201209
C20   C     C_3   0.525060 0.074169 0.419253 -0.392942
H10   H     H_    0.628217 0.107669 0.392893 0.224674
H11   H     H_    0.444747 0.112743 0.382814 0.211644
H12   H     H_    0.274443 0.890441 0.522125 0.281797
H13   H     H_    0.278659 0.094669 0.506378 0.274831
C21   C     C_3   0.368932 0.927048 0.547208 -0.371884
C22   C     C_3   0.630996 0.929086 0.546751 0.239587
C23   C     C_3   0.504787 0.877858 0.503786 -0.066810
H14   H     H_    0.730567 0.902637 0.514113 0.215970
C24   C     C_3   0.503252 0.122090 0.503627 -0.052557
C25   C     C_3   0.364865 0.068863 0.542305 -0.305293
C26   C     C_3   0.624805 0.072884 0.550161 -0.361196
H15   H     H_    0.726876 0.111369 0.525512 0.199329
H16   H     H_    0.609834 0.105144 0.611368 0.221848
H17   H     H_    0.361848 0.896544 0.609228 0.256265
H18   H     H_    0.344021 0.106930 0.601772 0.240668
C27   C     C_3   0.907934 0.372249 0.503823 -0.307233
H19   H     H_    0.855122 0.313038 0.463188 0.232437
H20   H     H_    0.867768 0.332356 0.561314 0.192118
C28   C     C_3   0.074258 0.363852 0.492924 0.491278
H21   H     H_    0.905177 0.497851 0.376957 0.202948
C29   C     C_3   0.923658 0.558129 0.427399 -0.235297
C30   C     C_3   0.907059 0.564028 0.567209 -0.257414
N1    N     N_3   0.856560 0.499750 0.498270 -0.248270
H22   H     H_    0.874865 0.662657 0.567571 0.261549
H23   H     H_    0.853318 0.525039 0.621489 0.176124
N2    N     N_3   0.143860 0.496700 0.498910 -0.314973
C31   C     C_3   0.086572 0.581043 0.432307 0.535259
C32   C     C_3   0.069912 0.547644 0.573173 0.245559
H24   H     H_    0.078297 0.482815 0.622130 0.212792
H25   H     H_    0.867783 0.644855 0.414130 0.244434
Cl1   Cl    Cl    0.661698 0.868745 0.359849 -0.581448
Cl2   Cl    Cl    0.637776 0.864411 0.642889 -0.612985
N3    N     N_R   0.110458 0.275456 0.554686 0.087718
O9    O     O_R   0.050207 0.166249 0.558683 -0.347393
O10   O     O_R   0.194297 0.302773 0.607640 -0.325558
N4    N     N_R   0.110476 0.300742 0.417412 0.166502
O11   O     O_R   0.016767 0.275524 0.368704 -0.337359
O12   O     O_R   0.232891 0.253576 0.401071 -0.320140
N5    N     N_R   0.147018 0.563447 0.350215 0.114943
O13   O     O_R   0.180531 0.457323 0.319748 -0.279352
O14   O     O_R   0.122171 0.650075 0.299694 -0.302800
Cl3   Cl    Cl    0.144736 0.684382 0.612370 -0.511443
N6    N     N_R   0.109692 0.715932 0.447926 0.160437
O15   O     O_R   0.213209 0.774170 0.409944 -0.343640
O16   O     O_R   0.009464 0.785737 0.477664 -0.341419
N7    N     N_R   0.724815 0.494736 0.979718 0.116551
O17   O     O_R   0.844137 0.531380 0.002931 -0.314929
O18   O     O_R   0.722488 0.403790 0.930530 -0.310469
Cl4   Cl    Cl    0.207344 0.416199 0.756684 -0.494898

loop_
_geom_bond_atom_site_label_1
_geom_bond_atom_site_label_2
_geom_bond_distance
_ccdc_geom_bond_type
C21   C25   1.527261 S    
C27   H19   1.100074 S    
C22   Cl2   1.796521 S    
C9    C10   1.392170 A    
C8    C16   1.466367 S    
Cu1   Cu2   2.734074 S    
C20   H11   1.110900 S    
N7    O17   1.300996 A    
Cu1   O7    1.961964 S    
C16   C17   1.350399 D    
C14   H8    1.082866 S    
C29   H25   1.109901 S    
O4    C2    1.312605 A    
O7    C4    1.311369 A    
N5    O14   1.304445 A    
C11   H5    1.082661 S    
C5    C6    1.408330 A    
C27   N1    1.465283 S    
C29   N1    1.469721 S    
C8    C9    1.394531 A    
C17   N7    1.440393 S    
O5    C3    1.317050 A    
C2    C5    1.475823 S    
C21   H17   1.111973 S    
C16   H6    1.086946 S    
C6    C7    1.389076 A    
N2    C32   1.524657 S    
C26   H16   1.113017 S    
C13   C14   1.389880 A    
C24   C26   1.558163 S    
C29   C31   1.589925 S    
H21   C29   1.113526 S    
C12   C18   1.396588 A    
C19   Cl1   1.797764 S    
H12   C21   1.105233 S    
O3    Cu1   1.965407 S    
C9    H4    1.084440 S    
C21   C23   1.552943 S    
C28   N4    1.492554 S    
C26   H15   1.113007 S    
C22   H14   1.112211 S    
C5    C10   1.415169 A    
C31   N5    1.502328 S    
N7    O18   1.301613 A    
C32   H24   1.097208 S    
C14   C15   1.403303 A    
N3    O10   1.296008 A    
C20   H10   1.113414 S    
N5    O13   1.293562 A    
H13   C25   1.105927 S    
C6    H1    1.082897 S    
C22   C23   1.566121 S    
O1    C1    1.313259 A    
C3    C24   1.487493 S    
C13   H3    1.083860 S    
C30   H23   1.110297 S    
N4    O11   1.304748 A    
C19   H9    1.107659 S    
C31   N6    1.495570 S    
C30   C32   1.585533 S    
C28   N2    1.579663 S    
Cu2   O8    1.965403 S    
C30   H22   1.106886 S    
C7    C8    1.398060 A    
C13   C18   1.398692 A    
N4    O12   1.296024 A    
O3    C2    1.315328 A    
C24   C25   1.543657 S    
O8    C4    1.303443 A    
C32   Cl3   1.791623 S    
N6    O16   1.302383 A    
C27   H20   1.116037 S    
Cu1   O5    1.973569 S    
C11   C15   1.408033 A    
C12   H2    1.083095 S    
O1    Cu1   1.969757 S    
Cu1   N2    2.053290 S    
O2    Cu2   1.973570 S    
N3    O9    1.303638 A    
O6    C3    1.301009 A    
O4    Cu2   1.961966 S    
C15   C17   1.477533 S    
C1    C23   1.488568 S    
O2    C1    1.304130 A    
C19   C20   1.545242 S    
C28   N3    1.482732 S    
C22   C26   1.549237 S    
C10   Cl4   1.750408 S    
N2    C31   1.589188 S    
C30   N1    1.490765 S    
Cu2   O6    1.969757 S    
N6    O15   1.300585 A    
C27   C28   1.596837 S    
C7    H7    1.082727 S    
C4    C18   1.447969 S    
C19   C23   1.563540 S    
C11   C12   1.390665 A    
C25   H18   1.111972 S    
Cu2   N1    2.053758 S    
C20   C24   1.547357 S    
