data_mof_unit_26760.cif
_audit_creation_date              2012-12-11T14:37:46-0500
_audit_creation_method            fapswitch 2.2
_symmetry_space_group_name_H-M    P1
_symmetry_Int_Tables_number       1
_space_group_crystal_system       triclinic
_cell_length_a                    14.451689
_cell_length_b                    15.850119
_cell_length_c                    7.006109
_cell_angle_alpha                 89.998161
_cell_angle_beta                  80.821578
_cell_angle_gamma                 89.999576
_cell_volume                      1584.27872397

loop_
_atom_site_label
_atom_site_type_symbol
_atom_type_description
_atom_site_fract_x
_atom_site_fract_y
_atom_site_fract_z
_atom_type_partial_charge
O1    O     O_R   0.337080 0.165770 0.524980 -0.534135
O2    O     O_R   0.662920 0.834230 0.475020 -0.543010
O3    O     O_R   0.662920 0.665770 0.475020 -0.534180
O4    O     O_R   0.337080 0.334230 0.524980 -0.543124
O5    O     O_R   0.348340 0.341430 0.191390 -0.533852
O6    O     O_R   0.651660 0.658570 0.808610 -0.529310
O7    O     O_R   0.651660 0.841430 0.808610 -0.533988
O8    O     O_R   0.348340 0.158570 0.191390 -0.529229
O9    O     O_R   0.165780 0.339950 0.082750 -0.523542
O10   O     O_R   0.834220 0.660050 0.917250 -0.516897
O11   O     O_R   0.834220 0.839950 0.917250 -0.523533
O12   O     O_R   0.165780 0.160050 0.082750 -0.516894
C1    C     C_R   0.369960 0.364553 0.356044 0.610332
C2    C     C_R   0.629980 0.635467 0.643979 0.636039
C3    C     C_R   0.630039 0.864554 0.643952 0.609935
C4    C     C_R   0.370019 0.135465 0.356026 0.635841
O13   O     O_3   0.191540 0.250000 0.407620 -0.358007
O14   O     O_3   0.808460 0.750000 0.592380 -0.357969
V1    V     V_3+5 0.262540 0.250000 0.108780 1.521962
V2    V     V_3+5 0.737460 0.750000 0.891220 1.521754
O15   O     O_R   0.154530 0.164290 0.756910 -0.538410
O16   O     O_R   0.845470 0.835710 0.243090 -0.537874
O17   O     O_R   0.845470 0.664290 0.243090 -0.538426
O18   O     O_R   0.154530 0.335710 0.756910 -0.537889
C5    C     C_R   0.132575 0.133635 0.931521 0.731653
C6    C     C_R   0.867237 0.866539 0.068584 0.723921
C7    C     C_R   0.867426 0.633636 0.068482 0.731625
C8    C     C_R   0.132765 0.366541 0.931411 0.723890
H1    H     H_    0.720981 0.389297 0.412892 0.107375
H2    H     H_    0.515304 0.465408 0.511146 0.094012
H3    H     H_    0.278394 0.888764 0.589041 0.107259
H4    H     H_    0.484123 0.964513 0.487671 0.094159
V3    V     V_3+5 0.240320 0.250000 0.616280 1.461782
V4    V     V_3+5 0.759680 0.750000 0.383720 1.461720
O19   O     O_3   0.311330 0.250000 0.867310 -0.382941
O20   O     O_3   0.688670 0.750000 0.132690 -0.382997
C9    C     C_3   0.067792 0.510872 0.103579 0.421408
C10   C     C_3   0.932202 0.489177 0.896276 0.423157
C11   C     C_3   0.932213 0.010878 0.896427 0.421372
C12   C     C_3   0.067808 0.989162 0.103711 0.423007
C13   C     C_3   0.043630 0.575316 0.952671 -0.395707
C14   C     C_3   0.956308 0.424717 0.047349 -0.405406
C15   C     C_3   0.956380 0.075309 0.047343 -0.395641
C16   C     C_3   0.043696 0.924714 0.952630 -0.405341
H5    H     H_    0.080209 0.635977 0.913660 0.127741
H6    H     H_    0.919513 0.364163 0.086484 0.126176
H7    H     H_    0.919802 0.135969 0.086373 0.127674
H8    H     H_    0.080490 0.864162 0.913472 0.126221
C17   C     C_3   0.937870 0.563431 0.036044 -0.124319
C18   C     C_3   0.062118 0.436616 0.963940 -0.112556
C19   C     C_3   0.062139 0.063426 0.963959 -0.124286
C20   C     C_3   0.937887 0.936612 0.036050 -0.112531
C21   C     C_3   0.963554 0.499877 0.184980 0.169794
C22   C     C_3   0.036452 0.500179 0.815056 0.173811
C23   C     C_3   0.036449 0.999883 0.815015 0.169710
C24   C     C_3   0.963559 0.000163 0.184943 0.173799
C25   C     C_2   0.596154 0.485115 0.242851 0.194465
C26   C     C_2   0.638041 0.366272 0.677656 0.198016
C27   C     C_2   0.403840 0.985067 0.756199 0.192340
C28   C     C_2   0.360783 0.864889 0.324093 0.196545
C29   C     C_2   0.582209 0.452411 0.421912 -0.232063
C30   C     C_2   0.653234 0.400780 0.500361 -0.171186
C31   C     C_2   0.417346 0.951814 0.577676 -0.231245
C32   C     C_2   0.346016 0.899957 0.500816 -0.170074
N1    N     N_3   0.551987 0.375153 0.810031 -0.651891
H9    H     H_    0.539639 0.439366 0.837131 0.234057
H10   H     H_    0.497440 0.350837 0.744901 0.233614
N2    N     N_3   0.680831 0.473966 0.107772 -0.612264
H11   H     H_    0.692079 0.409367 0.084584 0.239149
H12   H     H_    0.736367 0.498395 0.169246 0.218057
N3    N     N_3   0.446626 0.873344 0.190882 -0.652429
H13   H     H_    0.458987 0.937469 0.162567 0.234742
H14   H     H_    0.501319 0.849268 0.255922 0.233649
N4    N     N_3   0.319383 0.974350 0.892148 -0.612599
H15   H     H_    0.308098 0.909826 0.916506 0.239792
H16   H     H_    0.263709 0.998577 0.830799 0.218281
O21   O     O_3   0.140670 0.520779 0.210863 -0.641380
H17   H     H_    0.144801 0.582225 0.234351 0.271283
O22   O     O_3   0.859575 0.479421 0.788247 -0.628746
H18   H     H_    0.854113 0.417868 0.767747 0.274967
O23   O     O_3   0.859329 0.020801 0.789161 -0.641416
H19   H     H_    0.855272 0.082241 0.765510 0.271219
O24   O     O_3   0.140443 0.979388 0.211712 -0.628818
H20   H     H_    0.145803 0.917842 0.232448 0.274992
N5    N     N_3   0.923334 0.498900 0.388109 -0.596243
H21   H     H_    0.939238 0.439847 0.440631 0.259342
H22   H     H_    0.850549 0.500709 0.396822 0.226337
N6    N     N_3   0.077251 0.501318 0.612287 -0.595503
H23   H     H_    0.059830 0.559779 0.559030 0.260513
H24   H     H_    0.150033 0.501513 0.605182 0.227517
N7    N     N_3   0.076670 0.998913 0.611887 -0.596312
H25   H     H_    0.060720 0.939878 0.559345 0.259373
H26   H     H_    0.149456 0.000668 0.603185 0.226405
N8    N     N_3   0.922761 0.001295 0.387713 -0.595615
H27   H     H_    0.940175 0.059758 0.440962 0.260474
H28   H     H_    0.849978 0.001483 0.394823 0.227523

loop_
_geom_bond_atom_site_label_1
_geom_bond_atom_site_label_2
_ccdc_geom_bond_type
O10   C7    A    
C26   C30   D    
O23   H19   S    
O1    V3    S    
C10   C17   S    
C19   C23   S    
N5    H21   S    
C24   N8    S    
C18   C22   S    
N4    H16   S    
C10   C14   S    
C14   C21   S    
O6    C2    A    
C10   O22   S    
C14   H6    S    
O4    C1    A    
C23   N7    S    
O13   V1    S    
H1    C30   S    
C8    C18   S    
O9    V1    S    
C11   C23   S    
O10   V2    S    
N2    H11   S    
N1    H10   S    
O17   C7    A    
O5    C1    A    
C9    C21   S    
O2    V4    S    
O7    C3    A    
C11   C20   S    
O8    C4    A    
C12   O24   S    
O3    V4    S    
O13   V3    S    
C13   C17   S    
N5    H22   S    
O16   V4    S    
O11   V2    S    
O8    V1    S    
N4    H15   S    
C7    C17   S    
C11   O23   S    
N7    H25   S    
N3    H14   S    
C11   C15   S    
O11   C6    A    
C12   C24   S    
O21   H17   S    
C9    O21   S    
O22   H18   S    
C5    C19   S    
C6    C20   S    
N7    H26   S    
C26   N1    S    
O24   H20   S    
C10   C22   S    
O17   V4    S    
N8    H27   S    
O1    C4    A    
N8    H28   S    
O2    C3    A    
O14   V4    S    
C27   N4    S    
O3    C2    A    
C14   C18   S    
N6    H24   S    
N1    H9    S    
C25   N2    S    
O15   C5    A    
O4    V3    S    
H3    C32   S    
O18   C8    A    
H4    C31   S    
C16   C20   S    
C25   C29   D    
O5    V1    S    
C12   C19   S    
O6    V2    S    
C27   C31   D    
O18   V3    S    
C28   N3    S    
O12   C5    A    
C28   C32   D    
N3    H13   S    
V1    O19   S    
C22   N6    S    
C9    C18   S    
C16   C23   S    
C15   C19   S    
C17   C21   S    
O12   V1    S    
V3    O19   S    
V4    O20   S    
O14   V2    S    
C9    C13   S    
C29   C30   S    
C13   C22   S    
C31   C32   S    
V2    O20   S    
C16   H8    S    
C15   C24   S    
C12   C16   S    
O15   V3    S    
N6    H23   S    
N2    H12   S    
O7    V2    S    
O16   C6    A    
H2    C29   S    
C13   H5    S    
C21   N5    S    
C15   H7    S    
C20   C24   S    
O9    C8    A    
