data_mof_unit_19279.cif
_audit_creation_date              2012-10-26T21:24:52-0400
_audit_creation_method            fapswitch 2.2
_symmetry_space_group_name_H-M    P1
_symmetry_Int_Tables_number       1
_space_group_crystal_system       triclinic
_cell_length_a                    9.620371
_cell_length_b                    10.871819
_cell_length_c                    15.525453
_cell_angle_alpha                 87.67585
_cell_angle_beta                  72.701696
_cell_angle_gamma                 91.188246
_cell_volume                      1548.18450752

loop_
_atom_site_label
_atom_site_type_symbol
_atom_type_description
_atom_site_fract_x
_atom_site_fract_y
_atom_site_fract_z
_atom_type_partial_charge
C1    C     C_R   0.997922 0.262546 0.501279 0.567209
C2    C     C_R   0.226889 0.374377 0.055740 0.065903
C3    C     C_R   0.328816 0.394281 0.103457 0.047936
C4    C     C_R   0.916323 0.498112 0.672202 0.552798
C5    C     C_R   0.077109 0.379313 0.100192 -0.116368
C6    C     C_R   0.028157 0.419848 0.188196 -0.132020
C7    C     C_R   0.274633 0.418431 0.195530 -0.081245
C8    C     C_R   0.108126 0.065539 0.521681 0.048014
C9    C     C_R   0.990687 0.129048 0.509694 0.024916
C10   C     C_R   0.863213 0.061194 0.512575 -0.139870
C11   C     C_R   0.863623 0.932372 0.514534 -0.134768
C12   C     C_R   0.674715 0.439623 0.912146 0.032317
C13   C     C_R   0.990775 0.870115 0.515168 0.001931
C14   C     C_R   0.105870 0.938886 0.528684 0.044192
C15   C     C_3   0.264934 0.935405 0.483623 -0.049014
C16   C     C_R   0.998826 0.737450 0.503451 0.557111
C17   C     C_3   0.266957 0.074576 0.471264 -0.026286
C18   C     C_R   0.593192 0.597355 0.464928 0.144180
C19   C     C_R   0.550250 0.412780 0.548486 0.017669
C20   C     C_R   0.400683 0.414725 0.551495 0.181775
C21   C     C_R   0.449682 0.598353 0.464351 0.180058
C22   C     C_3   0.496430 0.685806 0.381259 -0.057674
C23   C     C_R   0.771736 0.477085 0.960860 0.017614
C24   C     C_3   0.654434 0.673358 0.380937 -0.230466
C25   C     C_R   0.082394 0.485674 0.329232 0.566465
C26   C     C_R   0.867391 0.491579 0.771309 -0.018349
C27   C     C_R   0.128288 0.444342 0.235482 0.017716
C28   C     C_R   0.912505 0.528751 0.914028 0.001041
C29   C     C_R   0.959396 0.531944 0.819545 -0.079740
C30   C     C_R   0.726471 0.447037 0.817181 -0.119961
C31   C     C_2   0.008989 0.587785 0.960976 0.218161
C32   C     C_R   0.527275 0.402109 0.960112 0.041111
C33   C     C_R   0.480601 0.401760 0.056071 0.048495
C34   C     C_R   0.586354 0.417852 0.101065 -0.094051
C35   C     C_R   0.726480 0.459444 0.054988 -0.121762
C36   C     C_R   0.422808 0.370451 0.916017 -0.098188
C37   C     C_R   0.275614 0.354826 0.963586 -0.074704
Cu1   Cu    Cu3+1 0.140670 0.499980 0.500000 1.046400
Cu2   Cu    Cu3+1 0.859330 0.500020 0.500000 0.965293
H1    H     H_    0.797857 0.477629 0.095184 0.091792
H2    H     H_    0.721386 0.618774 0.325491 0.165674
H3    H     H_    0.706515 0.761010 0.392091 0.136837
H4    H     H_    0.912664 0.430489 0.219397 0.128854
H5    H     H_    0.198514 0.335609 0.926768 0.144728
H6    H     H_    0.066583 0.570344 0.782925 0.196013
H7    H     H_    0.659857 0.418047 0.776562 0.128014
H8    H     H_    0.563268 0.402322 0.172953 0.140258
H9    H     H_    0.449745 0.360252 0.844332 0.125465
H10   H     H_    0.967311 0.613104 0.030460 0.122438
H11   H     H_    0.998884 0.357965 0.064890 0.110767
H12   H     H_    0.766258 0.106936 0.508489 0.153608
H13   H     H_    0.767071 0.882656 0.510836 0.161235
H14   H     H_    0.285349 0.888468 0.419377 0.163672
H15   H     H_    0.333351 0.122309 0.507800 0.187542
H16   H     H_    0.586536 0.342701 0.587597 0.133953
H17   H     H_    0.345144 0.421224 0.237302 0.165165
H18   H     H_    0.466727 0.780470 0.397681 0.150085
I1    I     I_    0.372762 0.877161 0.580720 -0.383446
I2    I     I_    0.315078 0.135508 0.331669 -0.390430
I3    I     I_    0.260939 0.294571 0.653190 -0.358556
I4    I     I_    0.470129 0.651979 0.253832 -0.401189
N1    N     N_R   0.648210 0.500930 0.499430 -0.250889
N2    N     N_R   0.352300 0.500890 0.499430 -0.213137
O1    O     O_R   0.118810 0.319640 0.500000 -0.467835
O2    O     O_R   0.881230 0.319680 0.499990 -0.523253
O3    O     O_R   0.055580 0.499970 0.629840 -0.474691
O4    O     O_R   0.818000 0.500010 0.629830 -0.503403
O5    O     O_R   0.118770 0.680320 0.500010 -0.479561
O6    O     O_R   0.881190 0.680360 0.500000 -0.506982
O7    O     O_R   0.182000 0.499990 0.370170 -0.470877
O8    O     O_R   0.944420 0.500030 0.370160 -0.510493
O9    O     O_2   0.137297 0.611966 0.921463 -0.485200

loop_
_geom_bond_atom_site_label_1
_geom_bond_atom_site_label_2
_ccdc_geom_bond_type
Cu1   O7    S    
C18   C21   A    
C24   H3    S    
C19   C20   A    
C22   H18   S    
C12   C23   A    
C18   C24   S    
C15   H14   S    
C28   C29   A    
C3    C7    A    
Cu1   Cu2   S    
C3    C33   A    
C19   N1    A    
C7    C27   A    
C34   C35   A    
C11   H13   S    
Cu1   O3    S    
C8    C9    A    
C1    O2    A    
C25   O8    A    
C20   I3    S    
C9    C10   A    
C13   C14   A    
C12   C32   A    
C24   H2    S    
Cu2   O2    S    
C7    H17   S    
C31   H10   S    
C10   H12   S    
Cu1   O1    S    
C35   H1    S    
C1    C9    S    
C18   N1    A    
C29   H6    S    
C6    C27   A    
C33   C34   A    
Cu2   O6    S    
C23   C28   A    
C17   I2    S    
C16   O5    A    
C31   O9    D    
Cu1   O5    S    
C26   C30   A    
C23   C35   A    
C6    H4    S    
C15   I1    S    
C22   C24   S    
C5    H11   S    
C2    C5    A    
C1    O1    A    
C32   C36   A    
Cu1   N2    S    
C19   H16   S    
C15   C17   S    
Cu2   N1    S    
C36   C37   A    
C8    C14   A    
C12   C30   A    
Cu2   O4    S    
C30   H7    S    
C28   C31   S    
C16   O6    A    
C4    O4    A    
C4    C26   S    
C34   H8    S    
C25   C27   S    
C8    C17   S    
C32   C33   A    
C20   N2    A    
C2    C3    A    
C22   I4    S    
C4    O3    A    
C11   C13   A    
C2    C37   A    
C5    C6    A    
C37   H5    S    
C36   H9    S    
C21   N2    A    
C10   C11   A    
C26   C29   A    
C13   C16   S    
Cu2   O8    S    
C14   C15   S    
C25   O7    A    
C21   C22   S    
C17   H15   S    
