data_mof_unit_66544.cif
_audit_creation_date              2013-03-05T15:40:16-0500
_audit_creation_method            fapswitch 2.2
_symmetry_space_group_name_H-M    P1
_symmetry_Int_Tables_number       1
_space_group_crystal_system       triclinic
_cell_length_a                    10.884905
_cell_length_b                    8.734266
_cell_length_c                    7.548253
_cell_angle_alpha                 102.491334
_cell_angle_beta                  97.046274
_cell_angle_gamma                 92.594233
_cell_volume                      693.434782559

loop_
_atom_site_label
_atom_site_type_symbol
_atom_site_description
_atom_site_fract_x
_atom_site_fract_y
_atom_site_fract_z
_atom_type_partial_charge
O1    O     O_R   0.509050 0.286130 0.619770 -0.567522
O2    O     O_R   0.485540 0.256780 0.308360 -0.535816
C1    C     C_R   0.490076 0.200672 0.454620 0.864136
O3    O     O_R   0.331410 0.514680 0.655740 -0.592447
O4    O     O_R   0.307900 0.485330 0.344330 -0.582303
C2    C     C_R   0.263589 0.510596 0.500198 0.838127
Cu1   Cu    Cu3+1 0.513920 0.517380 0.684380 1.148416
Cu2   Cu    Cu3+1 0.486080 0.482620 0.315620 1.132386
O5    O     O_R   0.514460 0.743220 0.691640 -0.532455
O6    O     O_R   0.490950 0.713870 0.380230 -0.538532
O7    O     O_R   0.692100 0.514670 0.655670 -0.535547
O8    O     O_R   0.668590 0.485320 0.344260 -0.529383
C3    C     C_R   0.508364 0.799223 0.544949 0.831267
C4    C     C_R   0.737941 0.504954 0.503096 0.857306
H1    H     H_    0.096229 0.291630 0.326699 0.183310
C5    C     C_R   0.145754 0.806328 0.671750 0.204170
C6    C     C_R   0.083065 0.940740 0.733668 0.131481
C7    C     C_R   0.959470 0.923825 0.754812 -0.147161
H2    H     H_    0.917846 0.024637 0.826588 0.249761
C8    C     C_R   0.900632 0.774214 0.724501 0.257329
C9    C     C_R   0.949266 0.646138 0.610871 -0.087095
C10   C     C_R   0.077600 0.658373 0.594210 0.041257
C11   C     C_R   0.130442 0.523265 0.499635 -0.080761
C12   C     C_R   0.054692 0.391824 0.402098 -0.276249
C13   C     C_R   0.926978 0.384421 0.402725 0.334824
C14   C     C_R   0.873466 0.509713 0.511165 -0.140890
C15   C     C_2   0.464378 0.034605 0.435723 0.088620
C16   C     C_2   0.523335 0.965817 0.564016 0.012455
N1    N     N_2   0.465100 0.456430 0.038520 -0.048621
N2    N     N_2   0.534900 0.543570 0.961480 0.076956
N3    N     N_R   0.577640 0.689462 0.070962 0.294890
O9    O     O_R   0.521251 0.813153 0.049143 -0.262317
O10   O     O_R   0.682846 0.707216 0.177608 -0.272772
N4    N     N_3   0.277566 0.819896 0.701635 -0.533159
H3    H     H_    0.309004 0.927193 0.677788 0.244852
H4    H     H_    0.304223 0.824415 0.840428 0.299944
N5    N     N_3   0.148645 0.092715 0.793997 -0.592859
H5    H     H_    0.139373 0.135428 0.931909 0.258731
H6    H     H_    0.106015 0.168141 0.719036 0.236490
N6    N     N_R   0.826448 0.748036 0.859854 0.144346
O11   O     O_R   0.761338 0.859483 0.933892 -0.213288
O12   O     O_R   0.854365 0.638033 0.946807 -0.289201
N7    N     N_R   0.853897 0.247147 0.293938 0.158586
O13   O     O_R   0.761585 0.185094 0.355054 -0.300225
O14   O     O_R   0.888519 0.172899 0.141613 -0.308810
N8    N     N_R   0.362881 0.956286 0.297757 0.131905
O15   O     O_R   0.331064 0.013637 0.154852 -0.359739
O16   O     O_R   0.285871 0.851329 0.331483 -0.364654
N9    N     N_R   0.611883 0.051989 0.713617 0.137487
O17   O     O_R   0.588124 0.068933 0.881090 -0.241666
O18   O     O_R   0.714967 0.115876 0.682569 -0.317327
N10   N     N_3   0.389573 0.336428 0.919592 -0.409195
H7    H     H_    0.298548 0.359007 0.940952 0.217359
H8    H     H_    0.407633 0.232839 0.962038 0.283602

loop_
_geom_bond_atom_site_label_1
_geom_bond_atom_site_label_2
_geom_bond_distance
_ccdc_geom_bond_type
O1    C1    1.293888 A    
O4    Cu2   1.978415 S    
C9    C14   1.427489 A    
N3    O10   1.298920 A    
C3    C16   1.430633 S    
N1    N2    1.319922 D    
N4    H3    1.042505 S    
C16   N9    1.438845 S    
C7    C8    1.388899 A    
N3    O9    1.297386 A    
Cu2   O8    1.970299 S    
N7    O13   1.299542 A    
C13   N7    1.439493 S    
N6    O12   1.302521 A    
O2    C1    1.297803 A    
C13   C14   1.412097 A    
Cu1   Cu2   2.711272 S    
N5    H6    1.045933 S    
Cu1   N2    2.037269 S    
C6    N5    1.432436 S    
C9    C10   1.419153 A    
N10   H7    1.043885 S    
Cu1   O7    1.978416 S    
N7    O14   1.300180 A    
N5    H5    1.046049 S    
C4    C14   1.467276 S    
O3    Cu1   1.970298 S    
O4    C2    1.304652 A    
Cu2   N1    2.037269 S    
C15   N8    1.454010 S    
C1    C15   1.437515 S    
H1    C12   1.085200 S    
O8    C4    1.309197 A    
C6    C7    1.379161 A    
N4    H4    1.043934 S    
O1    Cu1   1.969289 S    
N2    N3    1.385496 S    
C8    N6    1.426495 S    
O7    C4    1.298099 A    
N8    O16   1.300615 A    
C2    C11   1.458049 S    
C11   C12   1.392708 A    
Cu1   O5    1.961144 S    
C12   C13   1.389360 A    
O3    C2    1.300592 A    
C7    H2    1.078931 S    
C15   C16   1.358199 D    
N9    O17   1.299828 A    
O5    C3    1.299575 A    
N8    O15   1.300851 A    
N6    O11   1.298617 A    
C5    C10   1.429121 A    
C5    N4    1.420247 S    
C8    C9    1.420291 A    
C10   C11   1.425052 A    
O6    C3    1.290740 A    
Cu2   O6    1.969287 S    
O2    Cu2   1.961145 S    
N10   H8    1.042099 S    
C5    C6    1.405605 A    
N9    O18   1.299893 A    
N1    N10   1.383546 S    
