data_mof_unit_6691.cif
_audit_creation_date              2012-10-26T18:27:08-0400
_audit_creation_method            fapswitch 2.2
_symmetry_space_group_name_H-M    P1
_symmetry_Int_Tables_number       1
_space_group_crystal_system       triclinic
_cell_length_a                    15.02732
_cell_length_b                    10.918577
_cell_length_c                    9.785291
_cell_angle_alpha                 90.190833
_cell_angle_beta                  89.567529
_cell_angle_gamma                 90.687908
_cell_volume                      1605.37082819

loop_
_atom_site_label
_atom_site_type_symbol
_atom_type_description
_atom_site_fract_x
_atom_site_fract_y
_atom_site_fract_z
_atom_type_partial_charge
C1    C     C_R   0.499502 0.265613 0.499876 0.558842
C2    C     C_R   0.187264 0.383721 0.453460 -0.012679
C3    C     C_R   0.232929 0.489024 0.501769 0.021554
C4    C     C_R   0.329316 0.497231 0.500526 0.538835
C5    C     C_R   0.186798 0.589912 0.551403 -0.137182
C6    C     C_2   0.503981 0.932752 0.387919 -0.147521
C7    C     C_2   0.507257 0.866618 0.502822 -0.100959
C8    C     C_2   0.508690 0.066825 0.388398 -0.144210
C9    C     C_2   0.495262 0.133400 0.501742 -0.098364
C10   C     C_2   0.486418 0.404337 0.922839 0.000977
C11   C     C_2   0.462920 0.416476 0.071702 0.126137
C12   C     C_R   0.907492 0.595981 0.545862 -0.008915
C13   C     C_R   0.501649 0.734394 0.500259 0.552343
C14   C     C_R   0.670648 0.498143 0.499363 0.566224
C15   C     C_R   0.814370 0.593061 0.548962 -0.135237
C16   C     C_R   0.767057 0.493007 0.497189 -0.027466
C17   C     C_R   0.811048 0.389634 0.445478 0.048559
C18   C     C_R   0.904822 0.387927 0.446686 0.001530
C19   C     C_R   0.952964 0.491008 0.497062 0.021826
C20   C     C_3   0.393048 0.328203 0.123567 -0.344280
C21   C     C_3   0.569224 0.580604 0.102728 -0.176865
C22   C     C_2   0.758459 0.282416 0.396488 0.560811
C23   C     C_R   0.951700 0.286192 0.397188 -0.104423
C24   C     C_3   0.237516 0.269912 0.410308 -0.404200
C25   C     C_2   0.914971 0.816665 0.635028 0.564548
C26   C     C_R   0.043934 0.284413 0.399388 -0.127542
C27   C     C_R   0.093100 0.384722 0.450286 0.040508
C28   C     C_R   0.046813 0.488870 0.498933 0.047817
C29   C     C_R   0.094330 0.590830 0.550241 -0.015947
C30   C     C_R   0.049358 0.694139 0.597185 -0.122452
C31   C     C_R   0.956588 0.699504 0.593110 0.061061
Cu1   Cu    Cu3+1 0.500020 0.500020 0.638630 0.952618
Cu2   Cu    Cu3+1 0.499980 0.499980 0.361370 0.955339
H1    H     H_    0.776899 0.667993 0.592010 0.166177
H2    H     H_    0.087155 0.772845 0.633637 0.145678
H3    H     H_    0.499068 0.887835 0.288981 0.146443
H4    H     H_    0.360022 0.279969 0.037230 0.081069
H5    H     H_    0.422271 0.256599 0.187835 0.142858
H6    H     H_    0.340261 0.378080 0.179004 0.165634
H7    H     H_    0.607781 0.618737 0.188557 0.178942
H8    H     H_    0.617601 0.532545 0.035569 0.134701
H9    H     H_    0.540524 0.662615 0.054348 0.071784
H10   H     H_    0.677379 0.211655 0.252464 0.334725
H11   H     H_    0.310319 0.277492 0.424624 0.141359
H12   H     H_    0.516538 0.908187 0.602316 0.111774
H13   H     H_    0.214586 0.190667 0.472665 0.131812
H14   H     H_    0.225368 0.250192 0.300630 0.122562
H15   H     H_    0.916374 0.960985 0.764356 0.352416
H16   H     H_    0.522126 0.111289 0.291237 0.135762
H17   H     H_    0.478985 0.092205 0.599322 0.096709
H18   H     H_    0.486827 0.313892 0.876821 0.144656
H19   H     H_    0.476890 0.580296 0.885805 0.220335
H20   H     H_    0.917662 0.206678 0.355658 0.164630
H21   H     H_    0.075840 0.203329 0.359787 0.123475
H22   H     H_    0.223590 0.669181 0.588902 0.110390
N1    N     N_2   0.499020 0.498660 0.846910 -0.365129
N2    N     N_2   0.499000 0.498630 0.153040 -0.226167
O1    O     O_R   0.500020 0.321960 0.617040 -0.500732
O2    O     O_R   0.710440 0.290490 0.275192 -0.672889
O3    O     O_2   0.854275 0.859547 0.568551 -0.501315
O4    O     O_R   0.948837 0.881488 0.747021 -0.698028
O5    O     O_R   0.499980 0.321920 0.382900 -0.499747
O6    O     O_R   0.370270 0.499990 0.617090 -0.495926
O7    O     O_R   0.370240 0.499950 0.382940 -0.505840
O8    O     O_R   0.500020 0.678080 0.617100 -0.504856
O9    O     O_R   0.499980 0.678040 0.382960 -0.509709
O10   O     O_R   0.629760 0.500050 0.617060 -0.482510
O11   O     O_R   0.629730 0.500010 0.382910 -0.473651
O12   O     O_2   0.757613 0.187386 0.462265 -0.498682

loop_
_geom_bond_atom_site_label_1
_geom_bond_atom_site_label_2
_ccdc_geom_bond_type
C25   C31   S    
Cu2   N2    S    
C14   O10   A    
C21   N2    S    
C6    C7    D    
C19   C28   A    
C25   O3    D    
Cu1   O1    S    
Cu1   O6    S    
C20   H5    S    
C4    O7    A    
C15   H1    S    
C17   C22   S    
C12   C15   A    
H10   O2    S    
C2    C27   A    
C24   H13   S    
C1    O5    A    
Cu1   O8    S    
C2    C3    A    
H15   O4    S    
C1    C9    S    
C25   O4    S    
C1    O1    A    
Cu1   Cu2   S    
C20   H4    S    
C4    O6    A    
C26   C27   A    
C29   C30   A    
C21   H7    S    
H19   N1    S    
C30   H2    S    
Cu2   O7    S    
C21   H8    S    
C10   H18   S    
C26   H21   S    
C12   C19   A    
C27   C28   A    
C28   C29   A    
C5    H22   S    
Cu2   O9    S    
C23   H20   S    
C5    C29   A    
C13   O9    A    
Cu1   O10   S    
C12   C31   A    
C2    C24   S    
C30   C31   A    
C24   H11   S    
C14   C16   S    
C11   C20   S    
C10   C11   S    
C18   C23   A    
C7    H12   S    
C7    C13   S    
C10   N1    D    
C13   O8    A    
C17   C18   A    
C18   C19   A    
C23   C26   A    
C22   O2    S    
C20   H6    S    
C14   O11   A    
C8    C9    D    
C6    C8    S    
C21   H9    S    
C22   O12   D    
C11   N2    D    
C24   H14   S    
Cu2   O5    S    
C8    H16   S    
Cu1   N1    S    
C9    H17   S    
C15   C16   A    
Cu2   O11   S    
C6    H3    S    
C16   C17   A    
C3    C5    A    
C3    C4    S    
