data_mof_unit_38599.cif
_audit_creation_date              2012-10-26T21:02:57-0400
_audit_creation_method            fapswitch 2.2
_symmetry_space_group_name_H-M    P1
_symmetry_Int_Tables_number       1
_space_group_crystal_system       triclinic
_cell_length_a                    12.317714
_cell_length_b                    13.171503
_cell_length_c                    23.50737
_cell_angle_alpha                 77.784782
_cell_angle_beta                  101.163704
_cell_angle_gamma                 116.556708
_cell_volume                      3312.81333667

loop_
_atom_site_label
_atom_site_type_symbol
_atom_type_description
_atom_site_fract_x
_atom_site_fract_y
_atom_site_fract_z
_atom_type_partial_charge
C1    C     C_R   0.854896 0.286531 0.505094 0.529741
C2    C     C_R   0.015531 0.595104 0.870519 0.399836
C3    C     C_R   0.902206 0.511365 0.749363 -0.051138
C4    C     C_R   0.999087 0.499257 0.608947 0.550250
C5    C     C_R   0.903808 0.512647 0.690068 -0.135743
C6    C     C_R   0.996934 0.497645 0.671529 0.001058
C7    C     C_R   0.087856 0.480725 0.713394 -0.145952
C8    C     C_R   0.086028 0.479519 0.772621 -0.058836
C9    C     C_R   0.993403 0.495010 0.790804 0.238321
C10   C     C_R   0.910207 0.516552 0.227662 -0.057059
C11   C     C_R   0.909999 0.517076 0.286848 -0.146893
C12   C     C_R   0.952556 0.294209 0.049489 -0.122506
C13   C     C_R   0.000948 0.499732 0.328537 0.003107
C14   C     C_R   0.092097 0.481966 0.309873 -0.145221
C15   C     C_R   0.092127 0.481582 0.250600 -0.058242
C16   C     C_R   0.145086 0.713446 0.491598 0.550829
C17   C     C_R   0.001207 0.498864 0.209310 0.240335
C18   C     C_R   0.275840 0.021474 0.422411 -0.126853
C19   C     C_R   0.227974 0.834673 0.479826 -0.000693
C20   C     C_R   0.815250 0.085594 0.544393 -0.128356
C21   C     C_R   0.736232 0.970935 0.556543 -0.135559
C22   C     C_R   0.612999 0.933035 0.535778 -0.122982
C23   C     C_R   0.950656 0.293490 0.990040 -0.122414
C24   C     C_R   0.566562 0.009292 0.500121 0.023917
C25   C     C_R   0.650311 0.123312 0.482225 0.010975
C26   C     C_R   0.439948 0.976080 0.481353 0.021124
C27   C     C_R   0.400506 0.053184 0.441178 0.042553
C28   C     C_R   0.000438 0.500095 0.391071 0.549539
C29   C     C_R   0.485971 0.159937 0.419013 -0.143877
C30   C     C_R   0.609106 0.193798 0.438395 -0.125439
C31   C     C_R   0.350889 0.868646 0.501639 -0.137215
C32   C     C_R   0.189877 0.912236 0.441307 -0.130740
C33   C     C_R   0.773172 0.163422 0.508648 -0.008205
C34   C     C_R   0.972190 0.394185 0.949865 0.028837
C35   C     C_R   0.343089 0.324412 0.591540 -0.127995
C36   C     C_R   0.760099 0.646343 0.421551 0.053959
C37   C     C_R   0.663555 0.677983 0.404557 -0.153618
C38   C     C_R   0.559614 0.622164 0.433937 -0.125005
C39   C     C_R   0.550942 0.533417 0.481064 -0.019956
C40   C     C_R   0.022822 0.597913 0.110116 0.399701
C41   C     C_R   0.652417 0.504233 0.496925 0.135449
C42   C     C_R   0.446364 0.473376 0.513188 -0.056484
C43   C     C_R   0.444449 0.384009 0.559618 0.046104
C44   C     C_R   0.543145 0.354406 0.573664 0.212703
C45   C     C_R   0.995664 0.496321 0.969940 -0.028405
C46   C     C_R   0.646232 0.416695 0.543979 -0.094893
C47   C     C_R   0.342568 0.497884 0.501382 0.041982
C48   C     C_R   0.244813 0.353200 0.577838 0.023980
C49   C     C_R   0.977989 0.398354 0.129527 0.399962
C50   C     C_R   0.976039 0.395640 0.069992 0.029013
C51   C     C_R   0.997644 0.497059 0.030076 -0.028437
C52   C     C_R   0.021234 0.599222 0.050151 0.028883
C53   C     C_3   0.536024 0.174421 0.597291 -0.014385
C54   C     C_3   0.502048 0.070082 0.644370 -0.354880
C55   C     C_R   0.017283 0.597752 0.930032 0.029366
C56   C     C_R   0.040711 0.699169 0.950526 -0.122459
C57   C     C_R   0.042690 0.699902 0.009974 -0.122558
C58   C     C_R   0.970943 0.395598 0.889911 0.401386
Cu1   Cu    Cu3+1 0.098270 0.475410 0.513370 0.932994
Cu2   Cu    Cu3+1 0.901730 0.524590 0.486630 0.915890
H1    H     H_    0.935588 0.215091 0.079276 0.169276
H2    H     H_    0.557370 0.843041 0.547540 0.108000
H3    H     H_    0.769978 0.911512 0.583853 0.127504
H4    H     H_    0.932356 0.213858 0.975712 0.169059
H5    H     H_    0.671365 0.274989 0.417353 0.156978
H6    H     H_    0.166506 0.307256 0.602220 0.124007
H7    H     H_    0.339245 0.255688 0.626973 0.152678
H8    H     H_    0.335877 0.563768 0.466850 0.122547
H9    H     H_    0.840445 0.690117 0.398530 0.126764
H10   H     H_    0.487769 0.650228 0.418794 0.103613
H11   H     H_    0.669284 0.746006 0.368484 0.113037
H12   H     H_    0.838491 0.530803 0.299887 0.129738
H13   H     H_    0.719966 0.393505 0.559903 0.189413
H14   H     H_    0.057673 0.778288 0.920741 0.169434
H15   H     H_    0.061044 0.779550 0.024302 0.169217
H16   H     H_    0.830095 0.522998 0.763187 0.136244
H17   H     H_    0.832179 0.525265 0.658865 0.140352
H18   H     H_    0.160673 0.468851 0.700450 0.133717
H19   H     H_    0.156997 0.467189 0.804451 0.133974
H20   H     H_    0.839411 0.529558 0.195977 0.133485
H21   H     H_    0.626538 0.193560 0.584932 0.143969
H22   H     H_    0.465602 0.152096 0.558601 0.142706
H23   H     H_    0.163461 0.468593 0.340959 0.128624
H24   H     H_    0.411353 0.047957 0.657541 0.161548
H25   H     H_    0.497802 0.995899 0.627186 0.108588
H26   H     H_    0.571580 0.088161 0.683283 0.175941
H27   H     H_    0.162982 0.468214 0.236664 0.131185
H28   H     H_    0.094780 0.886929 0.423931 0.127188
H29   H     H_    0.457571 0.217665 0.386414 0.115373
H30   H     H_    0.245300 0.079975 0.391715 0.117112
H31   H     H_    0.374475 0.808303 0.533947 0.119064
H32   H     H_    0.909067 0.113888 0.564363 0.131478
N1    N     N_R   0.001087 0.498439 0.148338 -0.398548
N2    N     N_R   0.992731 0.495102 0.851720 -0.398513
N3    N     N_R   0.246280 0.438190 0.533650 -0.232974
N4    N     N_R   0.754320 0.561190 0.466710 -0.233490
O1    O     O_R   0.972510 0.318130 0.516820 -0.497815
O2    O     O_R   0.082990 0.479280 0.429170 -0.502240
O3    O     O_R   0.917010 0.520800 0.406580 -0.512753
O4    O     O_2   0.046652 0.695338 0.130189 -0.496850
O5    O     O_3   0.541882 0.268479 0.619655 -0.569860
O6    O     O_2   0.955834 0.301619 0.168255 -0.499005
O7    O     O_2   0.947507 0.298298 0.869826 -0.495299
O8    O     O_2   0.037645 0.691843 0.831794 -0.500056
O9    O     O_R   0.806530 0.359650 0.494230 -0.535863
O10   O     O_R   0.082990 0.479200 0.593420 -0.500556
O11   O     O_R   0.917010 0.520720 0.570830 -0.518487
O12   O     O_R   0.193470 0.640350 0.505770 -0.506751
O13   O     O_R   0.027490 0.681870 0.483180 -0.501544

loop_
_geom_bond_atom_site_label_1
_geom_bond_atom_site_label_2
_ccdc_geom_bond_type
C55   C56   A    
C38   H10   S    
C48   N3    A    
C27   C29   A    
C40   N1    A    
Cu2   O3    S    
C19   C31   A    
C54   H24   S    
C1    C33   S    
C7    C8    A    
C39   C41   A    
C53   C54   S    
C20   H32   S    
C12   C23   A    
C26   C27   A    
C29   C30   A    
C36   C37   A    
C24   C26   A    
C2    C55   A    
C38   C39   A    
C41   N4    A    
C45   C51   A    
C10   C17   A    
C32   H28   S    
C56   C57   A    
C53   H21   S    
Cu2   O13   S    
C53   O5    S    
C8    C9    A    
C8    H19   S    
C41   C46   A    
C13   C28   S    
C2    O8    S    
C35   C43   A    
Cu1   Cu2   S    
C13   C14   A    
Cu1   N3    S    
C14   H23   S    
C35   C48   A    
C29   H29   S    
C44   C46   A    
C16   O13   A    
C39   C42   A    
C4    O11   A    
Cu1   O10   S    
C56   H14   S    
C51   C52   A    
C18   H30   S    
C2    N2    A    
C24   C25   A    
C4    C6    S    
C10   C11   A    
C1    O1    A    
C49   O6    S    
C54   H26   S    
C10   H20   S    
C11   H12   S    
C40   C52   A    
C4    O10   A    
C53   H22   S    
C43   C44   A    
C37   C38   A    
C3    C9    A    
C22   H2    S    
C36   N4    A    
C35   H7    S    
C23   C34   A    
C19   C32   A    
C50   C51   A    
C34   C45   A    
C3    H16   S    
Cu2   O11   S    
C7    H18   S    
C20   C33   A    
Cu2   N4    S    
C28   O3    A    
C23   H4    S    
C31   H31   S    
C37   H11   S    
Cu1   O1    S    
C22   C24   A    
C18   C32   A    
C42   C43   A    
C5    H17   S    
C47   H8    S    
C36   H9    S    
C15   H27   S    
C28   O2    A    
C25   C30   A    
C15   C17   A    
C18   C27   A    
C3    C5    A    
C40   O4    S    
C54   H25   S    
C12   C50   A    
C44   O5    S    
C6    C7    A    
Cu1   O12   S    
C49   N1    A    
C57   H15   S    
C58   N2    A    
C12   H1    S    
C11   C13   A    
C5    C6    A    
C16   C19   S    
C42   C47   A    
C21   H3    S    
C30   H5    S    
C52   C57   A    
C16   O12   A    
C26   C31   A    
C17   N1    S    
C20   C21   A    
C45   C55   A    
C49   C50   A    
C25   C33   A    
C34   C58   A    
Cu1   O2    S    
C47   N3    A    
C14   C15   A    
C58   O7    S    
C48   H6    S    
C21   C22   A    
C9    N2    S    
C46   H13   S    
Cu2   O9    S    
C1    O9    A    
