data_mof_unit_17796.cif
_audit_creation_date              2012-12-10T18:10:17-0500
_audit_creation_method            fapswitch 2.2
_symmetry_space_group_name_H-M    P1
_symmetry_Int_Tables_number       1
_space_group_crystal_system       triclinic
_cell_length_a                    10.730131
_cell_length_b                    9.486713
_cell_length_c                    15.871993
_cell_angle_alpha                 89.997788
_cell_angle_beta                  88.608088
_cell_angle_gamma                 89.772588
_cell_volume                      1615.17900662

loop_
_atom_site_label
_atom_site_type_symbol
_atom_type_description
_atom_site_fract_x
_atom_site_fract_y
_atom_site_fract_z
_atom_type_partial_charge
C1    C     C_R   0.260015 0.500365 0.503530 0.758313
C2    C     C_3   0.638221 0.445992 0.949615 -0.045077
C3    C     C_3   0.636463 0.468209 0.048484 -0.420139
C4    C     C_1   0.503327 0.500849 0.824330 0.104376
C5    C     C_1   0.502509 0.500163 0.175437 -0.028938
C6    C     C_1   0.501545 0.500009 0.250939 -0.116710
C7    C     C_3   0.069996 0.646419 0.535004 -0.377633
C8    C     C_3   0.069945 0.386430 0.566420 -0.373020
C9    C     C_3   0.926878 0.645900 0.534936 -0.368526
C10   C     C_3   0.926055 0.386412 0.566284 -0.378776
C11   C     C_3   0.076337 0.471635 0.415542 -0.387679
C12   C     C_3   0.122105 0.501193 0.505362 0.154632
C13   C     C_3   0.878228 0.500576 0.504768 0.148485
C14   C     C_R   0.500377 0.499995 0.340479 0.838794
C15   C     C_3   0.932996 0.469938 0.415434 -0.366358
C16   C     C_3   0.612821 0.083371 0.456119 -0.094583
C17   C     C_3   0.615434 0.915806 0.459159 -0.091210
C18   C     C_3   0.502090 0.083522 0.588803 -0.219514
C19   C     C_3   0.497882 0.916441 0.588872 -0.212157
C20   C     C_3   0.386354 0.083667 0.463671 -0.184020
C21   C     C_3   0.389148 0.917650 0.460263 -0.189881
C22   C     C_R   0.739911 0.499990 0.502403 0.787718
C23   C     C_R   0.499999 0.500002 0.659543 0.818196
C24   C     C_3   0.461246 0.647284 0.051201 -0.383378
C25   C     C_3   0.412981 0.386502 0.051456 -0.387714
C26   C     C_3   0.394437 0.400330 0.953799 0.051980
C27   C     C_3   0.479360 0.659884 0.952721 0.063429
C28   C     C_1   0.501625 0.500137 0.748887 -0.027844
C29   C     C_3   0.503277 0.500547 0.083185 0.132932
C30   C     C_3   0.504599 0.501594 0.916947 0.009998
Cu1   Cu    Cu3+1 0.499860 0.642410 0.500040 0.935388
Cu2   Cu    Cu3+1 0.499860 0.357590 0.500040 0.931516
H1    H     H_    0.894955 0.731724 0.492931 0.216694
H2    H     H_    0.893270 0.280191 0.547190 0.180054
H3    H     H_    0.111635 0.554160 0.371256 0.170086
H4    H     H_    0.113269 0.368359 0.392522 0.170856
H5    H     H_    0.898833 0.548754 0.369571 0.189505
H6    H     H_    0.902756 0.364815 0.394193 0.220296
H7    H     H_    0.696527 0.117865 0.490681 0.107140
H8    H     H_    0.695984 0.887935 0.499071 0.099129
H9    H     H_    0.587094 0.119191 0.621346 0.166153
H10   H     H_    0.578231 0.875290 0.624569 0.161245
H11   H     H_    0.302480 0.116467 0.501456 0.133760
H12   H     H_    0.302691 0.878521 0.492093 0.137208
H13   H     H_    0.371045 0.128267 0.400299 0.194894
H14   H     H_    0.383788 0.881111 0.394181 0.198984
H15   H     H_    0.421284 0.124534 0.626773 0.167371
H16   H     H_    0.412444 0.880894 0.623789 0.177492
H17   H     H_    0.362402 0.661244 0.071926 0.231013
H18   H     H_    0.323391 0.390927 0.087999 0.202034
H19   H     H_    0.452996 0.281816 0.067706 0.211029
H20   H     H_    0.512982 0.731709 0.084207 0.200044
H21   H     H_    0.695744 0.558283 0.067034 0.201180
H22   H     H_    0.676276 0.377265 0.082774 0.225427
H23   H     H_    0.104383 0.731694 0.492342 0.172912
H24   H     H_    0.104767 0.280319 0.547074 0.170318
H25   H     H_    0.102388 0.670577 0.599509 0.170082
H26   H     H_    0.102345 0.406360 0.631425 0.172801
H27   H     H_    0.889502 0.669237 0.599510 0.158836
H28   H     H_    0.888474 0.406971 0.631133 0.179794
N1    N     N_3   0.500250 0.143650 0.501830 -0.167748
N2    N     N_3   0.500250 0.856350 0.501830 -0.168664
O1    O     O_R   0.317570 0.620260 0.500050 -0.600463
O2    O     O_R   0.317570 0.379740 0.500050 -0.602485
O3    O     O_R   0.499890 0.620310 0.379470 -0.558700
O4    O     O_R   0.499890 0.379690 0.379470 -0.563659
O5    O     O_R   0.682190 0.620260 0.500020 -0.587567
O6    O     O_R   0.682190 0.379740 0.500020 -0.589114
O7    O     O_R   0.499870 0.620210 0.620600 -0.583735
O8    O     O_R   0.499870 0.379790 0.620600 -0.590227
C31   C     C_2   0.366658 0.733990 0.913331 0.879431
O9    O     O_2   0.363984 0.751093 0.836955 -0.605734
O10   O     O_R   0.270163 0.790708 0.963880 -0.745016
H29   H     H_    0.203350 0.838467 0.929803 0.345678
C32   C     C_2   0.264939 0.460139 0.934252 0.880196
O11   O     O_2   0.191817 0.497031 0.990472 -0.562433
O12   O     O_R   0.228536 0.469427 0.850297 -0.767871
H30   H     H_    0.141481 0.509753 0.844666 0.346503
C33   C     C_2   0.633535 0.142217 0.367553 0.920149
O13   O     O_2   0.554429 0.130042 0.313862 -0.570795
O14   O     O_R   0.747234 0.204887 0.346084 -0.807019
H31   H     H_    0.751124 0.239253 0.285579 0.330046
C34   C     C_2   0.649093 0.848718 0.374230 0.909543
O15   O     O_2   0.577864 0.854987 0.315341 -0.571115
O16   O     O_R   0.766156 0.786108 0.361939 -0.806268
H32   H     H_    0.779084 0.747542 0.302779 0.325479
C35   C     C_3   0.390455 0.248969 0.915027 -0.787408
H33   H     H_    0.402886 0.250816 0.845433 0.251730
H34   H     H_    0.458414 0.174453 0.941482 0.243667
H35   H     H_    0.298922 0.198397 0.929325 0.229940
C36   C     C_3   0.587924 0.764360 0.933862 -0.824410
H36   H     H_    0.558076 0.874777 0.947297 0.225452
H37   H     H_    0.668589 0.747116 0.974714 0.245674
H38   H     H_    0.618372 0.759609 0.866550 0.255157
C37   C     C_2   0.752088 0.519952 0.908682 0.822691
O17   O     O_2   0.839347 0.557799 0.951438 -0.578650
O18   O     O_R   0.761823 0.534840 0.821030 -0.770477
H39   H     H_    0.842185 0.582019 0.801710 0.326847
C38   C     C_2   0.663023 0.291375 0.926619 0.828363
O19   O     O_2   0.665652 0.255441 0.852467 -0.590469
O20   O     O_R   0.686080 0.190057 0.988554 -0.775277
H40   H     H_    0.702353 0.092812 0.964087 0.339820

loop_
_geom_bond_atom_site_label_1
_geom_bond_atom_site_label_2
_ccdc_geom_bond_type
C24   H20   S    
C35   H33   S    
O20   H40   S    
O10   H29   S    
C23   O7    A    
C37   O17   D    
Cu1   N2    S    
C24   C27   S    
C7    H23   S    
C18   H15   S    
C8    H24   S    
O18   H39   S    
O16   H32   S    
Cu1   O5    S    
C34   O15   D    
C2    C37   S    
Cu2   N1    S    
C5    C6    T    
C3    H22   S    
C6    C14   S    
C19   N2    S    
Cu1   O3    S    
C18   C19   S    
C20   N1    S    
C3    C29   S    
C9    C13   S    
C25   H18   S    
C15   H5    S    
C8    H26   S    
C24   C29   S    
C11   C15   S    
Cu1   Cu2   S    
C16   C17   S    
C27   C36   S    
C20   H13   S    
C19   H10   S    
Cu2   O6    S    
C27   C30   S    
C9    H1    S    
C23   O8    A    
C1    C12   S    
C1    O1    A    
C4    C28   T    
O14   H31   S    
C5    C29   S    
C25   C29   S    
C7    C12   S    
Cu1   O1    S    
Cu2   O2    S    
C18   H9    S    
C36   H36   S    
C33   O14   S    
C19   H16   S    
C26   C35   S    
Cu2   O8    S    
C25   C26   S    
O12   H30   S    
C9    H27   S    
C17   H8    S    
C10   H28   S    
C32   O11   D    
C25   H19   S    
C15   H6    S    
C17   N2    S    
C36   H37   S    
C21   H12   S    
C38   O19   D    
C8    C12   S    
C26   C32   S    
C14   O4    A    
C10   H2    S    
C23   C28   S    
C32   O12   S    
C22   O6    A    
C21   N2    S    
C34   O16   S    
C2    C38   S    
C26   C30   S    
C35   H34   S    
C16   N1    S    
C1    O2    A    
C20   H11   S    
C27   C31   S    
Cu2   O4    S    
C21   H14   S    
C24   H17   S    
C7    C9    S    
C11   H4    S    
C38   O20   S    
C10   C13   S    
C11   C12   S    
C37   O18   S    
C18   N1    S    
C2    C30   S    
C16   C33   S    
C13   C15   S    
C2    C3    S    
C31   O9    D    
C36   H38   S    
C3    H21   S    
C11   H3    S    
C14   O3    A    
C13   C22   S    
C22   O5    A    
C16   H7    S    
C33   O13   D    
Cu1   O7    S    
C20   C21   S    
C8    C10   S    
C35   H35   S    
C31   O10   S    
C17   C34   S    
C7    H25   S    
C4    C30   S    
