data_mof_unit_58623.cif
_audit_creation_date              2012-12-10T16:48:47-0500
_audit_creation_method            fapswitch 2.2
_symmetry_space_group_name_H-M    P1
_symmetry_Int_Tables_number       1
_space_group_crystal_system       triclinic
_cell_length_a                    17.213294
_cell_length_b                    8.663215
_cell_length_c                    7.482997
_cell_angle_alpha                 103.248129
_cell_angle_beta                  91.202376
_cell_angle_gamma                 93.646083
_cell_volume                      1083.26072224

loop_
_atom_site_label
_atom_site_type_symbol
_atom_type_description
_atom_site_fract_x
_atom_site_fract_y
_atom_site_fract_z
_atom_type_partial_charge
C1    C     C_R   0.497596 0.199665 0.453324 0.883653
C2    C     C_R   0.502405 0.800335 0.546676 0.883584
C3    C     C_2   0.496442 0.031384 0.427364 -0.302112
C4    C     C_2   0.503560 0.968616 0.572635 -0.302005
C5    C     C_R   0.351339 0.498897 0.523891 0.878032
C6    C     C_R   0.648658 0.501105 0.476112 0.878041
C7    C     C_R   0.267302 0.500696 0.534101 -0.122386
C8    C     C_R   0.732689 0.499275 0.465919 -0.122326
C9    C     C_R   0.220611 0.379356 0.415475 0.086346
C10   C     C_R   0.779379 0.620770 0.584313 0.086185
C11   C     C_R   0.142004 0.396583 0.393588 -0.140737
C12   C     C_R   0.857978 0.603538 0.606363 -0.140711
C13   C     C_R   0.108773 0.531378 0.491913 -0.011352
C14   C     C_R   0.891210 0.468607 0.508365 -0.011411
C15   C     C_R   0.153406 0.649899 0.620247 0.107768
C16   C     C_R   0.846572 0.349905 0.380268 0.107887
C17   C     C_R   0.234372 0.634843 0.640562 0.345477
C18   C     C_R   0.765603 0.364893 0.359937 0.345502
C19   C     C_2   0.025851 0.541875 0.460838 0.131113
C20   C     C_2   0.974132 0.458150 0.539482 0.131148
Cu1   Cu    Cu3+1 0.508700 0.517250 0.683000 1.099166
Cu2   Cu    Cu3+1 0.491300 0.482750 0.317000 1.099148
H1    H     H_    0.893651 0.695993 0.700500 0.209667
H2    H     H_    0.106332 0.304247 0.299287 0.209669
H3    H     H_    0.489728 0.958943 0.287806 0.199787
H4    H     H_    0.510274 0.041057 0.712193 0.199809
N1    N     N_2   0.478180 0.456750 0.041980 0.143654
N2    N     N_2   0.521820 0.543250 0.958020 0.143656
O1    O     O_R   0.505650 0.286040 0.618880 -0.549263
O2    O     O_R   0.494350 0.713960 0.381120 -0.549282
O3    O     O_R   0.490960 0.256910 0.309800 -0.593305
O4    O     O_R   0.509040 0.743090 0.690200 -0.593304
O5    O     O_R   0.394600 0.516230 0.672450 -0.508162
O6    O     O_R   0.605400 0.483770 0.327550 -0.508234
O7    O     O_R   0.379910 0.487100 0.363380 -0.600330
O8    O     O_R   0.620090 0.512900 0.636620 -0.600345
I1    I     I_    0.264598 0.165340 0.265883 -0.284458
I2    I     I_    0.735374 0.834954 0.733396 -0.284293
O9    O     O_3   0.716306 0.250047 0.245581 -0.702239
H5    H     H_    0.745382 0.158489 0.186998 0.365707
O10   O     O_3   0.283658 0.749440 0.755297 -0.702223
H6    H     H_    0.254437 0.840169 0.815683 0.365881
I3    I     I_    0.006657 0.322807 0.730464 -0.194994
I4    I     I_    0.993337 0.677163 0.269791 -0.195096
I5    I     I_    0.096618 0.846092 0.779591 -0.199947
I6    I     I_    0.903370 0.153742 0.220904 -0.199804
O11   O     O_3   0.426840 0.351350 0.934717 -0.591594
H7    H     H_    0.399720 0.295586 0.019571 0.350373
O12   O     O_3   0.573165 0.648643 0.065279 -0.591660
H8    H     H_    0.600292 0.704392 0.980419 0.350318

loop_
_geom_bond_atom_site_label_1
_geom_bond_atom_site_label_2
_ccdc_geom_bond_type
C2    C4    S    
C18   O9    S    
C15   C17   A    
C14   C20   S    
C11   C13   A    
O10   H6    S    
C4    H4    S    
C19   C20   D    
C2    O2    A    
C10   I2    S    
C1    O1    A    
Cu1   O8    S    
Cu1   Cu2   S    
Cu2   O7    S    
C9    C11   A    
C12   H1    S    
C5    O5    A    
C10   C12   A    
C5    O7    A    
C2    O4    A    
Cu1   N2    S    
C12   C14   A    
O12   H8    S    
C17   O10   S    
Cu2   N1    S    
C13   C15   A    
C1    O3    A    
Cu2   O6    S    
Cu1   O4    S    
C14   C16   A    
Cu1   O5    S    
Cu2   O3    S    
C15   I5    S    
C16   I6    S    
C3    C4    D    
O11   H7    S    
C7    C9    A    
C11   H2    S    
C3    H3    S    
C20   I3    S    
C19   I4    S    
C8    C10   A    
C9    I1    S    
N2    O12   S    
N1    O11   S    
O9    H5    S    
C5    C7    S    
C13   C19   S    
C6    C8    S    
Cu2   O2    S    
C1    C3    S    
Cu1   O1    S    
C16   C18   A    
C8    C18   A    
C6    O6    A    
C6    O8    A    
N1    N2    D    
C7    C17   A    
