data_mof_unit_47761.cif
_audit_creation_date              2012-12-10T19:44:32-0500
_audit_creation_method            fapswitch 2.2
_symmetry_space_group_name_H-M    P1
_symmetry_Int_Tables_number       1
_space_group_crystal_system       triclinic
_cell_length_a                    8.578199
_cell_length_b                    14.912624
_cell_length_c                    14.214692
_cell_angle_alpha                 89.924857
_cell_angle_beta                  98.616619
_cell_angle_gamma                 90.369075
_cell_volume                      1797.83086147

loop_
_atom_site_label
_atom_site_type_symbol
_atom_type_description
_atom_site_fract_x
_atom_site_fract_y
_atom_site_fract_z
_atom_type_partial_charge
C1    C     C_R   0.497256 0.327635 0.499771 0.882001
C2    C     C_R   0.497634 0.672397 0.499696 0.890161
C3    C     C_R   0.380222 0.456465 0.094703 -0.389040
C4    C     C_R   0.582122 0.565870 0.901811 -0.385702
C5    C     C_R   0.385742 0.453707 0.194632 0.578915
C6    C     C_R   0.586933 0.562555 0.802924 0.581349
C7    C     C_R   0.613651 0.546653 0.214915 0.578973
C8    C     C_R   0.412292 0.437487 0.786918 0.596605
C9    C     C_R   0.618860 0.543925 0.116014 -0.379939
C10   C     C_R   0.417255 0.434395 0.887124 -0.399649
C11   C     C_R   0.499547 0.500174 0.053343 0.080480
C12   C     C_R   0.499554 0.500209 0.946420 0.081276
C13   C     C_R   0.201131 0.499930 0.475118 0.953596
C14   C     C_R   0.798867 0.500475 0.524874 0.960458
C15   C     C_2   0.036001 0.499350 0.461708 -0.345775
C16   C     C_2   0.963984 0.501912 0.538213 -0.413225
C17   C     C_R   0.368230 0.098020 0.558757 0.525573
C18   C     C_R   0.377729 0.901150 0.413850 0.536795
C19   C     C_R   0.394621 0.190230 0.563271 -0.293294
C20   C     C_R   0.403258 0.809376 0.414962 -0.308630
C21   C     C_R   0.478103 0.231813 0.497725 -0.093405
C22   C     C_R   0.478997 0.768185 0.497815 -0.108302
C23   C     C_R   0.536043 0.182188 0.427445 -0.244422
C24   C     C_R   0.529505 0.818222 0.579858 -0.205126
C25   C     C_R   0.516292 0.090307 0.425063 -0.188909
C26   C     C_R   0.509144 0.909988 0.578168 -0.186872
C27   C     C_R   0.435175 0.048239 0.491413 0.032179
C28   C     C_R   0.435355 0.951529 0.495140 0.030952
H1    H     H_    0.974224 0.496229 0.389133 0.221494
H2    H     H_    0.025803 0.505406 0.610713 0.179078
H3    H     H_    0.349366 0.229191 0.617259 0.210323
H4    H     H_    0.361682 0.770491 0.351704 0.170536
H5    H     H_    0.600268 0.214148 0.376335 0.158535
H6    H     H_    0.587879 0.786712 0.644249 0.202053
H7    H     H_    0.568606 0.051596 0.373513 0.169857
H8    H     H_    0.555265 0.949024 0.640532 0.176372
H9    H     H_    0.281316 0.425165 0.050604 0.163678
H10   H     H_    0.642086 0.620478 0.942359 0.165040
H11   H     H_    0.717500 0.575413 0.089610 0.165958
H12   H     H_    0.358888 0.379785 0.917897 0.163331
N1    N     N_R   0.500000 0.499980 0.252470 -0.173936
N2    N     N_R   0.500000 0.500020 0.747530 -0.172584
O1    O     O_R   0.500010 0.369070 0.579480 -0.580818
O2    O     O_R   0.499990 0.630930 0.420520 -0.618566
O3    O     O_R   0.500010 0.369060 0.420520 -0.617042
O4    O     O_R   0.499990 0.630940 0.579480 -0.577196
O5    O     O_R   0.271750 0.500000 0.560890 -0.598441
O6    O     O_R   0.728250 0.500000 0.439110 -0.569621
O7    O     O_R   0.271750 0.499990 0.401930 -0.575949
O8    O     O_R   0.728250 0.500010 0.598070 -0.620060
Zn1   Zn    Zn3+2 0.500000 0.500010 0.606140 1.011300
Zn2   Zn    Zn3+2 0.500000 0.499990 0.393860 1.009943
O9    O     O_3   0.289375 0.054791 0.624214 -0.610499
C29   C     C_3   0.130209 0.081802 0.610564 -0.319399
H13   H     H_    0.075034 0.076206 0.534655 0.145530
H14   H     H_    0.118354 0.151144 0.637049 0.163214
H15   H     H_    0.063546 0.036702 0.652486 0.198617
O10   O     O_3   0.305962 0.942203 0.331551 -0.618218
C30   C     C_3   0.141507 0.938863 0.330710 -0.328557
H16   H     H_    0.107080 0.974453 0.393211 0.159452
H17   H     H_    0.097231 0.868411 0.328108 0.160352
H18   H     H_    0.083366 0.973376 0.265749 0.194209
O11   O     O_3   0.269606 0.409710 0.234789 -0.576009
C31   C     C_3   0.279152 0.316678 0.218836 -0.277701
H19   H     H_    0.205771 0.281267 0.265310 0.191905
H20   H     H_    0.401877 0.291378 0.237464 0.156677
H21   H     H_    0.231354 0.299450 0.143996 0.145261
O12   O     O_3   0.670482 0.626195 0.759920 -0.584615
C32   C     C_3   0.833306 0.614621 0.790553 -0.311081
H22   H     H_    0.899270 0.655960 0.744665 0.189391
H23   H     H_    0.870054 0.543671 0.783609 0.153035
H24   H     H_    0.867355 0.638262 0.864942 0.153296
O13   O     O_3   0.729541 0.591188 0.275584 -0.582227
C33   C     C_3   0.718013 0.684209 0.257946 -0.292433
H25   H     H_    0.793223 0.719768 0.316733 0.184718
H26   H     H_    0.595255 0.708849 0.256312 0.162902
H27   H     H_    0.762554 0.701943 0.190787 0.147403
O14   O     O_3   0.329805 0.374227 0.727246 -0.578847
C34   C     C_3   0.174945 0.362132 0.747710 -0.359480
H28   H     H_    0.100981 0.334426 0.683475 0.187210
H29   H     H_    0.119931 0.426223 0.765536 0.146177
H30   H     H_    0.173547 0.312418 0.805797 0.169409

loop_
_geom_bond_atom_site_label_1
_geom_bond_atom_site_label_2
_ccdc_geom_bond_type
C1    C21   S    
O13   C33   S    
C19   H3    S    
C7    O13   S    
O9    C29   S    
C2    O4    A    
C33   H26   S    
C22   C24   A    
C19   C21   A    
C8    N2    A    
C16   H2    S    
C15   C16   D    
C9    H11   S    
C5    O11   S    
C10   H12   S    
C32   H23   S    
C1    O1    A    
C2    O2    A    
O12   C32   S    
C23   H5    S    
C33   H27   S    
C2    C22   S    
C4    C12   A    
N1    Zn2   S    
N2    Zn1   S    
O2    Zn2   S    
C6    O12   S    
C30   H16   S    
C8    O14   S    
C18   O10   S    
C15   H1    S    
C29   H14   S    
C30   H17   S    
C33   H25   S    
C17   C27   A    
C31   H21   S    
C18   C28   A    
C4    C6    A    
C34   H29   S    
O14   C34   S    
C14   O6    A    
O3    Zn2   S    
O10   C30   S    
O4    Zn1   S    
C24   H6    S    
O11   C31   S    
C31   H20   S    
C32   H24   S    
O7    Zn2   S    
O8    Zn1   S    
C9    C11   A    
C10   C12   A    
C25   H7    S    
C13   O7    A    
C26   H8    S    
C20   C22   A    
C13   C15   S    
C14   C16   S    
C17   O9    S    
C13   O5    A    
C20   H4    S    
C7    C9    A    
C5    N1    A    
C29   H13   S    
C30   H18   S    
C24   C26   A    
C3    C5    A    
C34   H30   S    
O5    Zn1   S    
C11   C12   S    
C25   C27   A    
C26   C28   A    
C31   H19   S    
C21   C23   A    
C1    O3    A    
O1    Zn1   S    
C14   O8    A    
C17   C19   A    
C18   C20   A    
C7    N1    A    
C32   H22   S    
C3    C11   A    
C34   H28   S    
O6    Zn2   S    
C23   C25   A    
C3    H9    S    
C8    C10   A    
C6    N2    A    
C27   C28   S    
C4    H10   S    
C29   H15   S    
