data_mof_unit_50256.cif
_audit_creation_date              2012-10-26T21:20:14-0400
_audit_creation_method            fapswitch 2.2
_symmetry_space_group_name_H-M    P1
_symmetry_Int_Tables_number       1
_space_group_crystal_system       triclinic
_cell_length_a                    12.990608
_cell_length_b                    10.831387
_cell_length_c                    9.521853
_cell_angle_alpha                 90.000694
_cell_angle_beta                  96.97436
_cell_angle_gamma                 90.273964
_cell_volume                      1329.85567211

loop_
_atom_site_label
_atom_site_type_symbol
_atom_type_description
_atom_site_fract_x
_atom_site_fract_y
_atom_site_fract_z
_atom_type_partial_charge
C1    C     C_R   0.499997 0.262085 0.499968 0.567070
C2    C     C_R   0.699666 0.505534 0.527550 0.574918
C3    C     C_R   0.813025 0.514529 0.544619 -0.006615
C4    C     C_R   0.186974 0.485467 0.455381 -0.006609
C5    C     C_R   0.021064 0.413301 0.338276 -0.073676
C6    C     C_R   0.978935 0.586695 0.661725 -0.073725
C7    C     C_R   0.128867 0.419719 0.343019 0.267304
C8    C     C_R   0.871131 0.580287 0.656974 0.267293
C9    C     C_R   0.135899 0.540698 0.560367 -0.156892
C10   C     C_R   0.864101 0.459290 0.439639 -0.156868
C11   C     C_R   0.028851 0.531908 0.555909 -0.015025
C12   C     C_R   0.500002 0.737915 0.500032 0.567119
C13   C     C_R   0.971149 0.468080 0.444098 -0.014987
C14   C     C_R   0.496848 0.063835 0.371910 -0.104250
C15   C     C_R   0.503151 0.936165 0.628090 -0.104272
C16   C     C_R   0.496960 0.936115 0.371940 -0.125645
C17   C     C_R   0.503039 0.063885 0.628060 -0.125684
C18   C     C_R   0.500072 0.871769 0.500025 0.036464
C19   C     C_R   0.499928 0.128230 0.499975 0.036445
C20   C     C_R   0.458377 0.403411 0.067284 0.059549
C21   C     C_R   0.541623 0.596590 0.932716 0.059556
C22   C     C_R   0.457940 0.403686 0.918620 0.028761
C23   C     C_R   0.542060 0.596314 0.081380 0.028802
C24   C     C_R   0.300334 0.494464 0.472449 0.574894
Cu1   Cu    Cu3+1 0.500000 0.500020 0.640660 1.024523
Cu2   Cu    Cu3+1 0.500000 0.499980 0.359340 1.024570
H1    H     H_    0.820150 0.408964 0.353598 0.144266
H2    H     H_    0.575033 0.674202 0.882929 0.164631
H3    H     H_    0.423567 0.326682 0.857330 0.117494
H4    H     H_    0.576432 0.673318 0.142670 0.117515
H5    H     H_    0.863888 0.792000 0.955070 0.371705
H6    H     H_    0.135849 0.208871 0.044096 0.371662
H7    H     H_    0.179850 0.591021 0.646411 0.144278
H8    H     H_    0.975662 0.364123 0.252870 0.180429
H9    H     H_    0.024336 0.635878 0.747127 0.180474
H10   H     H_    0.494246 0.111848 0.271752 0.136605
H11   H     H_    0.505753 0.888152 0.728248 0.136594
H12   H     H_    0.494470 0.888061 0.271802 0.127962
H13   H     H_    0.505530 0.111939 0.728198 0.127949
H14   H     H_    0.424967 0.325798 0.117070 0.164643
N1    N     N_R   0.500030 0.500030 0.852080 -0.231024
N2    N     N_R   0.499970 0.499970 0.147920 -0.231017
O1    O     O_R   0.499990 0.319660 0.618740 -0.526042
O2    O     O_2   0.774712 0.569475 0.888779 -0.288231
O3    O     O_3   0.901279 0.754564 0.881088 -0.522355
O4    O     O_2   0.225285 0.430620 0.111230 -0.288571
O5    O     O_2   0.274728 0.262125 0.278492 -0.308070
O6    O     O_3   0.098712 0.245516 0.118824 -0.522341
O7    O     O_R   0.500010 0.680340 0.381260 -0.526029
O8    O     O_R   0.499990 0.319630 0.381170 -0.503005
O9    O     O_R   0.500010 0.680370 0.618830 -0.502979
O10   O     O_R   0.349000 0.499990 0.599490 -0.519391
O11   O     O_R   0.651000 0.500010 0.400510 -0.519370
O12   O     O_R   0.348990 0.499960 0.361920 -0.424832
O13   O     O_R   0.651010 0.500040 0.638080 -0.424869
O14   O     O_2   0.725264 0.737895 0.721417 -0.308465
S1    S     S_3+6 0.813811 0.661151 0.789048 0.003662
S2    S     S_3+6 0.186184 0.338897 0.210909 0.003701

loop_
_geom_bond_atom_site_label_1
_geom_bond_atom_site_label_2
_ccdc_geom_bond_type
C10   H1    S    
C24   O10   A    
C15   C18   A    
C20   N2    A    
Cu1   O9    S    
O6    S2    S    
C23   H4    S    
C22   H3    S    
C8    S1    S    
C9    C11   A    
C1    O8    A    
C7    S2    S    
C5    C13   A    
O2    S1    D    
C5    H8    S    
Cu1   O1    S    
Cu2   O8    S    
C2    C3    S    
Cu1   Cu2   S    
Cu1   O10   S    
C3    C10   A    
C10   C13   A    
C6    H9    S    
O5    S2    D    
C9    H7    S    
C11   C13   A    
O3    S1    S    
H6    O6    S    
C23   N2    A    
C4    C7    A    
C20   H14   S    
Cu2   O12   S    
H5    O3    S    
C17   C19   A    
C21   H2    S    
C20   C22   A    
C12   O7    A    
C2    O13   A    
C21   C23   A    
C14   H10   S    
C4    C24   S    
C14   C16   A    
C1    C19   S    
C22   N1    A    
C24   O12   A    
Cu2   O11   S    
C12   O9    A    
O14   S1    D    
Cu2   N2    S    
C16   C18   A    
C3    C8    A    
C21   N1    A    
Cu2   O7    S    
Cu1   N1    S    
C6    C11   A    
C5    C7    A    
C17   H13   S    
C15   H11   S    
C6    C8    A    
C4    C9    A    
C15   C17   A    
C14   C19   A    
C1    O1    A    
O4    S2    D    
Cu1   O13   S    
C16   H12   S    
C2    O11   A    
C12   C18   S    
