data_mof_unit_12065.cif
_audit_creation_date              2012-12-11T14:08:18-0500
_audit_creation_method            fapswitch 2.2
_symmetry_space_group_name_H-M    P1
_symmetry_Int_Tables_number       1
_space_group_crystal_system       triclinic
_cell_length_a                    11.288362
_cell_length_b                    11.299093
_cell_length_c                    18.843247
_cell_angle_alpha                 88.38211
_cell_angle_beta                  87.403601
_cell_angle_gamma                 59.385796
_cell_volume                      2066.26332382

loop_
_atom_site_label
_atom_site_type_symbol
_atom_type_description
_atom_site_fract_x
_atom_site_fract_y
_atom_site_fract_z
_atom_type_partial_charge
C1    C     C_R   0.237753 0.643908 0.608960 0.628948
C2    C     C_3   0.678676 0.562714 0.803894 -0.120174
C3    C     C_3   0.706126 0.684699 0.808384 -0.136431
C4    C     C_3   0.664375 0.657601 0.673563 -0.086058
C5    C     C_3   0.809497 0.640591 0.677097 0.096733
C6    C     C_3   0.665524 0.541416 0.724728 -0.305863
C7    C     C_2   0.631196 0.238717 0.684284 -0.129121
C8    C     C_2   0.683177 0.198318 0.838716 -0.061286
C9    C     C_2   0.785434 0.171826 0.789088 0.179195
C10   C     C_2   0.758605 0.190397 0.710812 0.024042
C11   C     C_2   0.194949 0.652555 0.684858 0.069264
C12   C     C_R   0.648273 0.619043 0.602253 0.639628
C13   C     C_2   0.212113 0.663654 0.844609 -0.049025
C14   C     C_2   0.248281 0.551341 0.807291 -0.048169
C15   C     C_2   0.274195 0.547451 0.729237 -0.046397
C16   C     C_2   0.675861 0.688624 0.335721 -0.064519
C17   C     C_2   0.674931 0.686617 0.174906 0.104559
C18   C     C_2   0.784845 0.638291 0.217256 -0.140943
C19   C     C_2   0.784063 0.611232 0.293203 -0.119051
C20   C     C_2   0.600673 0.284624 0.310463 0.192524
C21   C     C_2   0.643099 0.148513 0.173599 -0.000700
C22   C     C_2   0.534606 0.267561 0.192245 -0.029523
C23   C     C_R   0.598412 0.278344 0.609396 0.504258
C24   C     C_2   0.503929 0.286647 0.267823 0.175510
C25   C     C_2   0.170201 0.672723 0.332809 -0.061570
C26   C     C_2   0.161030 0.656616 0.178012 -0.099505
C27   C     C_2   0.199511 0.734245 0.210632 -0.104556
C28   C     C_2   0.220926 0.726996 0.285396 -0.108775
C29   C     C_R   0.701360 0.109812 0.901491 0.521659
C30   C     C_R   0.730747 0.694063 0.885848 0.644685
C31   C     C_R   0.126083 0.703695 0.910901 0.572369
C32   C     C_R   0.673873 0.104526 0.102635 0.531033
C33   C     C_R   0.702289 0.695452 0.099800 0.544339
C34   C     C_R   0.224409 0.649870 0.402546 0.556814
C35   C     C_R   0.092677 0.708081 0.111779 0.524985
C36   C     C_R   0.646958 0.627805 0.397838 0.596736
C37   C     C_R   0.582638 0.293782 0.388429 0.557785
C38   C     C_3   0.567627 0.818846 0.778906 0.017210
C39   C     C_3   0.547351 0.809013 0.698069 0.373073
C40   C     C_3   0.841276 0.650771 0.757373 0.148552
Cr1   Cr    Cr6+3 0.393010 0.398050 0.501480 1.181467
Cr2   Cr    Cr6+3 0.398820 0.707980 0.501630 1.163132
Cr3   Cr    Cr6+3 0.708140 0.393940 0.496850 1.132078
Cr4   Cr    Cr6+3 0.937950 0.938450 0.008940 1.135050
Cr5   Cr    Cr6+3 0.626180 0.937030 0.994750 1.167970
Cr6   Cr    Cr6+3 0.937790 0.625760 0.001410 1.133174
H1    H     H_    0.752780 0.440078 0.708892 0.166892
H2    H     H_    0.869411 0.530274 0.666560 0.188589
H3    H     H_    0.576717 0.261149 0.825329 0.162995
H4    H     H_    0.543604 0.260724 0.718091 0.151733
H5    H     H_    0.260124 0.460175 0.833934 0.216116
H6    H     H_    0.349224 0.449812 0.706443 0.142737
H7    H     H_    0.232028 0.739258 0.820026 0.224229
H8    H     H_    0.493569 0.800998 0.808772 0.217616
H9    H     H_    0.123703 0.752684 0.706727 0.213568
H10   H     H_    0.886933 0.603966 0.193799 0.144474
H11   H     H_    0.871281 0.517078 0.312533 0.206685
H12   H     H_    0.595656 0.789731 0.318757 0.158181
H13   H     H_    0.464326 0.339901 0.153765 0.147378
H14   H     H_    0.702140 0.071159 0.213230 0.152341
H15   H     H_    0.206947 0.815500 0.182609 0.175677
H16   H     H_    0.279982 0.772326 0.301899 0.190605
H17   H     H_    0.161663 0.569080 0.203717 0.139547
H18   H     H_    0.109531 0.628073 0.318165 0.127287
H19   H     H_    0.765281 0.468855 0.826035 0.228853
H20   H     H_    0.585180 0.516023 0.716924 0.186585
O1    O     O_R   0.507110 0.256280 0.580300 -0.437209
O2    O     O_R   0.524640 0.695370 0.425100 -0.485118
O3    O     O_R   0.735890 0.504390 0.415980 -0.460898
O4    O     O_R   0.690560 0.277820 0.422350 -0.439646
O5    O     O_3   0.499990 0.499990 0.499980 -0.382240
O6    O     O_R   0.089190 0.825870 0.932320 -0.442143
O7    O     O_R   0.819070 0.053960 0.931440 -0.445891
O8    O     O_R   0.607070 0.076440 0.916460 -0.444539
O9    O     O_R   0.647110 0.806550 0.917690 -0.432579
O10   O     O_R   0.837080 0.593860 0.915300 -0.418804
O11   O     O_R   0.064770 0.636080 0.932550 -0.429261
O12   O     O_R   0.280830 0.527190 0.577940 -0.480600
O13   O     O_R   0.068250 0.829200 0.092940 -0.511435
O14   O     O_R   0.799650 0.057040 0.080330 -0.485974
O15   O     O_R   0.586130 0.079760 0.077080 -0.489163
O16   O     O_R   0.627700 0.809630 0.066580 -0.462255
O17   O     O_R   0.816140 0.597180 0.075920 -0.509333
O18   O     O_R   0.045360 0.639170 0.081440 -0.521343
O19   O     O_3   0.833980 0.833750 0.001700 -0.325329
O20   O     O_R   0.261360 0.738990 0.584270 -0.429760
O21   O     O_R   0.532590 0.694780 0.574370 -0.396517
O22   O     O_R   0.744470 0.503750 0.577000 -0.487578
O23   O     O_R   0.698520 0.277230 0.571620 -0.483590
O24   O     O_R   0.498530 0.256920 0.419280 -0.422384
O25   O     O_R   0.272880 0.527780 0.428680 -0.465526
O26   O     O_R   0.252780 0.739630 0.423250 -0.511626
S1    S     S_3+6 0.477841 0.997188 0.808184 0.101161
O27   O     O_2   0.345895 0.083876 0.771427 -0.156913
O28   O     O_2   0.435683 0.013659 0.885637 -0.201443
O29   O     O_3   0.572818 0.064630 0.784175 -0.518280
H21   H     H_    0.667492 0.988377 0.787446 0.348237
S2    S     S_3+6 0.995592 0.484002 0.775249 0.011618
O30   O     O_2   0.105582 0.458336 0.720408 -0.285243
O31   O     O_2   0.053178 0.463011 0.847368 -0.205437
O32   O     O_3   0.961848 0.360763 0.762547 -0.542494
H22   H     H_    0.994321 0.331757 0.712987 0.407089
S3    S     S_3+6 0.960378 0.092592 0.813468 0.085109
O33   O     O_2   0.973562 0.140479 0.884882 -0.230280
O34   O     O_2   0.016631 0.942277 0.813709 -0.275434
O35   O     O_3   0.061857 0.114372 0.754902 -0.454390
H23   H     H_    0.121746 0.129907 0.785070 0.448040
C41   C     C_2   0.880962 0.133011 0.660908 0.696630
O36   O     O_2   0.940875 0.011340 0.645486 -0.429598
O37   O     O_R   0.924633 0.219118 0.630217 -0.674961
H24   H     H_    0.002470 0.170840 0.593518 0.342306
C42   C     C_2   0.532465 0.735981 0.200295 0.552239
O38   O     O_2   0.504109 0.657621 0.232252 -0.520959
O39   O     O_R   0.431662 0.873077 0.188340 -0.661715
H25   H     H_    0.341018 0.900485 0.214311 0.324580
S4    S     S_3+6 0.370743 0.251825 0.294187 0.012894
O40   O     O_2   0.433257 0.114379 0.331120 -0.246113
O41   O     O_2   0.263687 0.360026 0.342440 -0.276240
O42   O     O_3   0.292960 0.245109 0.221529 -0.520388
H26   H     H_    0.227207 0.216660 0.239355 0.379895
S5    S     S_3+6 0.755296 0.276578 0.271717 0.002629
O43   O     O_2   0.722127 0.363059 0.205306 -0.285080
O44   O     O_2   0.821973 0.323972 0.321327 -0.243226
O45   O     O_3   0.874222 0.112821 0.251673 -0.546790
H27   H     H_    0.944842 0.118835 0.221190 0.373725
S6    S     S_3+6 0.375005 0.836832 0.694350 0.069336
O46   O     O_2   0.394391 0.698722 0.689211 -0.401984
O47   O     O_2   0.287994 0.896318 0.760388 -0.265109
O48   O     O_3   0.291475 0.935860 0.624393 -0.415650
H28   H     H_    0.192743 0.976551 0.637590 0.389958
S7    S     S_3+6 0.549021 0.942142 0.638167 0.154569
O49   O     O_2   0.557772 0.904493 0.561605 -0.214808
O50   O     O_2   0.419788 0.079689 0.646219 -0.138305
O51   O     O_3   0.680166 0.965800 0.651576 -0.464151
H29   H     H_    0.699499 0.996756 0.605107 0.402166
C43   C     C_2   0.877235 0.758390 0.771753 0.569932
O52   O     O_2   0.884669 0.831927 0.726180 -0.427231
O53   O     O_R   0.892414 0.780929 0.841168 -0.679725
H30   H     H_    0.864540 0.878323 0.849735 0.342754
S8    S     S_3+6 0.895791 0.668083 0.596881 0.071866
O54   O     O_2   0.930494 0.778934 0.601084 -0.212827
O55   O     O_2   0.028419 0.535440 0.582441 -0.253437
O56   O     O_3   0.803310 0.702084 0.523795 -0.483635
H31   H     H_    0.867226 0.691649 0.483396 0.357559
C44   C     C_2   0.559586 0.572452 0.850654 0.548239
O57   O     O_2   0.518622 0.493733 0.840430 -0.582181
O58   O     O_R   0.502717 0.662982 0.908081 -0.669394
H32   H     H_    0.427527 0.655065 0.935348 0.344427

loop_
_geom_bond_atom_site_label_1
_geom_bond_atom_site_label_2
_ccdc_geom_bond_type
C7    C10   D    
S6    O46   D    
C30   O9    A    
C10   C41   S    
O58   H32   S    
C1    C11   S    
S8    O56   S    
C2    H19   S    
Cr6   O10   S    
C44   O57   D    
Cr1   O1    S    
S4    O40   D    
C2    C44   S    
C32   O15   A    
C40   C43   S    
C26   C27   D    
Cr3   O23   S    
C37   O24   A    
Cr3   O22   S    
S8    O55   D    
C40   S2    S    
C38   C39   S    
Cr5   O16   S    
C29   O7    A    
O35   H23   S    
O56   H31   S    
C41   O36   D    
C18   C19   S    
C23   O1    A    
C34   O25   A    
S5    O45   S    
C27   H15   S    
O37   H24   S    
C11   C15   D    
C20   C24   D    
C3    C38   S    
C41   O37   S    
C8    C9    D    
S6    O47   D    
C23   O23   A    
Cr2   O20   S    
C4    C12   S    
S3    O33   D    
C33   O16   A    
C18   H10   S    
C25   C34   S    
Cr1   O5    S    
Cr6   O19   S    
S7    O51   S    
Cr1   O24   S    
S1    O28   D    
C39   S6    S    
C13   C14   D    
Cr2   O2    S    
C1    O12   A    
C2    C6    S    
C17   C33   S    
C42   O39   S    
C42   O38   D    
C44   O58   S    
C31   O11   A    
C13   H7    S    
C5    H2    S    
C6    H1    S    
C12   O22   A    
O32   H22   S    
Cr4   O14   S    
S8    O54   D    
C21   H14   S    
C4    C6    S    
Cr1   O12   S    
C43   O52   D    
C29   O8    A    
S6    O48   S    
C19   H11   S    
Cr5   O8    S    
C25   C28   D    
C25   H18   S    
C3    C30   S    
Cr5   O19   S    
C26   H17   S    
C35   O18   A    
C32   O14   A    
C30   O10   A    
C14   H5    S    
C38   H8    S    
C4    C39   S    
C9    S3    S    
O29   H21   S    
C17   C18   D    
C20   S5    S    
S3    O34   D    
S1    O27   D    
C16   H12   S    
C15   H6    S    
C33   O17   A    
S5    O43   D    
Cr6   O18   S    
C43   O53   S    
C31   O6    A    
Cr1   O25   S    
C3    C40   S    
C24   S4    S    
Cr3   O4    S    
S2    O31   D    
C22   C24   S    
C8    C29   S    
S7    O49   D    
C17   C42   S    
C22   H13   S    
C11   H9    S    
C36   O3    A    
C5    S8    S    
O48   H28   S    
C9    C10   S    
C1    O20   A    
Cr3   O5    S    
C12   O21   A    
C13   C31   S    
Cr4   O13   S    
Cr5   O15   S    
C7    H4    S    
C4    C5    S    
S7    O50   D    
Cr6   O11   S    
O42   H26   S    
C36   O2    A    
O39   H25   S    
O51   H29   S    
S1    O29   S    
S2    O32   S    
S4    O42   S    
Cr5   O9    S    
C37   O4    A    
C2    C3    S    
C21   C32   S    
C16   C36   S    
C20   C37   S    
C39   S7    S    
C16   C19   D    
C7    C23   S    
C38   S1    S    
C35   O13   A    
Cr2   O5    S    
S4    O41   D    
Cr4   O6    S    
S3    O35   S    
Cr2   O26   S    
Cr4   O7    S    
C34   O26   A    
S5    O44   D    
O53   H30   S    
Cr6   O17   S    
C26   C35   S    
C6    H20   S    
Cr3   O3    S    
S2    O30   D    
C5    C40   S    
C27   C28   S    
C14   C15   S    
Cr2   O21   S    
C21   C22   D    
C8    H3    S    
Cr4   O19   S    
O45   H27   S    
C28   H16   S    
