data_mof_unit_52441.cif
_audit_creation_date              2012-12-11T14:07:21-0500
_audit_creation_method            fapswitch 2.2
_symmetry_space_group_name_H-M    P1
_symmetry_Int_Tables_number       1
_space_group_crystal_system       monoclinic
_cell_length_a                    19.752792
_cell_length_b                    17.135312
_cell_length_c                    15.375369
_cell_angle_alpha                 90.0
_cell_angle_beta                  53.50401
_cell_angle_gamma                 90.0
_cell_volume                      4183.57218396

loop_
_atom_site_label
_atom_site_type_symbol
_atom_type_description
_atom_site_fract_x
_atom_site_fract_y
_atom_site_fract_z
_atom_type_partial_charge
C1    C     C_R   0.374700 0.196705 0.995828 -0.120766
C2    C     C_R   0.374700 0.803295 0.995828 -0.120766
C3    C     C_R   0.874700 0.696705 0.995828 -0.120766
C4    C     C_R   0.874700 0.303295 0.995828 -0.120766
C5    C     C_R   0.664982 0.911664 0.058965 -0.157356
C6    C     C_R   0.664982 0.088336 0.058965 -0.157356
C7    C     C_R   0.164982 0.411664 0.058965 -0.157356
C8    C     C_R   0.164982 0.588336 0.058965 -0.157356
C9    C     C_R   0.705923 0.151535 0.989325 0.160756
C10   C     C_R   0.705923 0.848464 0.989325 0.160756
C11   C     C_R   0.205923 0.651536 0.989325 0.160756
C12   C     C_R   0.205923 0.348464 0.989325 0.160756
C13   C     C_R   0.612035 0.818223 0.694888 0.019437
C14   C     C_R   0.612035 0.181777 0.694888 0.019437
C15   C     C_R   0.112035 0.318223 0.694888 0.019438
C16   C     C_R   0.112035 0.681777 0.694888 0.019437
C17   C     C_3   0.199810 0.134139 0.519287 -0.406038
C18   C     C_3   0.199810 0.865861 0.519287 -0.406039
C19   C     C_3   0.699810 0.634139 0.519287 -0.406037
C20   C     C_3   0.699809 0.365861 0.519287 -0.406038
C21   C     C_3   0.146635 0.181590 0.624323 -0.413376
C22   C     C_3   0.146635 0.818410 0.624323 -0.413375
C23   C     C_3   0.646635 0.681590 0.624323 -0.413376
C24   C     C_3   0.646635 0.318410 0.624323 -0.413376
C25   C     C_3   0.309814 0.242161 0.441057 -0.401990
C26   C     C_3   0.309814 0.757839 0.441057 -0.401990
C27   C     C_3   0.809814 0.742161 0.441057 -0.401990
C28   C     C_3   0.809814 0.257839 0.441057 -0.401990
C29   C     C_3   0.696325 0.741930 0.411653 -0.467004
C30   C     C_3   0.696325 0.258069 0.411653 -0.467004
C31   C     C_3   0.196325 0.241930 0.411653 -0.467003
C32   C     C_3   0.196325 0.758070 0.411653 -0.467004
C33   C     C_3   0.255963 0.190067 0.421494 0.395199
C34   C     C_3   0.255963 0.809933 0.421494 0.395200
C35   C     C_3   0.755963 0.690067 0.421494 0.395199
C36   C     C_3   0.755963 0.309933 0.421494 0.395200
C37   C     C_3   0.659748 0.770187 0.597456 0.373466
C38   C     C_3   0.659747 0.229813 0.597456 0.373466
C39   C     C_3   0.159747 0.270187 0.597456 0.373466
C40   C     C_3   0.159747 0.729813 0.597456 0.373465
C41   C     C_3   0.753345 0.790536 0.542895 -0.441704
C42   C     C_3   0.753345 0.209464 0.542895 -0.441705
C43   C     C_3   0.253345 0.290536 0.542895 -0.441705
C44   C     C_3   0.253346 0.709464 0.542895 -0.441703
C45   C     C_R   0.353912 0.824289 0.218871 -0.143270
C46   C     C_R   0.353912 0.175711 0.218871 -0.143269
C47   C     C_R   0.853912 0.324289 0.218871 -0.143269
C48   C     C_R   0.853912 0.675711 0.218871 -0.143270
C49   C     C_3   0.638374 0.789518 0.516708 -0.102945
C50   C     C_3   0.638374 0.210481 0.516708 -0.102945
C51   C     C_3   0.138374 0.289518 0.516708 -0.102944
C52   C     C_3   0.138374 0.710482 0.516708 -0.102945
C53   C     C_2   0.278330 0.690326 0.969780 -0.209693
C54   C     C_2   0.278330 0.309673 0.969780 -0.209693
C55   C     C_2   0.778330 0.190326 0.969780 -0.209692
C56   C     C_2   0.778330 0.809674 0.969780 -0.209693
C57   C     C_2   0.807791 0.255324 0.910038 -0.210180
C58   C     C_2   0.807791 0.744676 0.910039 -0.210179
C59   C     C_2   0.307791 0.755324 0.910038 -0.210180
C60   C     C_2   0.307791 0.244676 0.910039 -0.210179
C61   C     C_R   0.364671 0.889613 0.897570 -0.152049
C62   C     C_R   0.364671 0.110387 0.897570 -0.152049
C63   C     C_R   0.864671 0.389613 0.897570 -0.152049
C64   C     C_R   0.864671 0.610387 0.897570 -0.152049
C65   C     C_R   0.365539 0.087414 0.316481 -0.138308
C66   C     C_R   0.365539 0.912586 0.316481 -0.138308
C67   C     C_R   0.865539 0.587414 0.316481 -0.138308
C68   C     C_R   0.865539 0.412586 0.316481 -0.138308
C69   C     C_R   0.346281 0.186041 0.934428 0.156414
C70   C     C_R   0.346281 0.813959 0.934428 0.156414
C71   C     C_R   0.846281 0.686041 0.934428 0.156414
C72   C     C_R   0.846281 0.313959 0.934428 0.156414
C73   C     C_R   0.315639 0.853293 0.322239 0.008264
C74   C     C_R   0.315639 0.146707 0.322239 0.008264
C75   C     C_R   0.815639 0.353293 0.322239 0.008264
C76   C     C_R   0.815639 0.646707 0.322239 0.008264
C77   C     C_R   0.657816 0.180105 0.958299 -0.127387
C78   C     C_R   0.657816 0.819895 0.958299 -0.127387
C79   C     C_R   0.157816 0.680105 0.958299 -0.127387
C80   C     C_R   0.157816 0.319895 0.958299 -0.127388
C81   C     C_R   0.602500 0.802270 0.789719 -0.152931
C82   C     C_R   0.602500 0.197730 0.789719 -0.152930
C83   C     C_R   0.102500 0.302270 0.789719 -0.152931
C84   C     C_R   0.102500 0.697730 0.789719 -0.152931
C85   C     C_R   0.594829 0.104069 0.694792 -0.142993
C86   C     C_R   0.594829 0.895931 0.694792 -0.142993
C87   C     C_R   0.094829 0.604069 0.694792 -0.142993
C88   C     C_R   0.094829 0.395931 0.694792 -0.142993
H1    H     H_    0.383943 0.251477 0.022118 0.078374
H2    H     H_    0.383943 0.748523 0.022118 0.078374
H3    H     H_    0.883943 0.751477 0.022118 0.078374
H4    H     H_    0.883943 0.248523 0.022118 0.078374
H5    H     H_    0.157896 0.099773 0.507736 0.155102
H6    H     H_    0.157896 0.900227 0.507736 0.155102
H7    H     H_    0.657896 0.599773 0.507736 0.155101
H8    H     H_    0.657896 0.400227 0.507735 0.155101
H9    H     H_    0.579071 0.665353 0.670548 0.157056
H10   H     H_    0.579071 0.334647 0.670548 0.157056
H11   H     H_    0.079071 0.165353 0.670548 0.157056
H12   H     H_    0.079071 0.834647 0.670549 0.157056
H13   H     H_    0.167270 0.165962 0.675424 0.149495
H14   H     H_    0.167271 0.834038 0.675424 0.149495
H15   H     H_    0.667270 0.665962 0.675424 0.149495
H16   H     H_    0.667270 0.334038 0.675424 0.149495
H17   H     H_    0.351980 0.205615 0.449987 0.156830
H18   H     H_    0.351980 0.794385 0.449987 0.156830
H19   H     H_    0.851980 0.705615 0.449987 0.156830
H20   H     H_    0.851980 0.294385 0.449987 0.156830
H21   H     H_    0.770373 0.779054 0.599036 0.165933
H22   H     H_    0.770373 0.220947 0.599037 0.165933
H23   H     H_    0.270373 0.279054 0.599036 0.165933
H24   H     H_    0.270373 0.720946 0.599036 0.165933
H25   H     H_    0.732846 0.783986 0.343738 0.140116
H26   H     H_    0.732846 0.216014 0.343738 0.140116
H27   H     H_    0.232846 0.283986 0.343738 0.140116
H28   H     H_    0.232845 0.716014 0.343738 0.140116
H29   H     H_    0.659438 0.704999 0.394070 0.156933
H30   H     H_    0.659438 0.295000 0.394070 0.156933
H31   H     H_    0.159438 0.205000 0.394070 0.156933
H32   H     H_    0.159438 0.795001 0.394070 0.156933
H33   H     H_    0.652573 0.852076 0.493130 0.107277
H34   H     H_    0.652574 0.147924 0.493130 0.107277
H35   H     H_    0.152573 0.352076 0.493130 0.107277
H36   H     H_    0.152573 0.647924 0.493130 0.107277
H37   H     H_    0.350635 0.281843 0.370908 0.156342
H38   H     H_    0.350635 0.718157 0.370908 0.156342
H39   H     H_    0.850635 0.781843 0.370908 0.156342
H40   H     H_    0.850635 0.218157 0.370908 0.156342
H41   H     H_    0.337064 0.773355 0.194619 0.090537
H42   H     H_    0.337064 0.226645 0.194619 0.090537
H43   H     H_    0.837065 0.273355 0.194619 0.090537
H44   H     H_    0.837065 0.726645 0.194619 0.090537
H45   H     H_    0.765094 0.853661 0.521427 0.157733
H46   H     H_    0.765094 0.146339 0.521427 0.157733
H47   H     H_    0.265094 0.353661 0.521427 0.157733
H48   H     H_    0.265094 0.646339 0.521426 0.157732
H49   H     H_    0.296662 0.672538 0.020693 0.120759
H50   H     H_    0.296663 0.327462 0.020693 0.120759
H51   H     H_    0.796662 0.172538 0.020693 0.120759
H52   H     H_    0.796663 0.827462 0.020693 0.120759
H53   H     H_    0.791216 0.272080 0.856923 0.123642
H54   H     H_    0.791216 0.727920 0.856923 0.123641
H55   H     H_    0.291216 0.772080 0.856923 0.123642
H56   H     H_    0.291216 0.227920 0.856923 0.123641
H57   H     H_    0.359960 0.915609 0.837226 0.090518
H58   H     H_    0.359960 0.084391 0.837226 0.090519
H59   H     H_    0.859960 0.415609 0.837226 0.090518
H60   H     H_    0.859960 0.584391 0.837226 0.090519
H61   H     H_    0.363052 0.061732 0.382143 0.079319
H62   H     H_    0.363052 0.938268 0.382143 0.079319
H63   H     H_    0.863052 0.561732 0.382143 0.079319
H64   H     H_    0.863052 0.438268 0.382143 0.079319
H65   H     H_    0.667567 0.231086 0.910931 0.087228
H66   H     H_    0.667567 0.768914 0.910931 0.087228
H67   H     H_    0.167567 0.731086 0.910931 0.087228
H68   H     H_    0.167567 0.268914 0.910931 0.087229
H69   H     H_    0.605706 0.746183 0.819124 0.085301
H70   H     H_    0.605707 0.253817 0.819123 0.085301
H71   H     H_    0.105706 0.246183 0.819124 0.085302
H72   H     H_    0.105706 0.753817 0.819123 0.085301
H73   H     H_    0.590892 0.072619 0.637099 0.083365
H74   H     H_    0.590892 0.927381 0.637099 0.083364
H75   H     H_    0.090892 0.572619 0.637099 0.083364
H76   H     H_    0.090892 0.427381 0.637099 0.083364
H77   H     H_    0.681922 0.938270 0.107005 0.086872
H78   H     H_    0.681922 0.061730 0.107005 0.086872
H79   H     H_    0.181922 0.438270 0.107005 0.086872
H80   H     H_    0.181922 0.561730 0.107005 0.086872
H81   H     H_    0.237718 0.091669 0.528195 0.144808
H82   H     H_    0.237718 0.908331 0.528195 0.144808
H83   H     H_    0.737718 0.591669 0.528195 0.144808
H84   H     H_    0.737718 0.408331 0.528195 0.144808
N1    N     N_R   0.408680 0.130160 0.995800 -0.041654
N2    N     N_R   0.408680 0.869840 0.995800 -0.041654
N3    N     N_R   0.908680 0.630160 0.995800 -0.041654
N4    N     N_R   0.908680 0.369840 0.995800 -0.041654
N5    N     N_R   0.421680 0.867580 0.153120 -0.037279
N6    N     N_R   0.421680 0.132420 0.153120 -0.037279
N7    N     N_R   0.921680 0.367580 0.153120 -0.037279
N8    N     N_R   0.921680 0.632420 0.153120 -0.037279
N9    N     N_R   0.403730 0.921770 0.935950 -0.039332
N10   N     N_R   0.403730 0.078230 0.935950 -0.039332
N11   N     N_R   0.903730 0.421770 0.935950 -0.039332
N12   N     N_R   0.903730 0.578230 0.935950 -0.039332
N13   N     N_R   0.426630 0.075970 0.212960 -0.034430
N14   N     N_R   0.426630 0.924030 0.212960 -0.034430
N15   N     N_R   0.926630 0.575970 0.212960 -0.034430
N16   N     N_R   0.926630 0.424030 0.212960 -0.034430
N17   N     N_R   0.591320 0.134600 0.004200 -0.048094
N18   N     N_R   0.591320 0.865400 0.004200 -0.048094
N19   N     N_R   0.091320 0.634600 0.004200 -0.048094
N20   N     N_R   0.091320 0.365400 0.004200 -0.048094
N21   N     N_R   0.578320 0.867660 0.846880 -0.033827
N22   N     N_R   0.578320 0.132340 0.846880 -0.033827
N23   N     N_R   0.078320 0.367660 0.846880 -0.033827
N24   N     N_R   0.078320 0.632340 0.846880 -0.033827
N25   N     N_R   0.573370 0.074390 0.787040 -0.034256
N26   N     N_R   0.573370 0.925610 0.787040 -0.034256
N27   N     N_R   0.073370 0.574390 0.787040 -0.034256
N28   N     N_R   0.073370 0.425610 0.787040 -0.034256
N29   N     N_R   0.596270 0.927870 0.064040 -0.040712
N30   N     N_R   0.596270 0.072130 0.064040 -0.040712
N31   N     N_R   0.096270 0.427870 0.064040 -0.040712
N32   N     N_R   0.096270 0.572130 0.064040 -0.040712
Ni1   Ni    Ni4+2 0.500000 0.131190 0.000000 0.204798
Ni2   Ni    Ni4+2 0.500000 0.868810 0.000000 0.204798
Ni3   Ni    Ni4+2 0.000000 0.631190 0.000000 0.204798
Ni4   Ni    Ni4+2 1.000000 0.368810 0.000000 0.204798
Ni5   Ni    Ni4+2 0.488650 1.000000 0.862740 0.208678
Ni6   Ni    Ni4+2 0.988650 0.500000 0.862740 0.208678
Ni7   Ni    Ni4+2 0.511350 0.000000 0.137260 0.206359
Ni8   Ni    Ni4+2 0.011350 0.500000 0.137260 0.206359
N33   N     N_3   0.548888 0.776438 0.565911 -0.219835
H85   H     H_    0.535805 0.800090 0.514661 0.096169
H86   H     H_    0.536491 0.716636 0.571291 0.121850
N34   N     N_3   0.548888 0.223561 0.565911 -0.219835
H87   H     H_    0.535806 0.199909 0.514660 0.096169
H88   H     H_    0.536491 0.283363 0.571291 0.121850
N35   N     N_3   0.048888 0.276438 0.565911 -0.219835
H89   H     H_    0.035805 0.300090 0.514660 0.096169
H90   H     H_    0.036491 0.216636 0.571291 0.121850
N36   N     N_3   0.048887 0.723562 0.565911 -0.219835
H91   H     H_    0.035805 0.699910 0.514661 0.096169
H92   H     H_    0.036491 0.783364 0.571292 0.121850

loop_
_geom_bond_atom_site_label_1
_geom_bond_atom_site_label_2
_ccdc_geom_bond_type
C61   C70   A    
C44   H48   S    
N4    N11   A    
C87   H75   S    
N12   Ni6   S    
C6    H78   S    
C45   H41   S    
C13   C81   A    
C61   H57   S    
C51   H35   S    
C46   N6    A    
C39   C51   S    
C50   H34   S    
C87   N27   A    
N30   Ni7   S    
C26   C34   S    
C45   C73   A    
C25   C43   S    
C6    C9    A    
C41   H45   S    
C27   H19   S    
C84   H72   S    
C25   H17   S    
C54   C60   D    
N33   H85   S    
C68   C75   A    
C52   N36   S    
C1    N1    A    
C43   H23   S    
C37   C41   S    
C53   H49   S    
C3    H3    S    
N8    N15   A    
N34   H88   S    
C38   C42   S    
N1    Ni1   S    
C5    N29   A    
C82   H70   S    
C17   H81   S    
C58   C71   S    
N22   N25   A    
C62   N10   A    
N21   N26   A    
N6    Ni1   S    
C49   N33   S    
C16   C84   A    
C55   H51   S    
N5    Ni2   S    
N9    Ni5   S    
C26   H38   S    
C64   C71   A    
C63   H59   S    
C2    H2    S    
N26   Ni5   S    
C25   H37   S    
C85   H73   S    
C32   C52   S    
C47   N7    A    
C8    H80   S    
C81   H69   S    
C77   H65   S    
N6    N13   A    
C27   H39   S    
N18   Ni2   S    
C23   H15   S    
N23   Ni4   S    
C20   C24   S    
N17   Ni1   S    
C12   C54   S    
C78   N18   A    
C13   C86   A    
C16   C87   A    
C7    N31   A    
C31   C33   S    
C15   C88   A    
C86   H74   S    
N3    Ni3   S    
N8    Ni3   S    
C10   C56   S    
C13   C37   S    
C11   C53   S    
C45   N5    A    
C19   H83   S    
C21   H13   S    
C18   H82   S    
C20   H8    S    
C59   H55   S    
C79   N19   A    
N14   Ni7   S    
C64   H60   S    
C83   N23   A    
C80   N20   A    
C26   H18   S    
C17   C33   S    
C32   H32   S    
N24   N27   A    
N2    N9    A    
C31   H27   S    
C19   C35   S    
C67   N15   A    
C80   H68   S    
N33   H86   S    
C53   C59   D    
C7    C12   A    
C30   C50   S    
C65   N13   A    
C35   C76   S    
C48   N8    A    
C63   N11   A    
C81   N21   A    
C26   C44   S    
C8    N32   A    
C22   H12   S    
N34   H87   S    
N35   H89   S    
C21   H11   S    
C19   C23   S    
C78   H66   S    
C20   C36   S    
C29   C49   S    
N7    N16   A    
C30   H30   S    
C27   C35   S    
C34   C73   S    
C40   C52   S    
C66   C73   A    
C29   H29   S    
N10   Ni5   S    
C1    C69   A    
C65   C74   A    
C62   C69   A    
C47   H43   S    
N11   Ni6   S    
C32   C34   S    
C3    C71   A    
C68   H64   S    
C36   C75   S    
C14   C38   S    
C37   C49   S    
C27   C41   S    
C24   C38   S    
C21   C39   S    
C50   N34   S    
C88   H76   S    
C22   C40   S    
N32   Ni8   S    
N13   Ni7   S    
C55   C57   D    
C9    C77   A    
C32   H28   S    
C43   H47   S    
C18   C34   S    
C46   C74   A    
C15   C39   S    
C11   C79   A    
C86   N26   A    
C9    C55   S    
C44   H24   S    
C85   N25   A    
C23   H9    S    
C16   C40   S    
N1    N10   A    
N20   Ni4   S    
C5    H77   S    
C66   N14   A    
C4    N4    A    
C18   H6    S    
C68   N16   A    
C24   H10   S    
N31   Ni8   S    
C17   H5    S    
N19   N32   A    
C14   C82   A    
C4    C72   A    
C19   H7    S    
N23   N28   A    
C30   H26   S    
C3    N3    A    
N22   Ni1   S    
C7    H79   S    
N7    Ni4   S    
N36   H92   S    
C1    H1    S    
C58   H54   S    
C66   H62   S    
C20   H84   S    
N19   Ni3   S    
C14   C85   A    
C31   C51   S    
N15   Ni8   S    
C46   H42   S    
C15   C83   A    
N18   N29   A    
C6    N30   A    
C38   C50   S    
C30   C36   S    
N17   N30   A    
C29   C35   S    
C61   N9    A    
C22   H14   S    
C57   H53   S    
C42   H46   S    
N27   Ni6   S    
C77   N17   A    
N4    Ni4   S    
N24   Ni3   S    
C18   C22   S    
C42   H22   S    
C47   C75   A    
C5    C10   A    
C23   C37   S    
C60   H56   S    
N16   Ni8   S    
C88   N28   A    
C54   H50   S    
C2    C70   A    
C60   C69   S    
C84   N24   A    
C8    C11   A    
C56   H52   S    
C12   C80   A    
C52   H36   S    
C28   C42   S    
C51   N35   S    
N20   N31   A    
C56   C58   D    
C10   C78   A    
N35   H90   S    
C49   H33   S    
C57   C72   S    
C65   H61   S    
N36   H91   S    
C28   H20   S    
N28   Ni6   S    
C82   N22   A    
N25   Ni5   S    
N5    N14   A    
C59   C70   S    
C79   H67   S    
C48   C76   A    
C64   N12   A    
C28   H40   S    
C33   C74   S    
C40   C44   S    
C83   H71   S    
C63   C72   A    
C28   C36   S    
C62   H58   S    
C39   C43   S    
C29   H25   S    
N2    Ni2   S    
C67   H63   S    
C48   H44   S    
C41   H21   S    
N21   Ni2   S    
C24   H16   S    
C31   H31   S    
N29   Ni7   S    
C2    N2    A    
C67   C76   A    
C25   C33   S    
N3    N12   A    
C4    H4    S    
C17   C21   S    
