data_mof_unit_53538.cif
_audit_creation_date              2012-12-10T19:44:14-0500
_audit_creation_method            fapswitch 2.2
_symmetry_space_group_name_H-M    P1
_symmetry_Int_Tables_number       1
_space_group_crystal_system       triclinic
_cell_length_a                    18.415313
_cell_length_b                    18.415788
_cell_length_c                    34.244466
_cell_angle_alpha                 90.101395
_cell_angle_beta                  89.911173
_cell_angle_gamma                 89.997869
_cell_volume                      11613.3792204

loop_
_atom_site_label
_atom_site_type_symbol
_atom_type_description
_atom_site_fract_x
_atom_site_fract_y
_atom_site_fract_z
_atom_type_partial_charge
C1    C     C_R   0.000025 0.500033 0.894477 0.969960
C2    C     C_R   0.502144 0.067255 0.291560 -0.097931
C3    C     C_R   0.299659 0.807323 0.996665 -0.176282
C4    C     C_R   0.683276 0.207324 0.490715 -0.136697
C5    C     C_R   0.800928 0.691678 0.496374 -0.146567
C6    C     C_R   0.314251 0.793627 0.493954 -0.147083
C7    C     C_R   0.199141 0.308512 0.496005 -0.152295
C8    C     C_R   0.307615 0.200707 0.496820 -0.178418
C9    C     C_R   0.194928 0.697692 0.500691 -0.162321
C10   C     C_R   0.692561 0.799572 0.496513 -0.175575
C11   C     C_R   0.795884 0.311329 0.496089 -0.148672
C12   C     C_R   0.170672 0.772777 0.995861 0.085002
C13   C     C_R   0.944430 0.537052 0.291712 -0.086962
C14   C     C_R   0.236067 0.184992 0.021577 0.076408
C15   C     C_R   0.829898 0.227181 0.996621 0.087808
C16   C     C_R   0.774153 0.830158 0.009712 0.087362
C17   C     C_R   0.820245 0.770088 0.018334 0.070761
C18   C     C_R   0.775425 0.174037 0.003545 0.066671
C19   C     C_R   0.201893 0.251755 0.030588 0.064608
C20   C     C_R   0.224965 0.826237 0.002703 0.067214
C21   C     C_R   0.669892 0.274184 0.509833 0.087209
C22   C     C_R   0.727189 0.670580 0.495850 0.085076
C23   C     C_R   0.315153 0.736086 0.521419 0.076658
C24   C     C_R   0.496949 0.934326 0.291334 -0.095304
C25   C     C_R   0.272785 0.329815 0.496594 0.087768
C26   C     C_R   0.325896 0.275389 0.503594 0.067184
C27   C     C_R   0.248482 0.701872 0.530495 0.064399
C28   C     C_R   0.673680 0.724910 0.502602 0.066605
C29   C     C_R   0.730009 0.320289 0.518424 0.070843
C30   C     C_3   0.373813 0.687303 0.003348 0.184728
C31   C     C_3   0.286758 0.343508 0.943449 0.174749
C32   C     C_3   0.626148 0.311027 0.003874 0.203590
C33   C     C_3   0.712056 0.651137 0.945908 0.170191
C34   C     C_3   0.653895 0.711981 0.944044 0.189101
C35   C     C_R   0.498541 0.997177 0.770701 -0.093124
C36   C     C_3   0.686643 0.365974 0.012641 0.191989
C37   C     C_3   0.341715 0.280329 0.941219 0.067208
C38   C     C_3   0.313185 0.632526 0.012181 0.198206
C39   C     C_3   0.848656 0.211738 0.445800 0.170446
C40   C     C_3   0.812468 0.873968 0.502972 0.184518
C41   C     C_3   0.155980 0.786583 0.443717 0.173871
C42   C     C_3   0.188782 0.126344 0.504352 0.204054
C43   C     C_3   0.133875 0.187009 0.512934 0.192165
C44   C     C_3   0.218933 0.841775 0.441583 0.064996
C45   C     C_3   0.867267 0.813499 0.512011 0.198414
C46   C     C_R   0.000083 0.500034 0.770993 -0.092664
C47   C     C_3   0.787697 0.153681 0.443879 0.190223
C48   C     C_R   0.434201 0.984225 0.831822 0.368365
C49   C     C_R   0.973233 0.439080 0.832156 0.363849
C50   C     C_R   0.563786 0.012349 0.831314 0.368585
C51   C     C_R   0.026398 0.561084 0.832242 0.345359
C52   C     C_R   0.938615 0.525640 0.332301 0.345720
C53   C     C_R   0.514058 0.935880 0.331391 0.368014
C54   C     C_R   0.060691 0.472632 0.332095 0.363760
C55   C     C_R   0.485854 0.065447 0.331749 0.368835
C56   C     C_R   0.499048 0.999420 0.851994 -0.257530
C57   C     C_R   0.999556 0.499179 0.270993 -0.092721
C58   C     C_R   0.000003 0.500013 0.852269 -0.282240
C59   C     C_R   0.999848 0.499570 0.352268 -0.282378
C60   C     C_R   0.500082 0.000552 0.351999 -0.257934
C61   C     C_3   0.095022 0.794562 0.982170 -0.442010
C62   C     C_3   0.100926 0.832417 0.942277 -0.322108
C63   C     C_3   0.026823 0.847830 0.924337 -0.732213
C64   C     C_3   0.201251 0.115420 0.036483 -0.376174
C65   C     C_3   0.122472 0.108690 0.021197 -0.352797
C66   C     C_3   0.072711 0.067704 0.049175 -0.922272
C67   C     C_3   0.908131 0.204884 0.987817 -0.422739
C68   C     C_R   0.499336 0.000877 0.270705 -0.093003
C69   C     C_3   0.911356 0.158412 0.950488 -0.325383
C70   C     C_3   0.988056 0.131107 0.942417 -0.824443
C71   C     C_3   0.801823 0.907675 0.013441 -0.381460
C72   C     C_3   0.871376 0.921166 0.989035 -0.313265
C73   C     C_3   0.936405 0.945058 0.013636 -0.949437
C74   C     C_3   0.874456 0.778100 0.051806 -0.362807
C75   C     C_3   0.851154 0.735334 0.088206 -0.347266
C76   C     C_3   0.908297 0.742036 0.120341 -0.811713
C77   C     C_3   0.796464 0.105813 0.025549 -0.398092
C78   C     C_3   0.784569 0.117893 0.069598 -0.311508
C79   C     C_R   0.628787 0.974083 0.771161 0.408156
C80   C     C_3   0.789176 0.047494 0.092747 -0.831644
C81   C     C_3   0.173252 0.263451 0.072033 -0.363632
C82   C     C_3   0.234069 0.254932 0.102652 -0.414206
C83   C     C_3   0.203830 0.232464 0.142366 -0.815864
C84   C     C_3   0.203956 0.895328 0.024313 -0.378302
C85   C     C_3   0.217835 0.884302 0.068426 -0.307850
C86   C     C_3   0.228234 0.955194 0.090760 -0.844941
C87   C     C_3   0.592396 0.301900 0.513639 -0.381656
C88   C     C_3   0.578849 0.371280 0.489224 -0.312945
C89   C     C_3   0.554978 0.436459 0.513824 -0.949703
C90   C     C_R   0.085158 0.601624 0.770702 0.412107
C91   C     C_3   0.705458 0.594798 0.482202 -0.441463
C92   C     C_3   0.667656 0.600331 0.442284 -0.323253
C93   C     C_3   0.652159 0.526062 0.424433 -0.732254
C94   C     C_3   0.384837 0.701386 0.536205 -0.375679
C95   C     C_3   0.391555 0.622511 0.520916 -0.352828
C96   C     C_3   0.432237 0.572838 0.548988 -0.922531
C97   C     C_3   0.295109 0.407956 0.487739 -0.423240
C98   C     C_3   0.341610 0.410826 0.450423 -0.323911
C99   C     C_3   0.368970 0.487433 0.442301 -0.825020
C100  C     C_3   0.394136 0.296564 0.525588 -0.398701
C101  C     C_R   0.367766 0.017721 0.771320 0.408311
C102  C     C_3   0.382093 0.284900 0.569636 -0.312338
C103  C     C_3   0.452507 0.289635 0.592781 -0.828680
C104  C     C_3   0.237026 0.673349 0.571930 -0.363593
C105  C     C_3   0.245667 0.734261 0.602591 -0.413025
C106  C     C_3   0.268135 0.704121 0.642274 -0.818360
C107  C     C_3   0.604587 0.704020 0.524194 -0.377785
C108  C     C_3   0.615654 0.718020 0.568317 -0.307107
C109  C     C_3   0.544785 0.728533 0.590669 -0.847571
C110  C     C_3   0.722088 0.374676 0.551923 -0.362809
C111  C     C_3   0.764962 0.351573 0.588288 -0.347091
C112  C     C_R   0.499668 0.999888 0.894361 0.977696
C113  C     C_R   0.915115 0.398377 0.770451 0.411633
C114  C     C_3   0.758266 0.408851 0.620458 -0.810811
C115  C     C_3   0.130258 0.450497 0.146106 -0.424926
C116  C     C_3   0.193082 0.501816 0.156458 -0.350540
C117  C     C_3   0.262408 0.480839 0.134684 -0.822921
C118  C     C_3   0.513945 0.138637 0.144764 -0.413598
C119  C     C_3   0.441801 0.180420 0.145058 -0.356143
C120  C     C_3   0.447608 0.250663 0.121671 -0.849735
C121  C     C_3   0.868298 0.545582 0.146537 -0.426875
C122  C     C_3   0.808650 0.490343 0.156396 -0.356093
C123  C     C_3   0.739411 0.505478 0.133332 -0.812655
C124  C     C_R   0.101051 0.414014 0.270353 0.412595
C125  C     C_3   0.487431 0.862999 0.144830 -0.413726
C126  C     C_3   0.408063 0.841979 0.137034 -0.329618
C127  C     C_3   0.403565 0.772901 0.112555 -0.878127
C128  C     C_3   0.637080 0.987161 0.645011 -0.412273
C129  C     C_3   0.658068 0.907983 0.636498 -0.333864
C130  C     C_3   0.727740 0.904057 0.612476 -0.877204
C131  C     C_3   0.050084 0.630231 0.646335 -0.424690
C132  C     C_3   0.998772 0.693207 0.656536 -0.351153
C133  C     C_3   0.020205 0.762406 0.634903 -0.823597
C134  C     C_3   0.361595 0.014833 0.644604 -0.412586
C135  C     C_R   0.521022 0.131393 0.271408 0.406100
C136  C     C_3   0.320028 0.942606 0.643407 -0.360687
C137  C     C_3   0.250175 0.949535 0.619771 -0.846910
C138  C     C_3   0.954789 0.368367 0.646326 -0.426983
C139  C     C_3   0.009906 0.308772 0.656382 -0.355496
C140  C     C_3   0.995123 0.239434 0.633215 -0.811438
C141  C     C_R   0.897588 0.583813 0.270801 0.411277
C142  C     C_R   0.477326 0.870378 0.271094 0.410614
C143  C     C_R   0.105442 0.420899 0.229955 -0.298766
C144  C     C_R   0.520130 0.131347 0.230756 -0.298188
C145  C     C_R   0.893294 0.577157 0.230370 -0.299078
C146  C     C_R   0.476810 0.870877 0.230468 -0.298592
C147  C     C_R   0.628593 0.974189 0.730529 -0.298061
C148  C     C_R   0.500042 0.000192 0.394362 0.977419
C149  C     C_R   0.078765 0.605784 0.730273 -0.299891
C150  C     C_R   0.368107 0.017355 0.730664 -0.298015
C151  C     C_R   0.922269 0.393829 0.730052 -0.297912
C152  C     C_R   0.056372 0.464538 0.209140 0.055723
C153  C     C_R   0.507894 0.067331 0.209140 0.057777
C154  C     C_R   0.942846 0.534170 0.209330 0.055034
C155  C     C_R   0.490387 0.934679 0.209072 0.057635
C156  C     C_R   0.565012 0.988753 0.709117 0.057205
C157  C     C_R   0.035339 0.556623 0.709283 0.055706
C158  C     C_R   0.432370 0.006355 0.709085 0.058388
C159  C     C_R   0.999991 0.499908 0.394477 0.970707
C160  C     C_R   0.965588 0.443180 0.709190 0.055003
C161  C     C_R   0.999636 0.499373 0.229736 0.061765
C162  C     C_R   0.499197 0.000983 0.229503 0.064484
C163  C     C_R   0.498601 0.997392 0.729498 0.064446
C164  C     C_R   0.000260 0.499999 0.729737 0.061791
C165  C     C_R   0.060632 0.471303 0.168109 0.042119
C166  C     C_R   0.507571 0.067597 0.167816 0.035040
C167  C     C_R   0.938857 0.527788 0.168278 0.042906
C168  C     C_R   0.492330 0.934106 0.167865 0.026933
C169  C     C_R   0.565833 0.991625 0.667931 0.026805
C170  C     C_R   0.565064 0.994575 0.791327 -0.097686
C171  C     C_R   0.028885 0.560755 0.668230 0.042212
C172  C     C_R   0.432398 0.007316 0.667763 0.035789
C173  C     C_R   0.972291 0.439041 0.668161 0.042802
C174  C     C_R   0.999954 0.500018 0.148007 -0.078086
C175  C     C_R   0.500112 0.000695 0.147869 -0.073355
C176  C     C_R   0.499395 0.000201 0.647878 -0.073649
C177  C     C_R   0.000099 0.500101 0.648008 -0.078132
C178  C     C_R   0.999973 0.500041 0.105593 0.794713
C179  C     C_R   0.499940 0.000184 0.105521 0.806451
C180  C     C_R   0.499984 0.000021 0.605524 0.807285
C181  C     C_R   0.038052 0.555078 0.791660 -0.086996
C182  C     C_R   0.999984 0.500093 0.605594 0.794734
C183  C     C_R   0.860360 0.641147 0.999803 0.835207
C184  C     C_R   0.359184 0.860251 0.999674 0.828632
C185  C     C_R   0.141807 0.361573 0.001132 0.848503
C186  C     C_R   0.641042 0.139464 0.999562 0.815685
C187  C     C_R   0.139546 0.640247 0.999613 0.829474
C188  C     C_R   0.642807 0.862763 0.997669 0.815931
C189  C     C_R   0.860494 0.359783 0.999578 0.836098
C190  C     C_R   0.357154 0.137399 0.998173 0.829646
C191  C     C_R   0.360491 0.141035 0.499612 0.817575
C192  C     C_R   0.432131 0.999809 0.791561 -0.095551
C193  C     C_R   0.858872 0.360309 0.499802 0.836754
C194  C     C_R   0.639698 0.859173 0.499619 0.827188
C195  C     C_R   0.138455 0.641755 0.501138 0.847203
C196  C     C_R   0.637220 0.142830 0.497687 0.816455
C197  C     C_R   0.140219 0.360476 0.499554 0.837020
C198  C     C_R   0.362569 0.857196 0.498161 0.829260
C199  C     C_R   0.859756 0.639526 0.499639 0.828746
C200  C     C_R   0.264324 0.682357 0.990156 0.031397
C201  C     C_R   0.288146 0.237670 0.964337 -0.002076
C202  C     C_R   0.735811 0.317213 0.989840 0.039167
C203  C     C_R   0.961911 0.445038 0.791556 -0.093949
C204  C     C_R   0.707929 0.758895 0.964243 -0.041805
C205  C     C_R   0.760093 0.705706 0.965808 -0.027165
C206  C     C_R   0.683658 0.263614 0.986050 -0.034949
C207  C     C_R   0.237960 0.293532 0.966301 -0.007063
C208  C     C_R   0.316571 0.735675 0.986159 -0.041985
C209  C     C_R   0.740976 0.207785 0.464246 -0.042343
C210  C     C_R   0.817533 0.764231 0.490081 0.031616
C211  C     C_R   0.262031 0.788185 0.464377 -0.000831
C212  C     C_R   0.182665 0.235716 0.489972 0.038906
C213  C     C_R   0.236221 0.183471 0.486291 -0.034831
C214  C     C_R   0.054570 0.461047 0.291503 -0.094035
C215  C     C_R   0.206273 0.737882 0.466341 -0.006265
C216  C     C_R   0.764177 0.816386 0.485963 -0.041984
C217  C     C_R   0.794221 0.259880 0.465816 -0.027597
C218  C     C_R   0.191729 0.699028 0.996329 -0.146421
C219  C     C_R   0.293573 0.185659 0.993998 -0.146722
C220  C     C_R   0.808560 0.300815 0.996043 -0.152408
C221  C     C_R   0.707343 0.816682 0.990662 -0.136816
C222  C     C_R   0.811414 0.704152 0.996062 -0.148735
C223  C     C_R   0.700785 0.192275 0.996679 -0.177809
C224  C     C_R   0.197808 0.305158 0.000704 -0.161612
H1    H     H_    0.398509 0.710537 0.030114 0.044805
H2    H     H_    0.789193 0.899120 0.529649 0.044700
H3    H     H_    0.433566 0.730137 0.525677 0.216864
H4    H     H_    0.385637 0.703411 0.568578 0.213183
H5    H     H_    0.323101 0.526575 0.441402 0.262311
H6    H     H_    0.407904 0.503859 0.465307 0.247626
H7    H     H_    0.397524 0.488543 0.413729 0.287693
H8    H     H_    0.389333 0.374216 0.452750 0.230632
H9    H     H_    0.308335 0.392351 0.425212 0.277152
H10   H     H_    0.247658 0.443350 0.482155 0.213405
H11   H     H_    0.323720 0.432464 0.513017 0.199289
H12   H     H_    0.490479 0.246161 0.583324 0.276688
H13   H     H_    0.110526 0.806630 0.462108 0.151488
H14   H     H_    0.478082 0.343678 0.588905 0.245528
H15   H     H_    0.440659 0.281962 0.624306 0.261742
H16   H     H_    0.343729 0.326815 0.580698 0.216472
H17   H     H_    0.357266 0.230881 0.575217 0.232926
H18   H     H_    0.440884 0.266210 0.514306 0.224244
H19   H     H_    0.409678 0.353755 0.520933 0.193320
H20   H     H_    0.230530 0.660645 0.651838 0.264591
H21   H     H_    0.323963 0.681476 0.640532 0.263642
H22   H     H_    0.267576 0.748400 0.664332 0.262462
H23   H     H_    0.287029 0.774935 0.593739 0.235713
H24   H     H_    0.212870 0.102894 0.531302 0.040296
H25   H     H_    0.193219 0.763596 0.605656 0.227260
H26   H     H_    0.181862 0.651251 0.576613 0.214934
H27   H     H_    0.275907 0.628482 0.577523 0.224242
H28   H     H_    0.512789 0.773735 0.577971 0.289693
H29   H     H_    0.512447 0.678010 0.590543 0.260350
H30   H     H_    0.557100 0.742401 0.621527 0.247647
H31   H     H_    0.645951 0.671666 0.581183 0.211497
H32   H     H_    0.649089 0.767453 0.573117 0.229046
H33   H     H_    0.557277 0.733041 0.511942 0.220857
H34   H     H_    0.590347 0.646273 0.520143 0.175533
H35   H     H_    0.133923 0.202127 0.544423 0.036953
H36   H     H_    0.787604 0.459057 0.611851 0.277856
H37   H     H_    0.700332 0.422144 0.626067 0.261275
H38   H     H_    0.781695 0.388019 0.648041 0.251702
H39   H     H_    0.742589 0.299375 0.599293 0.219657
H40   H     H_    0.823229 0.342684 0.581557 0.237575
H41   H     H_    0.735082 0.430654 0.542308 0.224996
H42   H     H_    0.665389 0.378560 0.562032 0.204158
H43   H     H_    0.455568 0.750637 0.925701 0.403774
H44   H     H_    0.192529 0.474991 0.881304 0.402133
H45   H     H_    0.545322 0.248043 0.926052 0.393010
H46   H     H_    0.207266 0.890969 0.459064 0.167136
H47   H     H_    0.805449 0.519107 0.883001 0.402463
H48   H     H_    0.557437 0.713823 0.850217 0.396263
H49   H     H_    0.583689 0.508583 0.974895 0.419701
H50   H     H_    0.447702 0.316000 0.885476 0.375368
H51   H     H_    0.412779 0.487318 0.972232 0.412468
H52   H     H_    0.980542 0.305172 0.382998 0.402347
H53   H     H_    0.748740 0.954249 0.425200 0.402895
H54   H     H_    0.024459 0.692377 0.381401 0.402163
H55   H     H_    0.251256 0.043929 0.426665 0.393977
H56   H     H_    0.991318 0.083544 0.475440 0.419975
H57   H     H_    0.867663 0.800035 0.543686 0.039797
H58   H     H_    0.181110 0.947353 0.386604 0.375024
H59   H     H_    0.012672 0.912624 0.472056 0.411887
H60   H     H_    0.785161 0.057522 0.349788 0.396535
H61   H     H_    0.366844 0.830629 0.888510 0.383319
H62   H     H_    0.028591 0.304360 0.904836 0.365911
H63   H     H_    0.636916 0.162975 0.888363 0.382739
H64   H     H_    0.980017 0.657334 0.914594 0.322912
H65   H     H_    0.842292 0.479562 0.414749 0.323173
H66   H     H_    0.668271 0.866492 0.386692 0.383521
H67   H     H_    0.195789 0.528576 0.404552 0.366107
H68   H     H_    0.799355 0.106688 0.462949 0.160898
H69   H     H_    0.335461 0.136336 0.389988 0.382738
H70   H     H_    0.786261 0.995841 0.768833 0.344185
H71   H     H_    0.142883 0.750277 0.778951 0.349929
H72   H     H_    0.211282 0.991152 0.767349 0.340724
H73   H     H_    0.856436 0.250281 0.778882 0.352060
H74   H     H_    0.249259 0.355129 0.278521 0.350385
H75   H     H_    0.496521 0.288322 0.269644 0.342861
H76   H     H_    0.748889 0.640978 0.279313 0.351480
H77   H     H_    0.501024 0.713320 0.266442 0.341992
H78   H     H_    0.279826 0.425355 0.143215 0.256958
H79   H     H_    0.144112 0.386812 0.214897 0.174577
H80   H     H_    0.253474 0.482569 0.102618 0.279436
H81   H     H_    0.306421 0.519607 0.142195 0.263182
H82   H     H_    0.178020 0.558306 0.148404 0.234548
H83   H     H_    0.204252 0.500544 0.188299 0.246371
H84   H     H_    0.145018 0.393452 0.152138 0.201760
H85   H     H_    0.124021 0.452542 0.114000 0.204653
H86   H     H_    0.490984 0.285891 0.133881 0.270855
H87   H     H_    0.459942 0.238512 0.090565 0.259793
H88   H     H_    0.395326 0.280505 0.123188 0.251262
H89   H     H_    0.398501 0.146002 0.132021 0.234284
H90   H     H_    0.532497 0.182124 0.216598 0.171589
H91   H     H_    0.425553 0.193921 0.175458 0.236292
H92   H     H_    0.559061 0.172496 0.156099 0.204777
H93   H     H_    0.529691 0.129440 0.113908 0.195531
H94   H     H_    0.718619 0.560696 0.140154 0.263165
H95   H     H_    0.750125 0.501205 0.101475 0.278865
H96   H     H_    0.697179 0.465077 0.141295 0.259798
H97   H     H_    0.828028 0.434708 0.149197 0.236588
H98   H     H_    0.795640 0.492320 0.188062 0.247041
H99   H     H_    0.849616 0.601226 0.153269 0.200630
H100  H     H_    0.875031 0.545206 0.114421 0.208820
H101  H     H_    0.854471 0.611113 0.215496 0.173488
H102  H     H_    0.431332 0.781372 0.084137 0.250586
H103  H     H_    0.429600 0.726935 0.128142 0.277251
H104  H     H_    0.345839 0.758965 0.106995 0.239484
H105  H     H_    0.378688 0.833277 0.164976 0.241684
H106  H     H_    0.380211 0.886422 0.121102 0.246454
H107  H     H_    0.516782 0.867064 0.116579 0.195991
H108  H     H_    0.516568 0.818583 0.160074 0.203231
H109  H     H_    0.720170 0.932980 0.584368 0.251103
H110  H     H_    0.773432 0.929219 0.628746 0.277343
H111  H     H_    0.741527 0.846490 0.606266 0.238798
H112  H     H_    0.307064 0.388982 0.961721 0.151074
H113  H     H_    0.462006 0.820851 0.216096 0.169987
H114  H     H_    0.665996 0.877672 0.664163 0.240399
H115  H     H_    0.613957 0.880777 0.619946 0.247172
H116  H     H_    0.633226 0.017276 0.617033 0.195674
H117  H     H_    0.681418 0.015771 0.660666 0.204643
H118  H     H_    0.075613 0.779718 0.643674 0.257105
H119  H     H_    0.018893 0.753367 0.602824 0.279191
H120  H     H_    0.981438 0.806537 0.642293 0.263207
H121  H     H_    0.942356 0.678252 0.648244 0.234271
H122  H     H_    0.999641 0.704477 0.688391 0.246050
H123  H     H_    0.107091 0.644888 0.652580 0.201824
H124  H     H_    0.678543 0.959044 0.716155 0.171634
H125  H     H_    0.048424 0.623853 0.614221 0.204738
H126  H     H_    0.214555 0.992032 0.632609 0.270660
H127  H     H_    0.262820 0.963757 0.588981 0.259538
H128  H     H_    0.220524 0.897085 0.620128 0.251015
H129  H     H_    0.354785 0.900129 0.629784 0.234595
H130  H     H_    0.306080 0.924677 0.673442 0.234938
H131  H     H_    0.327452 0.059193 0.656617 0.205983
H132  H     H_    0.371165 0.032472 0.614110 0.196543
H133  H     H_    0.939806 0.218670 0.639779 0.263344
H134  H     H_    0.999874 0.250011 0.601384 0.279047
H135  H     H_    0.112953 0.644451 0.715356 0.174960
H136  H     H_    0.035409 0.197239 0.641334 0.259873
H137  H     H_    0.065637 0.328132 0.649431 0.236923
H138  H     H_    0.007481 0.295891 0.688032 0.247402
H139  H     H_    0.899064 0.349703 0.652832 0.200572
H140  H     H_    0.955612 0.374933 0.614212 0.208787
H141  H     H_    0.317213 0.029069 0.716485 0.170006
H142  H     H_    0.888324 0.355092 0.715032 0.173204
H143  H     H_    0.992726 0.798097 0.923886 0.273595
H144  H     H_    0.999018 0.891062 0.941062 0.240831
H145  H     H_    0.034006 0.867081 0.893866 0.290284
H146  H     H_    0.130909 0.884511 0.945295 0.229839
H147  H     H_    0.131765 0.796939 0.921804 0.282939
H148  H     H_    0.602217 0.286993 0.030753 0.040592
H149  H     H_    0.059423 0.746638 0.978140 0.207326
H150  H     H_    0.067089 0.829352 0.003900 0.190155
H151  H     H_    0.084502 0.008793 0.048300 0.270025
H152  H     H_    0.078515 0.088501 0.079470 0.271295
H153  H     H_    0.015461 0.075800 0.040191 0.252127
H154  H     H_    0.097323 0.162690 0.016164 0.236907
H155  H     H_    0.123234 0.080340 0.992516 0.226151
H156  H     H_    0.230046 0.066605 0.026038 0.217145
H157  H     H_    0.203058 0.114813 0.068860 0.213234
H158  H     H_    0.027169 0.177005 0.941541 0.262473
H159  H     H_    0.695860 0.606808 0.965940 0.153114
H160  H     H_    0.004324 0.092205 0.965437 0.247600
H161  H     H_    0.989432 0.102537 0.913848 0.287632
H162  H     H_    0.874757 0.110668 0.952771 0.230325
H163  H     H_    0.893081 0.191694 0.925274 0.276991
H164  H     H_    0.943563 0.252335 0.982268 0.213551
H165  H     H_    0.932428 0.176264 0.013105 0.199234
H166  H     H_    0.920087 0.985447 0.035951 0.266003
H167  H     H_    0.962038 0.898074 0.028253 0.255937
H168  H     H_    0.978002 0.970294 0.994533 0.258354
H169  H     H_    0.886572 0.872233 0.971853 0.241299
H170  H     H_    0.606975 0.700294 0.963237 0.161107
H171  H     H_    0.860429 0.964838 0.967398 0.223639
H172  H     H_    0.761245 0.945130 0.001140 0.193989
H173  H     H_    0.808002 0.922820 0.044524 0.203399
H174  H     H_    0.958491 0.712581 0.111733 0.278190
H175  H     H_    0.921663 0.799964 0.125894 0.261094
H176  H     H_    0.887292 0.718735 0.147952 0.251379
H177  H     H_    0.798931 0.757788 0.099227 0.219320
H178  H     H_    0.842233 0.677063 0.081511 0.237544
H179  H     H_    0.930477 0.765047 0.042181 0.225073
H180  H     H_    0.878280 0.834831 0.061871 0.204173
H181  H     H_    0.701220 0.365960 0.044178 0.037167
H182  H     H_    0.745735 0.009530 0.083312 0.277194
H183  H     H_    0.843230 0.021895 0.088848 0.245682
H184  H     H_    0.781358 0.059366 0.124275 0.260264
H185  H     H_    0.826434 0.156254 0.080645 0.215996
H186  H     H_    0.730524 0.142739 0.075189 0.232899
H187  H     H_    0.766188 0.059048 0.014280 0.224216
H188  H     H_    0.853678 0.090257 0.020881 0.193235
H189  H     H_    0.160226 0.269978 0.151952 0.264413
H190  H     H_    0.181320 0.176584 0.140659 0.264136
H191  H     H_    0.248027 0.233157 0.164392 0.263013
H192  H     H_    0.391147 0.291922 0.958439 0.167119
H193  H     H_    0.274844 0.213623 0.093777 0.236248
H194  H     H_    0.263312 0.307426 0.105680 0.227400
H195  H     H_    0.151165 0.318654 0.076652 0.214830
H196  H     H_    0.128341 0.224630 0.077722 0.224113
H197  H     H_    0.273519 0.987158 0.078049 0.289202
H198  H     H_    0.177722 0.987552 0.090633 0.260289
H199  H     H_    0.241922 0.942913 0.121619 0.248808
H200  H     H_    0.171461 0.853989 0.081337 0.211932
H201  H     H_    0.267280 0.850905 0.073190 0.229251
H202  H     H_    0.232982 0.942659 0.012038 0.221123
H203  H     H_    0.299225 0.632070 0.043819 0.039622
H204  H     H_    0.146202 0.909502 0.020323 0.175549
H205  H     H_    0.514523 0.420293 0.536103 0.266157
H206  H     H_    0.601960 0.462115 0.528484 0.256007
H207  H     H_    0.529824 0.477978 0.494711 0.258336
H208  H     H_    0.627758 0.386380 0.472030 0.241300
H209  H     H_    0.535154 0.360180 0.467599 0.223952
H210  H     H_    0.554870 0.261258 0.501395 0.194229
H211  H     H_    0.577365 0.308303 0.544733 0.203366
H212  H     H_    0.701821 0.491852 0.424090 0.273358
H213  H     H_    0.608804 0.498539 0.441147 0.240856
H214  H     H_    0.893015 0.195478 0.465781 0.152833
H215  H     H_    0.633033 0.532944 0.393929 0.290196
H216  H     H_    0.615597 0.630417 0.445236 0.229380
H217  H     H_    0.703203 0.630904 0.421791 0.282988
H218  H     H_    0.753394 0.559177 0.478217 0.207382
H219  H     H_    0.670649 0.567045 0.503937 0.190203
H220  H     H_    0.491184 0.584488 0.548235 0.270091
H221  H     H_    0.411255 0.578883 0.579240 0.271071
H222  H     H_    0.424065 0.515550 0.539996 0.252195
H223  H     H_    0.337558 0.597425 0.515737 0.236973
H224  H     H_    0.420139 0.623053 0.492304 0.225773
O1    O     O_3   0.000000 0.500000 0.999990 -0.528793
O2    O     O_R   1.000000 0.560740 0.412560 -0.590983
O3    O     O_3   0.810516 0.073547 0.373793 -0.447025
O4    O     O_2   0.328851 0.970553 0.886222 -0.286259
O5    O     O_2   0.311389 0.903158 0.824856 -0.223483
O6    O     O_3   0.405840 0.855065 0.873516 -0.522943
O7    O     O_2   0.900468 0.342919 0.877274 -0.238787
O8    O     O_2   0.982681 0.292663 0.827369 -0.243134
O9    O     O_3   0.038627 0.348782 0.889476 -0.541885
O10   O     O_2   0.671909 0.023132 0.884109 -0.288327
O11   O     O_2   0.688031 0.090348 0.822682 -0.220492
O12   O     O_3   0.597191 0.140610 0.873012 -0.511682
O13   O     O_R   0.439260 0.000000 0.412560 -0.562472
O14   O     O_2   0.096473 0.658557 0.877892 -0.256901
O15   O     O_2   0.015915 0.707513 0.827313 -0.225528
O16   O     O_3   0.957238 0.651525 0.888582 -0.518699
O17   O     O_2   0.841153 0.595767 0.378047 -0.257535
O18   O     O_2   0.792184 0.514708 0.327551 -0.225785
O19   O     O_3   0.848622 0.456635 0.388770 -0.518864
O20   O     O_2   0.528134 0.829624 0.385055 -0.285508
O21   O     O_2   0.593678 0.812427 0.323069 -0.221905
O22   O     O_3   0.643939 0.905807 0.371957 -0.522504
O23   O     O_2   0.157022 0.400191 0.377138 -0.238665
O24   O     O_R   1.000000 0.439260 0.412560 -0.597648
O25   O     O_2   0.207087 0.481970 0.327127 -0.243104
O26   O     O_3   0.151257 0.538456 0.389265 -0.541889
O27   O     O_2   0.475098 0.172601 0.385310 -0.289683
O28   O     O_2   0.406306 0.189014 0.324432 -0.221967
O29   O     O_3   0.358104 0.096940 0.374441 -0.511435
O30   O     O_2   0.682125 0.904233 0.834438 -0.160594
O31   O     O_2   0.721998 0.862477 0.770380 -0.275681
O32   O     O_3   0.775668 0.982795 0.796307 -0.441569
O33   O     O_2   0.188635 0.594468 0.826230 -0.198439
O34   O     O_2   0.226387 0.633055 0.761325 -0.285611
O35   O     O_R   1.000000 0.560680 0.087420 -0.648149
O36   O     O_3   0.155640 0.725284 0.803597 -0.421843
O37   O     O_2   0.309829 0.084661 0.834663 -0.146515
O38   O     O_2   0.271261 0.126420 0.770556 -0.262647
O39   O     O_3   0.220356 0.003986 0.795017 -0.449497
O40   O     O_2   0.810239 0.407246 0.825304 -0.200793
O41   O     O_2   0.773944 0.367675 0.760331 -0.281762
O42   O     O_3   0.842959 0.275776 0.803337 -0.417438
O43   O     O_2   0.092540 0.309534 0.325254 -0.200081
O44   O     O_2   0.131740 0.272779 0.260224 -0.284892
O45   O     O_3   0.223871 0.342130 0.303056 -0.418122
O46   O     O_R   0.439320 1.000000 0.087420 -0.653915
O47   O     O_2   0.591901 0.185779 0.334271 -0.160759
O48   O     O_2   0.631139 0.226306 0.269966 -0.272749
O49   O     O_3   0.510821 0.278159 0.296968 -0.442932
O50   O     O_2   0.904830 0.687680 0.326297 -0.199042
O51   O     O_2   0.865783 0.724905 0.261451 -0.282746
O52   O     O_3   0.773952 0.654253 0.303884 -0.421371
O53   O     O_2   0.411724 0.813363 0.334895 -0.146607
O54   O     O_2   0.367099 0.775599 0.271125 -0.264898
O55   O     O_3   0.489623 0.722786 0.294266 -0.448397
O56   O     O_R   0.000000 0.439320 0.087420 -0.645930
O57   O     O_R   0.560680 1.000000 0.087420 -0.649548
O58   O     O_R   0.500000 0.060680 0.587420 -0.649755
O59   O     O_R   0.939320 0.500000 0.587420 -0.648088
O60   O     O_R   0.500000 0.939320 0.587420 -0.654464
O61   O     O_3   0.500000 1.000000 0.999990 -0.515493
O62   O     O_R   0.060680 0.500000 0.587420 -0.645963
O63   O     O_R   0.853840 0.585430 0.977070 -0.546180
O64   O     O_R   0.414570 0.853840 0.977070 -0.592593
O65   O     O_R   0.146160 0.414570 0.977070 -0.537622
O66   O     O_R   0.585430 0.146160 0.977070 -0.588910
O67   O     O_R   0.146160 0.585430 0.977070 -0.545857
O68   O     O_R   0.585430 0.853840 0.977070 -0.566773
O69   O     O_R   0.853840 0.414570 0.977070 -0.539393
O70   O     O_R   0.414570 0.146160 0.977070 -0.566864
O71   O     O_R   0.353840 0.085430 0.477070 -0.588353
O72   O     O_3   0.500000 1.000000 0.499990 -0.515448
O73   O     O_R   0.914570 0.353840 0.477070 -0.545972
O74   O     O_R   0.646160 0.914570 0.477070 -0.593206
O75   O     O_R   0.085430 0.646160 0.477070 -0.537733
O76   O     O_R   0.646160 0.085430 0.477070 -0.567344
O77   O     O_R   0.085430 0.353840 0.477070 -0.539807
O78   O     O_R   0.353840 0.914570 0.477070 -0.566103
O79   O     O_R   0.914570 0.646160 0.477070 -0.545442
O80   O     O_R   0.085450 0.353820 0.022910 -0.686250
O81   O     O_R   0.646180 0.085450 0.022910 -0.666063
O82   O     O_R   0.914550 0.646180 0.022910 -0.678494
O83   O     O_3   0.000000 0.500000 0.499990 -0.528816
O84   O     O_R   0.353820 0.914550 0.022910 -0.661250
O85   O     O_R   0.914550 0.353820 0.022910 -0.670361
O86   O     O_R   0.353820 0.085450 0.022910 -0.684379
O87   O     O_R   0.085450 0.646180 0.022910 -0.675791
O88   O     O_R   0.646180 0.914550 0.022910 -0.673821
O89   O     O_R   0.585450 0.853820 0.522910 -0.661194
O90   O     O_R   0.146180 0.585450 0.522910 -0.686280
O91   O     O_R   0.414550 0.146180 0.522910 -0.666430
O92   O     O_R   0.853820 0.414550 0.522910 -0.678516
O93   O     O_R   0.414550 0.853820 0.522910 -0.684448
O94   O     O_R   0.060740 0.500000 0.912560 -0.591824
O95   O     O_R   0.853820 0.585450 0.522910 -0.676098
O96   O     O_R   0.585450 0.146180 0.522910 -0.673848
O97   O     O_R   0.146180 0.414550 0.522910 -0.670100
O98   O     O_2   0.497986 0.617198 0.985955 -0.264604
O99   O     O_2   0.408831 0.623932 0.933054 -0.198488
O100  O     O_3   0.480781 0.739338 0.950468 -0.502223
O101  O     O_2   0.302045 0.388760 0.868171 -0.185499
O102  O     O_2   0.190296 0.322230 0.884126 -0.195732
O103  O     O_3   0.203364 0.455049 0.907503 -0.435369
O104  O     O_2   0.500192 0.379190 0.987955 -0.268351
O105  O     O_R   0.500000 0.060740 0.912560 -0.562756
O106  O     O_2   0.588651 0.376238 0.934499 -0.219889
O107  O     O_3   0.518955 0.259029 0.950585 -0.534807
O108  O     O_2   0.691572 0.600708 0.871859 -0.177006
O109  O     O_2   0.802530 0.671456 0.883685 -0.185482
O110  O     O_3   0.795833 0.539837 0.909215 -0.435169
O111  O     O_2   0.587193 0.817964 0.902344 -0.233009
O112  O     O_2   0.693413 0.763699 0.872019 -0.154678
O113  O     O_3   0.573467 0.688686 0.874256 -0.448251
O114  O     O_2   0.736761 0.502113 0.016136 -0.354803
O115  O     O_2   0.702118 0.457729 0.951542 -0.189054
O116  O     O_R   0.939260 0.500000 0.912560 -0.596873
O117  O     O_3   0.599689 0.492566 0.001090 -0.460724
O118  O     O_2   0.401714 0.169176 0.900346 -0.220076
O119  O     O_2   0.292006 0.221377 0.873044 -0.120442
O120  O     O_3   0.412576 0.294007 0.867067 -0.420414
O121  O     O_2   0.262604 0.496383 0.015157 -0.352626
O122  O     O_2   0.294951 0.541913 0.950477 -0.193027
O123  O     O_3   0.399005 0.505492 0.998450 -0.457499
O124  O     O_2   0.898977 0.191089 0.371719 -0.176751
O125  O     O_2   0.828304 0.302103 0.383700 -0.185539
O126  O     O_3   0.959968 0.295366 0.409206 -0.435524
O127  O     O_R   0.500000 0.939260 0.912560 -0.564515
O128  O     O_2   0.882677 0.997751 0.485100 -0.265285
O129  O     O_2   0.875634 0.907688 0.432508 -0.197744
O130  O     O_3   0.760409 0.980159 0.449756 -0.500755
O131  O     O_2   0.110410 0.801908 0.368497 -0.186095
O132  O     O_2   0.177361 0.690339 0.384124 -0.195644
O133  O     O_3   0.044580 0.702927 0.407616 -0.434808
O134  O     O_2   0.120612 0.000086 0.488961 -0.268076
O135  O     O_2   0.123289 0.087569 0.435188 -0.221529
O136  O     O_3   0.240643 0.018307 0.451423 -0.535262
O137  O     O_2   0.997749 0.237287 0.516300 -0.354940
O138  O     O_R   0.560740 0.000000 0.412560 -0.564770
O139  O     O_2   0.042059 0.201663 0.451793 -0.189153
O140  O     O_3   0.007184 0.100000 0.501609 -0.461246
O141  O     O_2   0.329353 0.902626 0.400584 -0.217919
O142  O     O_2   0.277113 0.792991 0.372984 -0.118947
O143  O     O_3   0.204034 0.913387 0.367835 -0.421115
O144  O     O_2   0.003410 0.762993 0.515172 -0.352669
O145  O     O_2   0.957998 0.794612 0.450413 -0.193164
O146  O     O_3   0.994272 0.899212 0.498257 -0.457469
O147  O     O_2   0.681483 0.087042 0.402225 -0.233634
O148  O     O_2   0.735326 0.193426 0.372065 -0.156901
S1    S     S_3+6 0.441007 0.663725 0.967230 0.091843
S2    S     S_3+6 0.835996 0.940520 0.466607 0.092915
S3    S     S_3+6 0.123672 0.745174 0.399106 0.162272
S4    S     S_3+6 0.165183 0.057395 0.469081 0.059953
S5    S     S_3+6 0.043037 0.182835 0.494453 0.086771
S6    S     S_3+6 0.259920 0.861616 0.394819 0.179451
S7    S     S_3+6 0.957865 0.816149 0.492753 0.088589
S8    S     S_3+6 0.751026 0.128118 0.396833 0.162984
S9    S     S_3+6 0.366220 0.928932 0.854175 0.087970
S10   S     S_3+6 0.971509 0.353045 0.856330 0.079362
S11   S     S_3+6 0.634033 0.065884 0.852815 0.094737
S12   S     S_3+6 0.245333 0.375790 0.898928 0.162269
S13   S     S_3+6 0.026266 0.647357 0.856350 0.080240
S14   S     S_3+6 0.852445 0.525437 0.356511 0.079898
S15   S     S_3+6 0.569256 0.867069 0.352921 0.089538
S16   S     S_3+6 0.146830 0.471065 0.356166 0.079432
S17   S     S_3+6 0.432047 0.134795 0.354040 0.093333
S18   S     S_3+6 0.702408 0.928501 0.794041 0.118637
S19   S     S_3+6 0.166352 0.637655 0.791046 0.113535
S20   S     S_3+6 0.291978 0.060564 0.793914 0.129365
S21   S     S_3+6 0.833165 0.363234 0.790419 0.116416
S22   S     S_3+6 0.136333 0.332217 0.290290 0.114917
S23   S     S_3+6 0.557831 0.334494 0.968325 0.061639
S24   S     S_3+6 0.566108 0.205693 0.294122 0.119405
S25   S     S_3+6 0.861483 0.665064 0.291187 0.114881
S26   S     S_3+6 0.434070 0.795228 0.293876 0.128897
S27   S     S_3+6 0.750547 0.617201 0.900790 0.172879
S28   S     S_3+6 0.628170 0.748320 0.897003 0.163132
S29   S     S_3+6 0.682665 0.456781 0.994153 0.087002
S30   S     S_3+6 0.360891 0.238671 0.894501 0.179040
S31   S     S_3+6 0.316021 0.541958 0.992849 0.088764
S32   S     S_3+6 0.882556 0.250125 0.400728 0.172841
Zn1   Zn    Zn3+2 1.000000 0.586730 0.032740 0.931459
Zn2   Zn    Zn3+2 0.500000 0.913250 0.967240 1.105259
Zn3   Zn    Zn3+2 0.086750 0.500000 0.967240 1.126463
Zn4   Zn    Zn3+2 0.500000 0.086750 0.967240 1.102425
Zn5   Zn    Zn3+2 0.413250 1.000000 0.467240 1.103522
Zn6   Zn    Zn3+2 1.000000 0.413250 0.467240 1.124455
Zn7   Zn    Zn3+2 0.586750 1.000000 0.467240 1.104492
Zn8   Zn    Zn3+2 0.000000 0.586750 0.467240 1.126298
Zn9   Zn    Zn3+2 0.413270 1.000000 0.032740 0.929211
Zn10  Zn    Zn3+2 0.000000 0.413270 0.032740 0.949633
Zn11  Zn    Zn3+2 0.586730 1.000000 0.032740 0.936997
Zn12  Zn    Zn3+2 0.500000 0.086730 0.532740 0.937828
Zn13  Zn    Zn3+2 0.913270 0.500000 0.532740 0.931452
Zn14  Zn    Zn3+2 0.500000 0.913270 0.532740 0.928257
Zn15  Zn    Zn3+2 0.086730 0.500000 0.532740 0.949758
Zn16  Zn    Zn3+2 0.913250 0.500000 0.967240 1.124101

loop_
_geom_bond_atom_site_label_1
_geom_bond_atom_site_label_2
_ccdc_geom_bond_type
O83   Zn13  S    
C168  C175  A    
C186  C223  S    
O83   Zn6   S    
C103  H12   S    
C153  C166  A    
O49   S24   S    
C34   S28   S    
C113  C151  A    
C154  C161  A    
C115  H84   S    
C33   H159  S    
C128  H117  S    
C134  H131  S    
C188  O68   A    
C7    C212  A    
C100  H18   S    
O121  S31   D    
C5    C210  A    
C131  C171  S    
C178  O35   A    
C35   C192  A    
C107  H34   S    
C46   C181  A    
C193  O92   A    
C2    C55   A    
C81   H196  S    
O72   Zn5   S    
C196  O76   A    
O13   Zn5   S    
H73   O42   S    
C177  C182  S    
C97   H11   S    
C8    C26   A    
C108  C109  S    
C30   C38   S    
C54   C214  A    
O1    Zn1   S    
C110  C111  S    
O143  S6    S    
C53   C60   A    
H59   O146  S    
O4    S9    D    
O88   Zn11  S    
C22   C91   S    
O55   S26   S    
C71   H172  S    
O32   S18   S    
C49   S10   S    
C115  C165  S    
C3    C184  S    
C138  H140  S    
C112  O105  A    
C88   H208  S    
C141  C145  A    
C72   C73   S    
C193  O73   A    
O45   S22   S    
O138  Zn7   S    
O11   S11   D    
C62   H147  S    
C200  C208  A    
O110  S27   S    
O1    Zn10  S    
O83   Zn15  S    
C54   S16   S    
C16   C71   S    
C186  O66   A    
O128  S2    D    
C104  C105  S    
O117  S29   S    
C152  C165  A    
O5    S9    D    
C184  O64   A    
C155  C162  A    
O56   Zn10  S    
O141  S6    D    
C39   H214  S    
C104  H26   S    
O17   S14   D    
C123  H95   S    
C76   H175  S    
C125  C168  S    
C73   H166  S    
C201  C219  A    
H66   O22   S    
C142  S26   S    
O127  Zn2   S    
O81   Zn11  S    
C147  H124  S    
H47   O110  S    
C196  O96   A    
C21   C29   A    
O142  S6    D    
C31   C37   S    
C7    C197  S    
C80   H183  S    
C75   C76   S    
C31   C207  S    
C137  H127  S    
C121  H100  S    
C89   H205  S    
C14   C64   S    
C12   C20   A    
O125  S32   D    
O73   Zn6   S    
C31   H112  S    
O107  S23   S    
C75   H177  S    
C112  O127  A    
O61   Zn9   S    
C18   C223  A    
O18   S14   D    
O82   Zn1   S    
C94   H3    S    
O104  S23   D    
C98   H8    S    
C74   H180  S    
C46   C203  A    
C67   H165  S    
C126  H105  S    
C200  C218  A    
C120  H87   S    
C38   C200  S    
C154  C167  A    
C42   S4    S    
C32   C206  S    
C160  C164  A    
C44   S6    S    
C39   C47   S    
C116  H83   S    
O29   S17   S    
C4    C196  S    
C129  H114  S    
O41   S21   D    
C14   C19   A    
C195  O90   A    
C19   C224  A    
C11   C193  S    
C69   H162  S    
C51   C181  A    
C99   H7    S    
C139  C140  S    
C9    C195  S    
O72   Zn7   S    
C6    C211  A    
O100  S1    S    
C95   H223  S    
C66   H151  S    
C150  H141  S    
C209  C217  A    
C127  H104  S    
O114  S29   D    
O144  S7    D    
C114  H38   S    
O137  S5    D    
O84   Zn9   S    
C131  H125  S    
C144  H90   S    
C157  C171  A    
C158  C172  A    
O28   S17   D    
C183  C222  S    
O118  S30   D    
C169  C176  A    
O37   S20   D    
C113  C203  A    
C40   H2    S    
C69   C70   S    
C138  H139  S    
C191  O91   A    
C57   C161  A    
C212  C213  A    
C98   C99   S    
C151  H142  S    
C92   H217  S    
C125  H107  S    
C60   C148  S    
O80   Zn10  S    
O52   S25   S    
O98   S1    D    
C110  H41   S    
O79   Zn8   S    
C51   S13   S    
C15   C18   A    
C182  O59   A    
C184  O84   A    
O22   S15   S    
C204  C221  A    
C160  C173  A    
C101  C150  A    
C73   H168  S    
O134  S4    D    
C128  C129  S    
H77   O55   S    
C97   C98   S    
C66   H153  S    
C140  H133  S    
C85   C86   S    
C9    C215  A    
C42   H24   S    
C32   C36   S    
C79   C170  A    
C185  O65   A    
C115  H85   S    
C2    C68   A    
C18   C77   S    
O58   Zn12  S    
C41   C215  S    
C78   C80   S    
C13   C57   A    
O94   Zn3   S    
C89   H207  S    
C115  C116  S    
C133  H119  S    
C109  H30   S    
H45   O107  S    
O30   S18   D    
C70   H160  S    
O61   Zn11  S    
C91   H219  S    
C85   H200  S    
H55   O136  S    
O72   Zn12  S    
C86   H199  S    
C108  H32   S    
C34   C204  S    
C32   S23   S    
C86   H198  S    
C117  H78   S    
C107  C108  S    
C132  H121  S    
C79   S18   S    
C145  H101  S    
C33   S27   S    
O16   S13   S    
C199  O95   A    
C152  C161  A    
O140  S5    S    
C188  C221  S    
C190  O70   A    
C148  O138  A    
C128  C169  S    
C75   H178  S    
C134  C172  S    
C87   H210  S    
O61   Zn2   S    
C83   H190  S    
C99   H5    S    
H74   O45   S    
O44   S22   D    
C54   C59   A    
C65   H155  S    
O12   S11   S    
H52   O126  S    
C198  O78   A    
C48   S9    S    
C127  H102  S    
C131  H123  S    
C91   C92   S    
C136  H130  S    
O86   Zn9   S    
C130  H111  S    
C25   C26   A    
C50   C56   A    
C4    C209  A    
C76   H174  S    
O126  S32   S    
H53   O130  S    
C96   H220  S    
C90   C181  A    
C15   C67   S    
C40   C216  S    
C78   H185  S    
C17   C74   S    
C88   C89   S    
C80   H182  S    
C157  C164  A    
H71   O36   S    
O67   Zn3   S    
C158  C163  A    
O27   S17   D    
C145  C154  A    
C25   C97   S    
H43   O100  S    
C183  O63   A    
O53   S26   D    
C82   C83   S    
C132  H122  S    
C47   C209  S    
C77   H188  S    
C179  O57   A    
O124  S32   D    
H67   O26   S    
C129  C130  S    
O26   S16   S    
C63   H144  S    
C35   C170  A    
C118  H92   S    
C120  H86   S    
C39   C217  S    
H56   O140  S    
C40   S2    S    
C106  H20   S    
C136  C137  S    
C134  H132  S    
O21   S15   D    
C116  H82   S    
C111  H40   S    
C179  O46   A    
C175  C179  S    
C2    C135  A    
H50   O120  S    
C107  H33   S    
C44   C211  S    
C70   H158  S    
C139  H138  S    
C20   C84   S    
H69   O29   S    
C71   C72   S    
O95   Zn13  S    
C42   C213  S    
C66   H152  S    
O38   S20   D    
O99   S1    D    
C10   C216  A    
O1    Zn3   S    
C86   H197  S    
C189  O85   A    
C103  H14   S    
C97   H10   S    
C117  H80   S    
C93   H212  S    
C34   H170  S    
C106  H21   S    
C61   C62   S    
C45   S7    S    
O103  S12   S    
C122  H97   S    
C176  C180  S    
C204  C205  A    
O123  S31   S    
O23   S16   D    
C171  C177  A    
O61   Zn4   S    
H51   O123  S    
C19   C81   S    
O10   S11   D    
C70   H161  S    
C85   H201  S    
O90   Zn15  S    
C172  C176  A    
C187  C218  S    
C96   H221  S    
C87   C88   S    
C49   C203  A    
C120  H88   S    
C47   S8    S    
O47   S24   D    
C189  O69   A    
O129  S2    D    
C5    C199  S    
C130  H109  S    
C41   H13   S    
C77   C78   S    
O59   Zn13  S    
C182  O62   A    
C166  C175  A    
C148  O13   A    
C178  O56   A    
C76   H176  S    
C72   H169  S    
O43   S22   D    
C10   C194  S    
C167  C174  A    
C50   S11   S    
C47   H68   S    
O46   Zn9   S    
C197  O77   A    
C31   S12   S    
C205  C222  A    
H60   O3    S    
C199  O79   A    
C188  O88   A    
C12   C218  A    
C80   H184  S    
C105  H23   S    
C159  O24   A    
C190  O86   A    
C61   H150  S    
C59   C159  S    
C137  H126  S    
C121  H99   S    
C146  C155  A    
C95   C96   S    
C156  C163  A    
C24   C142  A    
C16   C17   A    
C165  C174  A    
C124  C143  A    
C82   H193  S    
C13   C141  A    
H64   O16   S    
O106  S23   D    
C11   C217  A    
O133  S3    S    
O93   Zn14  S    
C94   H4    S    
O64   Zn2   S    
O78   Zn5   S    
C22   C28   A    
C55   C60   A    
C126  H106  S    
C93   H215  S    
C16   C221  A    
C93   H213  S    
C36   S29   S    
O57   Zn11  S    
C40   C45   S    
C121  C167  S    
C87   H211  S    
O34   S19   D    
O116  Zn16  S    
C29   C110  S    
O1    Zn16  S    
C83   H191  S    
C84   C85   S    
O74   Zn7   S    
C79   C147  A    
C24   C53   A    
H75   O49   S    
O146  S7    S    
O101  S12   D    
C127  H103  S    
C111  H39   S    
C159  O2    A    
O87   Zn1   S    
C62   C63   S    
C13   C52   A    
O91   Zn12  S    
O31   S18   D    
C155  C168  A    
O8    S10   D    
C138  C173  S    
C201  C207  A    
C38   H203  S    
C50   C170  A    
C51   C58   A    
C43   S5    S    
C147  C156  A    
C121  C122  S    
O9    S10   S    
O113  S28   S    
C37   H192  S    
C143  C152  A    
C117  H81   S    
C8    C213  A    
C84   H202  S    
O72   Zn14  S    
C125  C126  S    
C41   C44   S    
C119  H91   S    
C14   C219  A    
C42   C43   S    
O25   S16   D    
C131  C132  S    
C110  H42   S    
O6    S9    S    
C9    C27   A    
O24   Zn6   S    
C10   C28   A    
C135  S24   S    
H65   O19   S    
C142  C146  A    
C150  C158  A    
C123  H96   S    
C180  O58   A    
C91   H218  S    
C72   H171  S    
C73   H167  S    
C194  O89   A    
C119  C120  S    
O109  S27   D    
C140  H134  S    
C195  O75   A    
C105  C106  S    
C55   S17   S    
H54   O133  S    
C102  H16   S    
C7    C25   A    
C153  C162  A    
C198  O93   A    
C64   C65   S    
C105  H25   S    
C38   S31   S    
C137  H128  S    
O33   S19   D    
C89   H206  S    
O14   S13   D    
C126  C127  S    
C210  C216  A    
C133  H118  S    
C109  H29   S    
C92   C93   S    
C111  C114  S    
O105  Zn4   S    
C94   C95   S    
C35   C163  A    
C48   C192  A    
C138  C139  S    
C24   C68   A    
O135  S4    D    
O145  S7    D    
O108  S27   D    
C74   H179  S    
H48   O113  S    
C103  H15   S    
H61   O6    S    
C92   H216  S    
O102  S12   D    
O51   S25   D    
C37   C201  S    
C28   C107  S    
O85   Zn10  S    
C64   H156  S    
O20   S15   D    
C114  H36   S    
O15   S13   D    
C26   C100  S    
C191  O71   A    
C211  C215  A    
C21   C87   S    
C109  H28   S    
C4    C21   A    
O42   S21   S    
C129  H115  S    
C81   H195  S    
C27   C104  S    
O75   Zn8   S    
C83   H189  S    
C69   H163  S    
C101  C192  A    
C43   H35   S    
C81   C82   S    
C124  C214  A    
C65   H154  S    
C32   H148  S    
O147  S8    D    
O76   Zn7   S    
O115  S29   D    
C95   H224  S    
C3    C208  A    
O3    S8    S    
C114  H37   S    
C197  O97   A    
C8    C191  S    
C202  C220  A    
O111  S28   D    
C149  H135  S    
H49   O117  S    
C156  C169  A    
O39   S20   S    
C116  C117  S    
O92   Zn13  S    
H70   O32   S    
C144  C153  A    
C118  C119  S    
C17   C222  A    
O36   S19   S    
O69   Zn16  S    
C5    C22   A    
C132  C133  S    
C84   H204  S    
C185  C224  S    
C119  H89   S    
C125  H108  S    
C187  O87   A    
C128  H116  S    
C190  C219  S    
H58   O143  S    
C189  C220  S    
C143  H79   S    
O54   S26   D    
H44   O103  S    
C30   C208  S    
C207  C224  A    
C53   S15   S    
O7    S10   D    
C46   C164  A    
C174  C178  S    
C77   H187  S    
C123  H94   S    
C180  O60   A    
C30   H1    S    
O68   Zn2   S    
C102  C103  S    
C36   C202  S    
O71   Zn5   S    
C90   C149  A    
O89   Zn14  S    
O70   Zn4   S    
O136  S4    S    
C140  H136  S    
C63   H143  S    
C41   S3    S    
C118  H93   S    
O83   Zn8   S    
C45   H57   S    
C74   C75   S    
C63   H145  S    
C3    C20   A    
C146  H113  S    
C12   C61   S    
C64   H157  S    
C6    C198  S    
O66   Zn4   S    
C134  C136  S    
C37   S30   S    
O48   S24   D    
C133  H120  S    
C61   H149  S    
C118  C166  S    
C49   C58   A    
C67   C69   S    
O19   S14   S    
C139  H137  S    
C43   C212  S    
C52   C59   A    
C67   H164  S    
C194  O74   A    
C173  C177  A    
C206  C223  A    
C100  C102  S    
C33   C34   S    
H63   O12   S    
C186  O81   A    
C102  H17   S    
C106  H22   S    
H72   O39   S    
C187  O67   A    
C100  H19   S    
O62   Zn15  S    
C122  H98   S    
C124  S22   S    
C135  C144  A    
O112  S28   D    
C39   S32   S    
C101  S20   S    
C23   C27   A    
O50   S25   D    
O122  S31   D    
C99   H6    S    
H76   O52   S    
C44   H46   S    
C96   H222  S    
C48   C56   A    
H62   O9    S    
C88   H209  S    
O40   S21   D    
C185  O80   A    
O130  S2    S    
C136  H129  S    
C62   H146  S    
C130  H110  S    
O119  S30   D    
C68   C162  A    
O35   Zn1   S    
C82   H194  S    
O131  S3    D    
C45   C210  S    
C23   C94   S    
C71   H173  S    
C151  C160  A    
O96   Zn12  S    
C122  C123  S    
C108  H31   S    
C1    C58   S    
C113  S21   S    
O77   Zn6   S    
O97   Zn15  S    
C98   H9    S    
C6    C23   A    
C52   S14   S    
C1    O94   A    
O65   Zn3   S    
C36   H181  S    
C1    O116  A    
O2    Zn8   S    
C90   S19   S    
O139  S5    D    
O60   Zn14  S    
C33   C205  S    
C57   C214  A    
C11   C29   A    
C65   C66   S    
C202  C206  A    
C104  H27   S    
O132  S3    D    
O120  S30   S    
O63   Zn16  S    
C78   H186  S    
C183  O82   A    
C141  S25   S    
O148  S8    D    
C149  C157  A    
C15   C220  A    
C56   C112  S    
C30   S1    S    
