data_mof_unit_50273.cif
_audit_creation_date              2012-12-10T17:51:59-0500
_audit_creation_method            fapswitch 2.2
_symmetry_space_group_name_H-M    P1
_symmetry_Int_Tables_number       1
_space_group_crystal_system       triclinic
_cell_length_a                    14.7187
_cell_length_b                    14.732555
_cell_length_c                    19.371217
_cell_angle_alpha                 75.929686
_cell_angle_beta                  102.701625
_cell_angle_gamma                 114.776946
_cell_volume                      3666.08595292

loop_
_atom_site_label
_atom_site_type_symbol
_atom_type_description
_atom_site_fract_x
_atom_site_fract_y
_atom_site_fract_z
_atom_type_partial_charge
C1    C     C_R   0.880492 0.312505 0.509871 0.808786
C2    C     C_R   0.119549 0.687658 0.489369 0.813848
C3    C     C_R   0.812828 0.206495 0.506559 -0.027430
C4    C     C_R   0.187169 0.794878 0.487296 -0.062070
C5    C     C_R   0.776670 0.043347 0.477301 -0.174916
C6    C     C_R   0.220809 0.965616 0.500035 -0.167047
C7    C     C_R   0.844982 0.140333 0.487307 -0.175082
C8    C     C_R   0.153149 0.866369 0.495976 -0.125285
C9    C     C_R   0.711085 0.175849 0.513515 -0.217958
C10   C     C_R   0.289269 0.823694 0.482210 -0.224849
C11   C     C_R   0.638883 0.081310 0.497921 0.093509
C12   C     C_R   0.359813 0.923088 0.487346 0.095805
C13   C     C_R   0.674110 0.013533 0.482160 0.137867
C14   C     C_R   0.323716 0.994092 0.496857 0.148051
C15   C     C_R   0.533199 0.052730 0.496747 0.070046
C16   C     C_R   0.465037 0.953108 0.485278 0.062181
C17   C     C_R   0.504351 0.887277 0.471631 -0.184230
C18   C     C_R   0.493198 0.121474 0.504375 -0.194628
C19   C     C_R   0.606633 0.917439 0.469764 -0.164133
C20   C     C_R   0.390570 0.092535 0.504132 -0.194841
C21   C     C_R   0.695582 0.652397 0.374802 0.236964
C22   C     C_R   0.314257 0.390091 0.646544 0.238136
C23   C     C_R   0.000478 0.501123 0.632313 0.843563
C24   C     C_R   0.999355 0.498609 0.367596 0.851523
C25   C     C_R   0.789133 0.638899 0.396418 0.484915
C26   C     C_R   0.216710 0.382373 0.613670 0.546431
C27   C     C_R   0.716697 0.507010 0.492636 -0.075869
C28   C     C_R   0.280521 0.478800 0.505067 -0.085855
C29   C     C_R   0.622843 0.518885 0.471448 -0.073593
C30   C     C_R   0.371511 0.460763 0.529161 -0.064826
C31   C     C_R   0.610413 0.579444 0.404925 -0.035793
C32   C     C_R   0.389461 0.419705 0.602416 -0.044919
C33   C     C_R   0.542081 0.477811 0.514207 0.118688
C34   C     C_R   0.447630 0.488150 0.484629 0.123460
C35   C     C_R   0.432415 0.525274 0.411024 -0.237962
C36   C     C_R   0.555369 0.434864 0.586728 -0.250229
C37   C     C_R   0.512927 0.570890 0.372004 -0.051126
C38   C     C_R   0.480706 0.406426 0.629724 -0.072219
C39   C     C_R   0.089683 0.514855 0.757390 0.660906
C40   C     C_R   0.916533 0.502696 0.239677 0.655416
C41   C     C_R   0.088976 0.513756 0.829380 -0.203828
C42   C     C_R   0.917300 0.502371 0.167987 -0.205300
C43   C     C_R   0.000579 0.501463 0.853426 -0.043655
C44   C     C_R   0.999748 0.497248 0.146389 -0.041995
C45   C     C_R   0.912779 0.490963 0.803861 -0.128011
C46   C     C_R   0.081670 0.491971 0.198104 -0.133071
C47   C     C_R   0.913178 0.491673 0.731821 -0.259402
C48   C     C_R   0.081076 0.491912 0.270016 -0.267342
C49   C     C_R   0.001271 0.502728 0.708050 -0.152155
C50   C     C_R   0.998794 0.497611 0.291578 -0.159684
C51   C     C_R   0.999971 0.497749 0.070204 0.453546
C52   C     C_R   0.000286 0.500000 0.929763 0.454732
Cu1   Cu    Cu3+1 0.081740 0.475680 0.518680 1.047829
Cu2   Cu    Cu3+1 0.918260 0.524320 0.481320 1.033591
H1    H     H_    0.499244 0.603590 0.316223 0.202548
H2    H     H_    0.495630 0.372867 0.684921 0.210918
H3    H     H_    0.268900 0.523942 0.453673 0.150457
H4    H     H_    0.727014 0.452676 0.539004 0.151113
H5    H     H_    0.359950 0.523725 0.382967 0.134453
H6    H     H_    0.624667 0.425678 0.612309 0.135430
H7    H     H_    0.158131 0.523274 0.866122 0.191587
H8    H     H_    0.853034 0.506457 0.129371 0.195323
H9    H     H_    0.843444 0.481507 0.820699 0.182827
H10   H     H_    0.146327 0.487795 0.183146 0.178104
H11   H     H_    0.844145 0.482300 0.694898 0.173757
H12   H     H_    0.145489 0.488117 0.308619 0.175264
H13   H     H_    0.633169 0.864961 0.458271 0.196188
H14   H     H_    0.363446 0.147686 0.510455 0.156738
H15   H     H_    0.311768 0.765617 0.476440 0.151138
H16   H     H_    0.690550 0.228225 0.530551 0.139088
H17   H     H_    0.075234 0.844727 0.502444 0.191868
H18   H     H_    0.921724 0.164668 0.477147 0.193510
H19   H     H_    0.803365 0.992849 0.463108 0.174414
H20   H     H_    0.193105 0.019578 0.507641 0.157358
H21   H     H_    0.458191 0.812220 0.460186 0.156791
H22   H     H_    0.538799 0.199537 0.509110 0.146463
N1    N     N_R   0.917757 0.496364 0.952457 -0.215659
N2    N     N_R   0.082455 0.501169 0.047551 -0.219884
N3    N     N_R   0.917657 0.495351 0.021270 -0.215155
N4    N     N_R   0.082607 0.502326 0.978696 -0.218238
N5    N     N_R   0.795420 0.560800 0.453240 -0.248449
N6    N     N_R   0.204580 0.439200 0.546760 -0.247465
O1    O     O_R   0.977910 0.338110 0.524620 -0.507512
O2    O     O_R   0.022090 0.661890 0.475380 -0.525954
O3    O     O_R   0.839850 0.379180 0.493080 -0.603871
O4    O     O_R   0.160150 0.620820 0.506920 -0.592403
O5    O     O_R   0.069040 0.479450 0.615630 -0.491075
O6    O     O_R   0.930960 0.520550 0.384370 -0.463029
O7    O     O_R   0.930990 0.520520 0.584090 -0.616356
O8    O     O_R   0.069010 0.479480 0.415910 -0.616224
F1    F     F_    0.177621 0.530401 0.735939 -0.614247
F2    F     F_    0.834624 0.507099 0.257803 -0.620843
S1    S     S_3+6 0.115115 0.269346 0.644454 0.080519
O9    O     O_2   0.152276 0.203296 0.705858 -0.226284
O10   O     O_2   0.037026 0.291151 0.668255 -0.255320
O11   O     O_3   0.062342 0.202868 0.576886 -0.572924
H23   H     H_    0.019669 0.134225 0.599447 0.368347
S2    S     S_3+6 0.894988 0.731755 0.351035 0.113125
O12   O     O_2   0.856786 0.768736 0.275643 -0.182202
O13   O     O_2   0.943198 0.819570 0.391076 -0.297723
O14   O     O_3   0.987447 0.700223 0.340851 -0.509810
H24   H     H_    0.040315 0.764751 0.321746 0.356473
S3    S     S_3+6 0.683564 0.767181 0.321896 0.044351
O15   O     O_2   0.663998 0.759149 0.243667 -0.219838
O16   O     O_2   0.596561 0.781313 0.339982 -0.335179
O17   O     O_3   0.786770 0.871763 0.336711 -0.461921
H25   H     H_    0.772489 0.928489 0.303610 0.379242
S4    S     S_3+6 0.343001 0.372310 0.741944 0.074061
O18   O     O_2   0.357033 0.273733 0.769030 -0.255201
O19   O     O_2   0.439096 0.457966 0.763037 -0.275000
O20   O     O_3   0.249665 0.370933 0.779577 -0.418713
H26   H     H_    0.272343 0.361710 0.831942 0.384538

loop_
_geom_bond_atom_site_label_1
_geom_bond_atom_site_label_2
_ccdc_geom_bond_type
C15   C18   A    
Cu2   O6    S    
S1    O9    D    
C27   C29   A    
C2    O2    A    
O20   H26   S    
C41   H7    S    
C4    C8    A    
Cu2   O2    S    
C39   C41   A    
C28   H3    S    
C21   C31   A    
O14   H24   S    
C22   C32   A    
C35   C37   A    
C3    C7    A    
C20   H14   S    
N2    N4    A    
C43   C52   S    
C23   C49   S    
O17   H25   S    
C15   C16   A    
C29   C33   A    
C33   C36   A    
S4    O18   D    
C35   H5    S    
C34   C35   A    
C11   C15   A    
C12   C16   A    
C16   C17   A    
C23   O7    A    
C19   H13   S    
Cu1   O4    S    
C32   C38   A    
C42   H8    S    
C5    C13   A    
C26   S1    S    
C40   C42   A    
C26   N6    A    
C23   O5    A    
C25   N5    A    
C41   C43   A    
C42   C44   A    
C39   F1    S    
C44   C46   A    
C6    H20   S    
C45   C47   A    
C24   C50   S    
C46   C48   A    
C30   C34   A    
C28   N6    A    
C14   C20   A    
C27   N5    A    
C9    H16   S    
Cu2   O7    S    
Cu1   O5    S    
C7    H18   S    
C5    C7    A    
C13   C19   A    
C6    C8    A    
Cu1   Cu2   S    
C45   H9    S    
C31   C37   A    
C46   H10   S    
Cu1   N6    S    
C1    C3    S    
C37   H1    S    
C2    C4    S    
C3    C9    A    
C6    C14   A    
C9    C11   A    
O11   H23   S    
C33   C34   A    
N1    N3    A    
S3    O16   D    
C40   F2    S    
C48   C50   A    
C43   C45   A    
C10   C12   A    
C44   C51   S    
C39   C49   A    
C12   C14   A    
S1    O11   S    
S2    O13   D    
C1    O3    A    
C4    C10   A    
C52   N1    A    
S3    O15   D    
C21   C25   A    
C8    H17   S    
C18   H22   S    
C24   O6    A    
C5    H19   S    
C36   H6    S    
C27   H4    S    
C24   O8    A    
Cu2   O3    S    
C1    O1    A    
S2    O14   S    
S4    O20   S    
Cu1   O1    S    
C36   C38   A    
C51   N2    A    
C29   C31   A    
C47   C49   A    
C30   C32   A    
C11   C13   A    
C40   C50   A    
C28   C30   A    
C17   C19   A    
S4    O19   D    
C2    O4    A    
S3    O17   S    
C18   C20   A    
C22   S4    S    
C51   N3    A    
C21   S3    S    
C10   H15   S    
C25   S2    S    
C38   H2    S    
S1    O10   D    
S2    O12   D    
C22   C26   A    
Cu1   O8    S    
C17   H21   S    
C48   H12   S    
C52   N4    A    
C47   H11   S    
Cu2   N5    S    
