data_mof_unit_25328.cif
_audit_creation_date              2012-12-10T18:19:55-0500
_audit_creation_method            fapswitch 2.2
_symmetry_space_group_name_H-M    P1
_symmetry_Int_Tables_number       1
_space_group_crystal_system       triclinic
_cell_length_a                    14.93409
_cell_length_b                    14.176473
_cell_length_c                    14.121516
_cell_angle_alpha                 90.961768
_cell_angle_beta                  89.008518
_cell_angle_gamma                 89.338173
_cell_volume                      2988.62619067

loop_
_atom_site_label
_atom_site_type_symbol
_atom_type_description
_atom_site_fract_x
_atom_site_fract_y
_atom_site_fract_z
_atom_type_partial_charge
C1    C     C_R   0.327137 0.500370 0.499661 0.933269
C2    C     C_R   0.672922 0.499326 0.501769 0.950973
C3    C     C_R   0.953426 0.500434 0.503761 0.026134
C4    C     C_R   0.046843 0.501532 0.502271 0.020297
C5    C     C_R   0.906236 0.556521 0.439383 0.137278
C6    C     C_R   0.094155 0.448604 0.569185 0.140729
C7    C     C_R   0.955577 0.394656 0.638308 -0.203633
C8    C     C_R   0.044736 0.613593 0.372973 -0.210153
C9    C     C_R   0.048456 0.396722 0.637566 -0.215157
C10   C     C_R   0.951866 0.613907 0.375617 -0.208825
C11   C     C_R   0.548570 0.795129 0.432011 0.222356
C12   C     C_R   0.453490 0.202366 0.568826 0.194562
C13   C     C_R   0.452654 0.800990 0.568358 0.182753
C14   C     C_R   0.545199 0.199377 0.429227 0.173735
C15   C     C_R   0.454023 0.901092 0.570802 -0.099006
C16   C     C_R   0.547435 0.098543 0.427738 -0.098357
C17   C     C_R   0.544808 0.896086 0.425694 -0.138936
C18   C     C_R   0.449145 0.102154 0.567061 -0.091100
C19   C     C_R   0.498822 0.949012 0.497609 -0.100139
C20   C     C_R   0.498396 0.049945 0.497304 -0.119228
C21   C     C_R   0.411363 0.954632 0.644685 0.379184
C22   C     C_R   0.595761 0.044843 0.357317 0.390198
C23   C     C_R   0.585138 0.945771 0.350394 0.350226
C24   C     C_R   0.398811 0.052551 0.635474 0.361058
C25   C     C_R   0.501236 0.499383 0.329321 0.884045
C26   C     C_R   0.499903 0.500669 0.670681 0.900265
C27   C     C_1   0.501611 0.498405 0.227810 -0.213697
C28   C     C_1   0.500078 0.501878 0.772173 -0.215627
C29   C     C_1   0.501506 0.498764 0.142520 -0.016044
C30   C     C_1   0.500313 0.501826 0.857482 -0.013433
C31   C     C_1   0.501080 0.499888 0.042654 -0.002506
C32   C     C_1   0.500690 0.500938 0.957371 0.006682
C33   C     C_R   0.813873 0.555466 0.440590 -0.346358
C34   C     C_R   0.186636 0.449974 0.567833 -0.357329
C35   C     C_R   0.768530 0.497537 0.503334 -0.171193
C36   C     C_R   0.231683 0.500818 0.498808 -0.169026
C37   C     C_R   0.813803 0.439431 0.566992 0.394026
C38   C     C_R   0.186419 0.549115 0.428003 0.437971
C39   C     C_R   0.907310 0.443916 0.569993 0.010831
C40   C     C_R   0.092912 0.555185 0.433615 -0.003028
H1    H     H_    0.776812 0.598904 0.391831 0.169450
H2    H     H_    0.223969 0.411747 0.620482 0.154197
H3    H     H_    0.922094 0.354641 0.692763 0.177359
H4    H     H_    0.078554 0.659225 0.323473 0.173758
H5    H     H_    0.084585 0.357399 0.690197 0.152036
H6    H     H_    0.915701 0.658573 0.327424 0.145359
N1    N     N_R   0.500000 0.750030 0.500000 -0.123623
N2    N     N_R   0.500000 0.249970 0.500000 -0.144477
O1    O     O_R   0.367850 0.580280 0.500020 -0.596859
O2    O     O_R   0.632150 0.419720 0.499980 -0.630076
O3    O     O_R   0.632150 0.580280 0.499980 -0.596861
O4    O     O_R   0.367850 0.419720 0.500020 -0.644063
O5    O     O_R   0.500000 0.580290 0.373720 -0.574352
O6    O     O_R   0.500000 0.419710 0.626280 -0.622991
O7    O     O_R   0.500000 0.580290 0.626280 -0.623680
O8    O     O_R   0.500000 0.419710 0.373720 -0.632011
Zn1   Zn    Zn3+2 0.500000 0.607200 0.500000 0.952389
Zn2   Zn    Zn3+2 0.500000 0.392800 0.500000 0.897998
O9    O     O_3   0.765734 0.389807 0.634285 -0.645036
C41   C     C_3   0.761053 0.293726 0.606199 0.085693
H7    H     H_    0.828495 0.259607 0.605151 0.128341
H8    H     H_    0.732396 0.285739 0.534386 0.153143
C42   C     C_3   0.700903 0.242979 0.677238 -0.297435
H9    H     H_    0.728413 0.251819 0.749447 0.222865
H10   H     H_    0.632766 0.275295 0.677117 0.237077
C43   C     C_3   0.694104 0.137861 0.653957 -0.990049
H11   H     H_    0.663072 0.127126 0.584022 0.265164
H12   H     H_    0.651435 0.103548 0.708259 0.267167
H13   H     H_    0.761521 0.103918 0.653241 0.269520
O10   O     O_3   0.235241 0.589312 0.354729 -0.643296
C44   C     C_3   0.225265 0.536653 0.269016 0.044202
H14   H     H_    0.262016 0.574868 0.212657 0.181774
H15   H     H_    0.154388 0.533826 0.246697 0.137564
C45   C     C_3   0.263960 0.435738 0.273452 -0.374680
H16   H     H_    0.332466 0.437621 0.301729 0.237114
H17   H     H_    0.221914 0.392566 0.321374 0.212885
C46   C     C_3   0.267042 0.388071 0.175760 -0.930521
H18   H     H_    0.198496 0.383389 0.146873 0.261862
H19   H     H_    0.295322 0.315638 0.181411 0.267025
H20   H     H_    0.310063 0.428374 0.126303 0.268371
N3    N     N_3   0.608457 0.738657 0.373810 -0.389828
H21   H     H_    0.586217 0.736095 0.304305 0.213750
H22   H     H_    0.672757 0.766877 0.376331 0.189864
N4    N     N_3   0.412921 0.252894 0.647126 -0.399746
H23   H     H_    0.373441 0.308397 0.623706 0.216799
H24   H     H_    0.462665 0.275364 0.692997 0.203969
N5    N     N_3   0.399568 0.753752 0.637769 -0.392165
H25   H     H_    0.355501 0.707565 0.605572 0.222427
H26   H     H_    0.440969 0.720207 0.685569 0.206431
N6    N     N_3   0.587438 0.247649 0.352863 -0.400221
H27   H     H_    0.627149 0.301788 0.378591 0.210927
H28   H     H_    0.538372 0.272207 0.307405 0.216660
O11   O     O_3   0.379319 0.911645 0.725930 -0.628009
C47   C     C_3   0.433163 0.936674 0.804211 0.126440
H29   H     H_    0.392574 0.926843 0.869898 0.161362
H30   H     H_    0.452662 0.012342 0.804895 0.160868
C48   C     C_3   0.516850 0.873056 0.808867 -0.393500
H31   H     H_    0.496544 0.800435 0.827498 0.226213
H32   H     H_    0.552169 0.870037 0.739020 0.226883
C49   C     C_3   0.582107 0.909798 0.882446 -0.962514
H33   H     H_    0.608248 0.979523 0.861194 0.265473
H34   H     H_    0.639389 0.859668 0.887882 0.273383
H35   H     H_    0.548580 0.917268 0.952879 0.260233
O12   O     O_3   0.648733 0.089096 0.290087 -0.637829
C50   C     C_3   0.740587 0.068245 0.304575 0.144922
H36   H     H_    0.775723 0.071370 0.234743 0.162054
H37   H     H_    0.753123 0.995874 0.331575 0.142553
C51   C     C_3   0.781600 0.141743 0.371188 -0.400548
H38   H     H_    0.773992 0.213092 0.340745 0.233400
H39   H     H_    0.745863 0.140875 0.440558 0.214963
C52   C     C_3   0.880770 0.121718 0.386929 -0.964209
H40   H     H_    0.889949 0.051565 0.419513 0.267596
H41   H     H_    0.907996 0.176403 0.435407 0.264627
H42   H     H_    0.918671 0.123298 0.318613 0.268565
O13   O     O_3   0.615432 0.897633 0.269551 -0.674340
C53   C     C_3   0.558873 0.917020 0.192206 0.090979
H43   H     H_    0.592119 0.886722 0.127446 0.169441
H44   H     H_    0.551421 0.994033 0.180049 0.175747
C54   C     C_3   0.466002 0.871814 0.203162 -0.387912
H45   H     H_    0.473352 0.795256 0.216478 0.232774
H46   H     H_    0.428887 0.905171 0.264067 0.221202
C55   C     C_3   0.410513 0.884066 0.114401 -0.958152
H47   H     H_    0.405126 0.959802 0.096097 0.262022
H48   H     H_    0.342092 0.856628 0.127163 0.273325
H49   H     H_    0.441497 0.843705 0.054035 0.265699
O14   O     O_3   0.341853 0.099690 0.699356 -0.636495
C56   C     C_3   0.251407 0.083246 0.675600 0.138110
H50   H     H_    0.211139 0.085201 0.742500 0.162698
H51   H     H_    0.240300 0.012422 0.642364 0.140264
C57   C     C_3   0.216480 0.161004 0.611179 -0.374436
H52   H     H_    0.223791 0.230703 0.647146 0.226853
H53   H     H_    0.256355 0.160822 0.544016 0.224520
C58   C     C_3   0.118030 0.147117 0.587964 -0.966703
H54   H     H_    0.108790 0.078190 0.551066 0.268936
H55   H     H_    0.095265 0.204206 0.540810 0.276210
H56   H     H_    0.076241 0.149771 0.653820 0.261358

loop_
_geom_bond_atom_site_label_1
_geom_bond_atom_site_label_2
_ccdc_geom_bond_type
C2    C35   S    
C43   H12   S    
N5    H25   S    
C38   O10   S    
C9    H5    S    
O11   C47   S    
C27   C29   T    
C11   N1    A    
C19   C20   A    
C34   H2    S    
C25   O8    A    
C12   N2    A    
C26   O7    A    
C6    C9    A    
C42   H10   S    
N3    H21   S    
C22   O12   S    
C46   H18   S    
C51   H38   S    
C15   C19   A    
C50   H37   S    
C17   C23   A    
C45   H17   S    
C41   C42   S    
C18   C24   A    
C35   C37   A    
N4    H24   S    
C33   C35   A    
C54   C55   S    
C43   H13   S    
O13   C53   S    
O1    Zn1   S    
C53   H43   S    
C12   N4    S    
C41   H8    S    
C14   N6    S    
C2    O2    A    
N3    H22   S    
C4    C40   A    
C53   H44   S    
C28   C30   T    
C45   C46   S    
C5    C33   A    
C10   H6    S    
C58   H56   S    
O10   C44   S    
O3    Zn1   S    
C7    H3    S    
C34   C36   A    
C46   H19   S    
C43   H11   S    
C42   C43   S    
C3    C39   A    
O9    C41   S    
C38   C40   A    
C24   O14   S    
C26   O6    A    
O12   C50   S    
C48   H32   S    
C48   H31   S    
C54   H46   S    
C50   C51   S    
C45   H16   S    
O2    Zn2   S    
N4    H23   S    
C4    C6    A    
C44   H15   S    
O5    Zn1   S    
C14   N2    A    
C47   C48   S    
C49   H35   S    
C11   N3    S    
C6    C34   A    
C41   H7    S    
C57   H53   S    
C56   H51   S    
N1    Zn1   S    
N6    H28   S    
C31   C32   T    
C15   C21   A    
C16   C20   A    
C13   N5    S    
C49   H34   S    
C52   H41   S    
C47   H30   S    
C37   O9    S    
O4    Zn2   S    
C13   C15   A    
C58   H54   S    
C14   C16   A    
C57   C58   S    
C55   H48   S    
C56   H50   S    
C48   C49   S    
C13   N1    A    
O6    Zn2   S    
C46   H20   S    
C7    C9    A    
C11   C17   A    
C16   C22   A    
C52   H40   S    
C29   C31   S    
C8    H4    S    
C25   O5    A    
C3    C5    A    
C44   C45   S    
C54   H45   S    
C51   C52   S    
N2    Zn2   S    
C25   C27   S    
C50   H36   S    
C26   C28   S    
C53   C54   S    
C33   H1    S    
C55   H49   S    
O7    Zn1   S    
C57   H52   S    
C56   C57   S    
C5    C10   A    
C37   C39   A    
C30   C32   S    
N6    H27   S    
C51   H39   S    
C21   O11   S    
O14   C56   S    
C36   C38   A    
C49   H33   S    
C17   C19   A    
O8    Zn2   S    
C52   H42   S    
C18   C20   A    
C47   H29   S    
C1    O4    A    
C2    O3    A    
C23   O13   S    
C42   H9    S    
C44   H14   S    
C8    C10   A    
C21   C24   A    
C12   C18   A    
C58   H55   S    
N5    H26   S    
C7    C39   A    
C22   C23   A    
C8    C40   A    
C55   H47   S    
C1    O1    A    
C3    C4    A    
C1    C36   S    
