data_mof_unit_18062.cif
_audit_creation_date              2012-12-11T15:22:25-0500
_audit_creation_method            fapswitch 2.2
_symmetry_space_group_name_H-M    P1
_symmetry_Int_Tables_number       1
_space_group_crystal_system       triclinic
_cell_length_a                    22.819437
_cell_length_b                    13.15696
_cell_length_c                    26.546521
_cell_angle_alpha                 89.92838
_cell_angle_beta                  90.782955
_cell_angle_gamma                 89.84148
_cell_volume                      7969.3980712

loop_
_atom_site_label
_atom_site_type_symbol
_atom_type_description
_atom_site_fract_x
_atom_site_fract_y
_atom_site_fract_z
_atom_type_partial_charge
C1    C     C_R   0.719059 0.341343 0.177171 0.531493
C2    C     C_R   0.280942 0.341210 0.822812 0.531978
C3    C     C_R   0.219059 0.841343 0.177171 0.531502
C4    C     C_R   0.780942 0.841209 0.822812 0.532023
C5    C     C_R   0.483687 0.166894 0.868516 -0.031003
C6    C     C_R   0.516301 0.167685 0.131497 -0.030693
C7    C     C_R   0.983686 0.666892 0.868517 -0.031009
C8    C     C_R   0.016299 0.667681 0.131498 -0.030708
C9    C     C_R   0.506934 0.261134 0.106600 0.244956
C10   C     C_R   0.493680 0.260324 0.893067 0.244514
C11   C     C_R   0.006929 0.761128 0.106602 0.244915
C12   C     C_R   0.993678 0.760320 0.893069 0.244491
C13   C     C_R   0.502585 0.261038 0.053250 0.030039
C14   C     C_R   0.498282 0.260604 0.946409 0.030138
C15   C     C_R   0.002580 0.761031 0.053251 0.030056
C16   C     C_R   0.998279 0.760599 0.946411 0.030140
C17   C     C_R   0.501168 0.167146 0.026540 -0.033445
C18   C     C_R   0.499362 0.166919 0.973440 -0.033308
C19   C     C_R   0.001164 0.667140 0.026541 -0.033441
C20   C     C_R   0.999359 0.666914 0.973441 -0.033309
C21   C     C_R   0.502477 0.352155 0.025767 -0.120123
C22   C     C_R   0.498952 0.351970 0.973591 -0.120182
C23   C     C_R   0.002469 0.852150 0.025768 -0.120127
C24   C     C_R   0.998945 0.851965 0.973593 -0.120142
C25   C     C_R   0.745822 0.943415 0.134123 0.001843
C26   C     C_R   0.254328 0.943121 0.865874 0.001221
C27   C     C_R   0.245820 0.443416 0.134123 0.001870
C28   C     C_R   0.754329 0.443121 0.865874 0.001233
C29   C     C_R   0.796788 0.968099 0.108108 -0.096030
C30   C     C_R   0.203331 0.967976 0.891879 -0.095276
C31   C     C_R   0.296783 0.468106 0.108105 -0.096158
C32   C     C_R   0.703333 0.467977 0.891880 -0.095308
C33   C     C_R   0.805021 0.932376 0.059846 -0.107184
C34   C     C_R   0.195136 0.932069 0.940132 -0.106616
C35   C     C_R   0.305015 0.432380 0.059843 -0.107204
C36   C     C_R   0.695138 0.432069 0.940133 -0.106621
C37   C     C_R   0.762604 0.872711 0.036081 0.005083
C38   C     C_R   0.237662 0.872149 0.963911 0.005077
C39   C     C_R   0.262599 0.372713 0.036080 0.005090
C40   C     C_R   0.737664 0.372150 0.963911 0.005078
C41   C     C_R   0.714666 0.834881 0.063879 0.001309
C42   C     C_R   0.285652 0.834141 0.936130 0.002521
C43   C     C_R   0.214663 0.334880 0.063880 0.001306
C44   C     C_R   0.785654 0.334143 0.936130 0.002512
C45   C     C_R   0.551357 0.158210 0.178862 0.558391
C46   C     C_R   0.448647 0.157947 0.821133 0.558761
C47   C     C_R   0.051357 0.658209 0.178863 0.558366
C48   C     C_R   0.948646 0.657947 0.821133 0.558736
C49   C     C_R   0.706738 0.872149 0.113166 -0.094696
C50   C     C_R   0.293503 0.871541 0.886823 -0.094820
C51   C     C_R   0.206737 0.372146 0.113167 -0.094687
C52   C     C_R   0.793504 0.371541 0.886823 -0.094810
C53   C     C_R   0.779973 0.770677 0.958874 -0.125880
C54   C     C_R   0.219876 0.770592 0.041229 -0.126347
C55   C     C_R   0.279964 0.270676 0.958873 -0.125886
C56   C     C_R   0.719883 0.270590 0.041230 -0.126347
C57   C     C_R   0.782081 0.764282 0.906667 -0.112455
C58   C     C_R   0.217509 0.764400 0.093433 -0.111539
C59   C     C_R   0.282075 0.264282 0.906667 -0.112441
C60   C     C_R   0.717515 0.264399 0.093434 -0.111539
C61   C     C_R   0.760520 0.944621 0.899087 -0.127328
C62   C     C_R   0.239980 0.944211 0.100766 -0.128229
C63   C     C_R   0.260520 0.444623 0.899086 -0.127335
C64   C     C_R   0.739978 0.444212 0.100767 -0.128224
C65   C     C_R   0.757148 0.950643 0.951404 -0.123951
C66   C     C_R   0.243515 0.950036 0.048449 -0.123870
C67   C     C_R   0.257146 0.450644 0.951403 -0.123941
C68   C     C_R   0.743514 0.450038 0.048450 -0.123876
C69   C     C_R   0.766834 0.863695 0.981336 0.006938
C70   C     C_R   0.233495 0.863251 0.018653 0.006475
C71   C     C_R   0.266827 0.363696 0.981335 0.006935
C72   C     C_R   0.733498 0.363252 0.018653 0.006473
C73   C     C_R   0.772464 0.851153 0.876704 0.047633
C74   C     C_R   0.227439 0.851114 0.123263 0.048483
C75   C     C_R   0.272462 0.351154 0.876703 0.047648
C76   C     C_R   0.727440 0.351115 0.123263 0.048490
C77   C     C_R   0.521211 0.171497 0.367974 0.008813
C78   C     C_R   0.477019 0.170642 0.631259 0.008155
C79   C     C_R   0.021211 0.671498 0.367974 0.008815
C80   C     C_R   0.977019 0.670643 0.631259 0.008160
C81   C     C_R   0.528579 0.262163 0.394859 -0.089546
C82   C     C_R   0.469360 0.261345 0.604318 -0.085793
C83   C     C_R   0.028578 0.762165 0.394859 -0.089543
C84   C     C_R   0.969360 0.761346 0.604318 -0.085815
C85   C     C_R   0.519404 0.264064 0.446246 -0.005619
C86   C     C_R   0.479714 0.263920 0.553137 0.006833
C87   C     C_R   0.019404 0.764066 0.446246 -0.005620
C88   C     C_R   0.979714 0.763922 0.553137 0.006829
C89   C     C_R   0.731937 0.000290 0.180197 0.543158
C90   C     C_R   0.268109 0.000145 0.819811 0.541948
C91   C     C_R   0.231937 0.500291 0.180197 0.543150
C92   C     C_R   0.768109 0.500145 0.819811 0.541927
C93   C     C_R   0.502038 0.176315 0.471934 0.067087
C94   C     C_R   0.498158 0.176468 0.527594 0.066481
C95   C     C_R   0.002040 0.676317 0.471934 0.067085
C96   C     C_R   0.998160 0.676471 0.527595 0.066489
C97   C     C_R   0.485373 0.090839 0.443577 -0.105725
C98   C     C_R   0.514774 0.090931 0.556054 -0.108791
C99   C     C_R   0.985376 0.590840 0.443578 -0.105730
C100  C     C_R   0.014777 0.590935 0.556054 -0.108793
C101  C     C_R   0.493859 0.089085 0.391495 -0.126320
C102  C     C_R   0.504067 0.087785 0.607806 -0.122833
C103  C     C_R   0.993860 0.589085 0.391496 -0.126322
C104  C     C_R   0.004068 0.587787 0.607807 -0.122838
C105  C     C_R   0.748835 0.936807 0.367956 -0.056464
C106  C     C_R   0.251468 0.941500 0.631135 -0.066804
C107  C     C_R   0.248835 0.436806 0.367956 -0.056466
C108  C     C_R   0.751470 0.441497 0.631135 -0.066810
C109  C     C_R   0.718193 0.845062 0.379414 0.209646
C110  C     C_R   0.283149 0.851638 0.617891 0.205227
C111  C     C_R   0.218192 0.345062 0.379414 0.209655
C112  C     C_R   0.783154 0.351638 0.617889 0.205280
C113  C     C_R   0.724353 0.802077 0.427754 -0.114889
C114  C     C_R   0.275739 0.810917 0.569471 -0.115702
C115  C     C_R   0.224353 0.302078 0.427754 -0.114880
C116  C     C_R   0.775742 0.310916 0.569471 -0.115686
C117  C     C_R   0.768176 0.836038 0.460810 -0.061047
C118  C     C_R   0.231540 0.847477 0.537499 -0.073604
C119  C     C_R   0.268176 0.336038 0.460810 -0.061043
C120  C     C_R   0.731541 0.347472 0.537499 -0.073570
C121  C     C_R   0.809358 0.905158 0.442827 0.231803
C122  C     C_R   0.189059 0.912803 0.557373 0.228118
C123  C     C_R   0.309359 0.405158 0.442827 0.231779
C124  C     C_R   0.689059 0.412795 0.557375 0.228099
C125  C     C_R   0.795064 0.967230 0.401700 0.211155
C126  C     C_R   0.203387 0.972582 0.599079 0.206095
C127  C     C_R   0.295065 0.467229 0.401699 0.211152
C128  C     C_R   0.703387 0.472575 0.599080 0.206071
C129  C     C_R   0.803728 0.765798 0.543215 -0.048527
C130  C     C_R   0.191827 0.788148 0.455544 -0.055897
C131  C     C_R   0.303728 0.265799 0.543215 -0.048539
C132  C     C_R   0.691828 0.288141 0.455545 -0.055891
C133  C     C_R   0.720246 0.345879 0.322579 0.541469
C134  C     C_R   0.280826 0.342738 0.676255 0.541390
C135  C     C_R   0.220246 0.845880 0.322579 0.541512
C136  C     C_R   0.780826 0.842737 0.676255 0.541601
C137  C     C_R   0.811568 0.779732 0.594687 -0.068930
C138  C     C_R   0.184785 0.801871 0.404403 -0.074026
C139  C     C_R   0.311568 0.279733 0.594687 -0.068872
C140  C     C_R   0.684785 0.301865 0.404403 -0.074009
C141  C     C_R   0.730401 0.898976 0.596077 -0.083481
C142  C     C_R   0.275235 0.896931 0.401428 -0.079361
C143  C     C_R   0.230402 0.398978 0.596077 -0.083589
C144  C     C_R   0.775233 0.396931 0.401428 -0.079378
C145  C     C_R   0.724429 0.888987 0.543555 0.005253
C146  C     C_R   0.280210 0.889893 0.454296 0.018324
C147  C     C_R   0.224430 0.388989 0.543555 0.005279
C148  C     C_R   0.780209 0.389891 0.454295 0.018318
C149  C     C_R   0.762913 0.824648 0.516437 0.039577
C150  C     C_R   0.236183 0.838161 0.481932 0.039180
C151  C     C_R   0.262914 0.324649 0.516437 0.039580
C152  C     C_R   0.736183 0.338157 0.481932 0.039178
C153  C     C_R   0.775737 0.847246 0.621367 0.069422
C154  C     C_R   0.225988 0.856291 0.376918 0.074937
C155  C     C_R   0.275737 0.347247 0.621367 0.069360
C156  C     C_R   0.725987 0.356289 0.376919 0.074927
C157  C     C_R   0.552645 0.159178 0.320368 0.523196
C158  C     C_R   0.446856 0.158983 0.679365 0.525259
C159  C     C_R   0.052645 0.659178 0.320368 0.523191
C160  C     C_R   0.946856 0.658983 0.679365 0.525243
C161  C     C_R   0.732452 0.000933 0.323146 0.588870
C162  C     C_R   0.267766 0.002197 0.676565 0.582750
C163  C     C_R   0.232452 0.500933 0.323146 0.588858
C164  C     C_R   0.767767 0.502197 0.676565 0.582704
C165  C     C_R   0.503434 0.078207 0.106005 -0.115091
C166  C     C_R   0.496097 0.077286 0.894291 -0.115236
C167  C     C_R   0.003434 0.578202 0.106007 -0.115062
C168  C     C_R   0.996094 0.577282 0.894292 -0.115231
C169  C     C_R   0.501472 0.074045 0.053161 -0.045331
C170  C     C_R   0.498566 0.073570 0.947152 -0.044854
C171  C     C_R   0.001470 0.574039 0.053162 -0.045324
C172  C     C_R   0.998564 0.573565 0.947153 -0.044848
C173  C     C_R   0.497266 0.978923 0.973447 0.255620
C174  C     C_R   0.502768 0.979147 0.027229 0.255058
C175  C     C_R   0.997265 0.478916 0.973448 0.255623
C176  C     C_R   0.002767 0.479141 0.027230 0.255070
Cr1   Cr    Cr6+3 0.756570 0.170940 0.251190 1.105069
Cr2   Cr    Cr6+3 0.243430 0.170940 0.748810 1.108389
Cr3   Cr    Cr6+3 0.256570 0.670940 0.251190 1.104968
Cr4   Cr    Cr6+3 0.743430 0.670940 0.748810 1.108384
Cr5   Cr    Cr6+3 0.623740 0.299110 0.249580 1.125512
Cr6   Cr    Cr6+3 0.376260 0.299110 0.750420 1.128439
Cr7   Cr    Cr6+3 0.123740 0.799110 0.249580 1.125542
Cr8   Cr    Cr6+3 0.876260 0.799110 0.750420 1.128624
Cr9   Cr    Cr6+3 0.625990 0.036240 0.250480 1.129218
Cr10  Cr    Cr6+3 0.374010 0.036240 0.749520 1.131161
Cr11  Cr    Cr6+3 0.125990 0.536240 0.250480 1.129233
Cr12  Cr    Cr6+3 0.874010 0.536240 0.749520 1.131147
H1    H     H_    0.499994 0.009886 0.871707 0.231316
H2    H     H_    0.498807 0.011151 0.128804 0.230448
H3    H     H_    0.999991 0.509884 0.871708 0.231316
H4    H     H_    0.998810 0.511147 0.128806 0.230501
H5    H     H_    0.753912 0.012078 0.876278 0.118608
H6    H     H_    0.246911 0.011524 0.123480 0.118254
H7    H     H_    0.253915 0.512080 0.876278 0.118571
H8    H     H_    0.746905 0.511527 0.123481 0.118255
H9    H     H_    0.669154 0.848325 0.134564 0.186956
H10   H     H_    0.331097 0.847608 0.865400 0.185571
H11   H     H_    0.169155 0.348319 0.134567 0.186950
H12   H     H_    0.831098 0.347608 0.865399 0.185579
H13   H     H_    0.546260 0.329595 0.377299 0.168021
H14   H     H_    0.450965 0.328481 0.621695 0.171952
H15   H     H_    0.046258 0.829597 0.377298 0.168011
H16   H     H_    0.950964 0.828481 0.621696 0.171893
H17   H     H_    0.533488 0.025101 0.537950 0.118486
H18   H     H_    0.468070 0.024297 0.461809 0.124969
H19   H     H_    0.033493 0.525107 0.537951 0.118486
H20   H     H_    0.968073 0.524298 0.461811 0.124989
H21   H     H_    0.513069 0.018565 0.628636 0.143647
H22   H     H_    0.484722 0.019845 0.370835 0.139474
H23   H     H_    0.013071 0.518566 0.628636 0.143634
H24   H     H_    0.984724 0.519844 0.370837 0.139482
H25   H     H_    0.526997 0.334134 0.465787 0.233979
H26   H     H_    0.472244 0.334495 0.533726 0.236138
H27   H     H_    0.026997 0.834138 0.465786 0.233976
H28   H     H_    0.972244 0.834497 0.533726 0.236127
H29   H     H_    0.830857 0.711046 0.524264 0.161953
H30   H     H_    0.162116 0.738123 0.474199 0.180155
H31   H     H_    0.330858 0.211048 0.524264 0.161949
H32   H     H_    0.662118 0.238113 0.474200 0.180149
H33   H     H_    0.843838 0.733454 0.614389 0.093251
H34   H     H_    0.149282 0.762671 0.385369 0.102549
H35   H     H_    0.343838 0.233455 0.614390 0.093272
H36   H     H_    0.649284 0.262662 0.385369 0.102549
H37   H     H_    0.694590 0.743303 0.439990 0.193803
H38   H     H_    0.305834 0.753794 0.555762 0.207896
H39   H     H_    0.194590 0.243305 0.439991 0.193784
H40   H     H_    0.805839 0.253798 0.555759 0.207780
H41   H     H_    0.699859 0.945390 0.616927 0.124806
H42   H     H_    0.309975 0.930825 0.379682 0.117543
H43   H     H_    0.199860 0.445394 0.616927 0.124732
H44   H     H_    0.809972 0.430827 0.379682 0.117539
H45   H     H_    0.495321 0.424861 0.955149 0.178005
H46   H     H_    0.506473 0.425089 0.043991 0.178364
H47   H     H_    0.995315 0.924856 0.955151 0.177909
H48   H     H_    0.006462 0.925084 0.043993 0.178069
H49   H     H_    0.828825 0.020312 0.123654 0.163117
H50   H     H_    0.171246 0.020494 0.876340 0.162662
H51   H     H_    0.328817 0.520327 0.123649 0.162796
H52   H     H_    0.671249 0.520497 0.876341 0.162569
H53   H     H_    0.787866 0.703499 0.981644 0.118394
H54   H     H_    0.211734 0.703563 0.018552 0.118422
H55   H     H_    0.287856 0.203498 0.981644 0.118388
H56   H     H_    0.711744 0.203560 0.018552 0.118417
H57   H     H_    0.792632 0.691878 0.889535 0.114570
H58   H     H_    0.206579 0.692288 0.110670 0.114389
H59   H     H_    0.292625 0.191877 0.889535 0.114572
H60   H     H_    0.706587 0.192285 0.110671 0.114378
H61   H     H_    0.843451 0.955173 0.039811 0.142187
H62   H     H_    0.156676 0.955006 0.960165 0.141192
H63   H     H_    0.343444 0.455179 0.039807 0.142200
H64   H     H_    0.656678 0.455005 0.960165 0.141189
H65   H     H_    0.747163 0.023070 0.968736 0.119605
H66   H     H_    0.253863 0.022190 0.031010 0.119851
H67   H     H_    0.247162 0.523072 0.968735 0.119608
H68   H     H_    0.753859 0.522193 0.031010 0.119851
O1    O     O_R   0.769900 0.064540 0.196060 -0.518625
O2    O     O_R   0.230100 0.064540 0.803940 -0.516945
O3    O     O_R   0.269900 0.564540 0.196060 -0.518707
O4    O     O_R   0.730100 0.564540 0.803940 -0.516966
O5    O     O_R   0.574760 0.239320 0.300850 -0.500421
O6    O     O_R   0.425240 0.239320 0.699150 -0.500662
O7    O     O_R   0.074760 0.739320 0.300850 -0.500431
O8    O     O_R   0.925240 0.739320 0.699150 -0.500706
O9    O     O_R   0.566290 0.069580 0.305400 -0.503709
O10   O     O_R   0.433710 0.069580 0.694600 -0.492842
O11   O     O_R   0.066290 0.569580 0.305400 -0.503703
O12   O     O_R   0.933710 0.569580 0.694600 -0.492801
O13   O     O_R   0.680760 0.993330 0.302620 -0.444997
O14   O     O_R   0.319240 0.993330 0.697380 -0.440386
O15   O     O_R   0.180760 0.493330 0.302620 -0.444991
O16   O     O_R   0.819240 0.493330 0.697380 -0.440359
O17   O     O_3   0.668770 0.168760 0.250420 -0.307917
O18   O     O_3   0.331230 0.168760 0.749580 -0.312104
O19   O     O_3   0.168770 0.668760 0.250420 -0.307908
O20   O     O_3   0.831230 0.668760 0.749580 -0.312144
O21   O     O_R   0.750800 0.274080 0.199250 -0.509511
O22   O     O_R   0.249200 0.274080 0.800750 -0.508308
O23   O     O_R   0.250800 0.774080 0.199250 -0.509524
O24   O     O_R   0.749200 0.774080 0.800750 -0.508313
O25   O     O_R   0.669990 0.371670 0.194150 -0.468667
O26   O     O_R   0.330010 0.371670 0.805850 -0.467902
O27   O     O_R   0.169990 0.871670 0.194150 -0.468645
O28   O     O_R   0.830010 0.871670 0.805850 -0.467818
O29   O     O_R   0.574600 0.238480 0.197800 -0.428242
O30   O     O_R   0.425400 0.238480 0.802200 -0.427901
O31   O     O_R   0.074600 0.738480 0.197800 -0.428264
O32   O     O_R   0.925400 0.738480 0.802200 -0.427924
O33   O     O_R   0.566130 0.068680 0.194240 -0.502522
O34   O     O_R   0.433870 0.068680 0.805760 -0.504561
O35   O     O_R   0.066130 0.568680 0.194240 -0.502510
O36   O     O_R   0.933870 0.568680 0.805760 -0.504571
O37   O     O_R   0.680610 0.992490 0.199570 -0.475534
O38   O     O_R   0.319390 0.992490 0.800430 -0.477988
O39   O     O_R   0.180610 0.492490 0.199570 -0.475524
O40   O     O_R   0.819390 0.492490 0.800430 -0.478000
O41   O     O_R   0.770060 0.065440 0.307230 -0.422505
O42   O     O_R   0.229940 0.065440 0.692770 -0.423337
O43   O     O_R   0.270060 0.565440 0.307230 -0.422526
O44   O     O_R   0.729940 0.565440 0.692770 -0.423347
O45   O     O_R   0.750960 0.274920 0.302300 -0.456190
O46   O     O_R   0.249040 0.274920 0.697700 -0.454926
O47   O     O_R   0.250960 0.774920 0.302300 -0.456200
O48   O     O_R   0.749040 0.774920 0.697700 -0.454995
O49   O     O_R   0.670160 0.372580 0.305320 -0.512599
O50   O     O_R   0.329840 0.372580 0.694680 -0.506467
O51   O     O_R   0.170160 0.872580 0.305320 -0.512555
O52   O     O_R   0.829840 0.872580 0.694680 -0.506113
C177  C     C_R   0.674500 0.754367 0.043980 0.048941
C178  C     C_R   0.651426 0.756697 0.994393 -0.024474
C179  C     C_R   0.617737 0.675921 0.975917 -0.039828
C180  C     C_R   0.602608 0.596127 0.007791 -0.078582
C181  C     C_R   0.623789 0.593870 0.057276 -0.078146
C182  C     C_R   0.659948 0.671772 0.075178 -0.069085
H69   H     H_    0.658127 0.821293 0.970032 0.150836
H70   H     H_    0.601290 0.677084 0.937527 0.149460
H71   H     H_    0.574391 0.536135 0.994065 0.115522
H72   H     H_    0.612941 0.530902 0.081556 0.171267
H73   H     H_    0.677080 0.666872 0.113341 0.119308
C183  C     C_R   0.325955 0.753353 0.956055 0.049837
C184  C     C_R   0.348872 0.755170 0.005695 -0.024020
C185  C     C_R   0.382798 0.674251 0.024138 -0.039996
C186  C     C_R   0.398288 0.594795 0.992198 -0.079392
C187  C     C_R   0.377248 0.593013 0.942673 -0.079473
C188  C     C_R   0.340877 0.671070 0.924792 -0.069391
H74   H     H_    0.341960 0.819533 0.030114 0.151412
H75   H     H_    0.399185 0.675113 0.062551 0.148606
H76   H     H_    0.426612 0.534628 0.005922 0.117650
H77   H     H_    0.388363 0.530276 0.918347 0.171059
H78   H     H_    0.323868 0.666516 0.886592 0.118786
C189  C     C_R   0.174497 0.254367 0.043981 0.048945
C190  C     C_R   0.151419 0.256702 0.994395 -0.024438
C191  C     C_R   0.117729 0.175925 0.975920 -0.039813
C192  C     C_R   0.102604 0.096127 0.007792 -0.078648
C193  C     C_R   0.123790 0.093866 0.057276 -0.078226
C194  C     C_R   0.159948 0.171768 0.075178 -0.069084
H79   H     H_    0.158117 0.321300 0.970036 0.150836
H80   H     H_    0.101279 0.177092 0.937531 0.149433
H81   H     H_    0.074388 0.036135 0.994067 0.115472
H82   H     H_    0.112944 0.030893 0.081554 0.171238
H83   H     H_    0.177083 0.166865 0.113340 0.119309
C195  C     C_R   0.825958 0.253356 0.956055 0.049829
C196  C     C_R   0.848879 0.255180 0.005694 -0.023965
C197  C     C_R   0.882804 0.174261 0.024138 -0.040048
C198  C     C_R   0.898289 0.094799 0.992200 -0.079450
C199  C     C_R   0.877248 0.093013 0.942676 -0.079439
C200  C     C_R   0.840878 0.171070 0.924794 -0.069385
H84   H     H_    0.841968 0.319546 0.030111 0.151409
H85   H     H_    0.899192 0.175126 0.062550 0.148390
H86   H     H_    0.926613 0.034632 0.005925 0.117474
H87   H     H_    0.888361 0.030272 0.918352 0.171052
H88   H     H_    0.823867 0.166512 0.886594 0.118823
S1    S     S_3+6 0.672530 0.780302 0.335569 0.026524
O53   O     O_2   0.612699 0.828217 0.334078 -0.280444
O54   O     O_2   0.698853 0.784924 0.284005 -0.269783
O55   O     O_3   0.666128 0.657876 0.353015 -0.525429
H89   H     H_    0.641349 0.626236 0.326456 0.382689
S2    S     S_3+6 0.332830 0.787664 0.659002 0.030079
O56   O     O_2   0.390604 0.842216 0.660006 -0.277481
O57   O     O_2   0.308377 0.784275 0.711283 -0.265693
O58   O     O_3   0.343456 0.668038 0.638640 -0.521529
H90   H     H_    0.371271 0.637414 0.663325 0.383437
S3    S     S_3+6 0.172526 0.280305 0.335571 0.026521
O59   O     O_2   0.112696 0.328224 0.334085 -0.280566
O60   O     O_2   0.198843 0.284926 0.284005 -0.269671
O61   O     O_3   0.166124 0.157878 0.353016 -0.525433
H91   H     H_    0.141225 0.126300 0.326521 0.382698
S4    S     S_3+6 0.832856 0.287685 0.658992 0.030083
O62   O     O_2   0.890618 0.342274 0.659972 -0.278403
O63   O     O_2   0.808433 0.284284 0.711283 -0.264800
O64   O     O_3   0.843492 0.168060 0.638633 -0.521540
H92   H     H_    0.872093 0.138013 0.662825 0.383461
S5    S     S_3+6 0.483353 0.866342 0.936743 0.008744
O65   O     O_2   0.466369 0.774707 0.965963 -0.213232
O66   O     O_2   0.433770 0.887397 0.900337 -0.336009
O67   O     O_3   0.544003 0.839490 0.903995 -0.562675
H93   H     H_    0.531364 0.788932 0.878481 0.366964
S6    S     S_3+6 0.516535 0.866723 0.064354 0.009504
O68   O     O_2   0.534609 0.775279 0.035472 -0.213884
O69   O     O_2   0.565302 0.887863 0.101471 -0.334413
O70   O     O_3   0.455334 0.839499 0.096183 -0.561275
H94   H     H_    0.467629 0.788540 0.121742 0.366777
S7    S     S_3+6 0.983358 0.366336 0.936742 0.008717
O71   O     O_2   0.966382 0.274690 0.965956 -0.213263
O72   O     O_2   0.933772 0.387387 0.900338 -0.336010
O73   O     O_3   0.044009 0.339503 0.903989 -0.562699
H95   H     H_    0.031370 0.288958 0.878470 0.366950
S8    S     S_3+6 0.016532 0.366719 0.064358 0.009445
O74   O     O_2   0.034598 0.275264 0.035480 -0.214018
O75   O     O_2   0.065305 0.387858 0.101470 -0.334353
O76   O     O_3   0.955335 0.339510 0.096195 -0.561270
H96   H     H_    0.967614 0.288443 0.121707 0.366739
C201  C     C_R   0.675390 0.937713 0.516474 0.022677
C202  C     C_R   0.624388 0.880227 0.508833 -0.100449
C203  C     C_R   0.589748 0.896072 0.465876 -0.120021
C204  C     C_R   0.605428 0.970729 0.431384 -0.080383
C205  C     C_R   0.651833 0.036164 0.441941 -0.123719
C206  C     C_R   0.686735 0.020587 0.484846 -0.099796
H97   H     H_    0.615146 0.816385 0.533009 0.156690
H98   H     H_    0.553316 0.846209 0.457568 0.131502
H99   H     H_    0.583182 0.975247 0.395521 0.174581
H100  H     H_    0.663834 0.092629 0.414494 0.119288
H101  H     H_    0.726444 0.064594 0.489825 0.153085
C207  C     C_R   0.336204 0.916513 0.479065 0.026835
C208  C     C_R   0.384655 0.853615 0.470262 -0.085412
C209  C     C_R   0.430183 0.847640 0.505674 -0.127340
C210  C     C_R   0.428822 0.908480 0.548571 -0.068845
C211  C     C_R   0.384283 0.980817 0.554288 -0.093115
C212  C     C_R   0.338055 0.985433 0.519317 -0.113453
H102  H     H_    0.384861 0.803664 0.437977 0.173818
H103  H     H_    0.465387 0.793499 0.500735 0.126336
H104  H     H_    0.462579 0.899455 0.577129 0.145210
H105  H     H_    0.383650 0.029053 0.587251 0.131467
H106  H     H_    0.300998 0.034611 0.526488 0.109458
C213  C     C_R   0.175394 0.437721 0.516473 0.022677
C214  C     C_R   0.124390 0.380241 0.508829 -0.100458
C215  C     C_R   0.089754 0.396094 0.465871 -0.120023
C216  C     C_R   0.105438 0.470752 0.431381 -0.080386
C217  C     C_R   0.151845 0.536180 0.441941 -0.123727
C218  C     C_R   0.186744 0.520597 0.484848 -0.099805
H107  H     H_    0.115145 0.316397 0.533003 0.156655
H108  H     H_    0.053320 0.346235 0.457561 0.131493
H109  H     H_    0.083195 0.475276 0.395517 0.174590
H110  H     H_    0.163851 0.592643 0.414496 0.119303
H111  H     H_    0.226454 0.564599 0.489830 0.153085
C219  C     C_R   0.836205 0.416507 0.479062 0.026841
C220  C     C_R   0.884655 0.353611 0.470255 -0.085396
C221  C     C_R   0.930188 0.347638 0.505663 -0.127472
C222  C     C_R   0.928832 0.408478 0.548559 -0.068966
C223  C     C_R   0.884292 0.480813 0.554282 -0.093049
C224  C     C_R   0.838059 0.485427 0.519315 -0.113450
H112  H     H_    0.884858 0.303661 0.437970 0.173833
H113  H     H_    0.965392 0.293499 0.500720 0.126282
H114  H     H_    0.962594 0.399455 0.577114 0.145151
H115  H     H_    0.883662 0.529048 0.587244 0.131515
H116  H     H_    0.801002 0.534604 0.526490 0.109448
S9    S     S_3+6 0.881904 0.897537 0.466016 0.008007
O77   O     O_2   0.896448 0.786665 0.467313 -0.348009
O78   O     O_2   0.924764 0.949068 0.432025 -0.212028
O79   O     O_3   0.886973 0.947037 0.524432 -0.519344
H117  H     H_    0.849703 0.983819 0.529917 0.360845
S10   S     S_3+6 0.115087 0.900058 0.537706 0.017106
O80   O     O_2   0.102569 0.788530 0.537456 -0.347150
O81   O     O_2   0.072602 0.948692 0.573121 -0.192500
O82   O     O_3   0.105885 0.949942 0.479643 -0.524603
H118  H     H_    0.139557 0.995999 0.474640 0.364621
S11   S     S_3+6 0.381905 0.397536 0.466015 0.008024
O83   O     O_2   0.396448 0.286664 0.467312 -0.348024
O84   O     O_2   0.424764 0.449067 0.432024 -0.212017
O85   O     O_3   0.386974 0.447038 0.524431 -0.519206
H119  H     H_    0.349705 0.483818 0.529916 0.360868
S12   S     S_3+6 0.615087 0.400049 0.537707 0.017126
O86   O     O_2   0.602570 0.288521 0.537456 -0.347146
O87   O     O_2   0.572602 0.448681 0.573123 -0.192417
O88   O     O_3   0.605885 0.449937 0.479645 -0.524586
H120  H     H_    0.639558 0.495992 0.474642 0.364626
S13   S     S_3+6 0.827249 0.090307 0.401744 0.032197
O89   O     O_2   0.874775 0.095332 0.363123 -0.225462
O90   O     O_2   0.781397 0.167526 0.389313 -0.312362
O91   O     O_3   0.854565 0.119932 0.459082 -0.535278
H121  H     H_    0.897035 0.131141 0.454445 0.386275
S14   S     S_3+6 0.164466 0.090425 0.604441 0.052817
O92   O     O_2   0.120752 0.082484 0.646166 -0.217833
O93   O     O_2   0.206012 0.174487 0.616045 -0.299793
O94   O     O_3   0.129798 0.122373 0.550321 -0.519382
H122  H     H_    0.091209 0.149626 0.560445 0.375548
S15   S     S_3+6 0.327249 0.590307 0.401744 0.032194
O95   O     O_2   0.374774 0.595333 0.363121 -0.225487
O96   O     O_2   0.281396 0.667526 0.389313 -0.312365
O97   O     O_3   0.354567 0.619932 0.459081 -0.535224
H123  H     H_    0.397037 0.631141 0.454443 0.386295
S16   S     S_3+6 0.664466 0.590419 0.604441 0.052859
O98   O     O_2   0.620753 0.582480 0.646167 -0.217722
O99   O     O_2   0.706012 0.674482 0.616044 -0.299813
O100  O     O_3   0.629796 0.622364 0.550322 -0.519381
H124  H     H_    0.591204 0.649603 0.560445 0.375612
S17   S     S_3+6 0.507334 0.371999 0.856859 0.010403
O101  O     O_2   0.527161 0.344108 0.804879 -0.236750
O102  O     O_2   0.451949 0.433673 0.852937 -0.302009
O103  O     O_3   0.560290 0.442190 0.884349 -0.577253
H125  H     H_    0.556345 0.510572 0.869003 0.361850
S18   S     S_3+6 0.493472 0.373384 0.142380 0.009239
O104  O     O_2   0.473250 0.346307 0.194357 -0.239333
O105  O     O_2   0.549041 0.433979 0.146338 -0.301523
O106  O     O_3   0.440919 0.444405 0.114425 -0.578568
H126  H     H_    0.444392 0.512385 0.130158 0.361872
S19   S     S_3+6 0.007336 0.871996 0.856863 0.010437
O107  O     O_2   0.027159 0.844111 0.804882 -0.236638
O108  O     O_2   0.951953 0.933676 0.852944 -0.302092
O109  O     O_3   0.060297 0.942174 0.884355 -0.577203
H127  H     H_    0.056248 0.010642 0.869122 0.361777
S20   S     S_3+6 0.993460 0.873377 0.142378 0.009363
O110  O     O_2   0.973256 0.846317 0.194363 -0.238886
O111  O     O_2   0.049025 0.933991 0.146322 -0.301881
O112  O     O_3   0.940887 0.944359 0.114423 -0.578416
H128  H     H_    0.944703 0.012614 0.129805 0.361654

loop_
_geom_bond_atom_site_label_1
_geom_bond_atom_site_label_2
_ccdc_geom_bond_type
C99   C103  A    
C220  C221  A    
C158  O10   A    
C55   C59   A    
S13   O89   D    
C142  C146  A    
C77   C101  A    
O112  H128  S    
C7    C168  A    
C47   O35   A    
O103  H125  S    
C124  S12   S    
C38   C70   S    
C50   H10   S    
C181  H72   S    
S9    O77   D    
C90   O38   A    
C108  C164  S    
C41   C177  S    
Cr12  O12   S    
C54   H54   S    
C37   C69   S    
C195  C200  A    
C26   C50   A    
S14   O93   D    
Cr6   O6    S    
C29   C33   A    
C100  C104  A    
C12   S19   S    
C11   S20   S    
C3    C74   S    
C9    C13   A    
C174  S6    S    
Cr2   O2    S    
C146  C150  A    
C131  C151  A    
C192  H81   S    
C12   C16   A    
C187  C188  A    
C56   C72   A    
C65   H65   S    
C169  C174  A    
C215  H108  S    
C162  O42   A    
C172  C175  A    
C141  C145  A    
C84   H16   S    
C6    C165  A    
C53   C69   A    
C21   C22   A    
C126  S14   S    
C41   C49   A    
S4    O62   D    
Cr12  O36   S    
C18   C170  A    
C25   C29   A    
C27   C31   A    
C186  C187  A    
C46   O30   A    
C28   C32   A    
Cr9   O33   S    
S5    O67   S    
C82   H14   S    
C62   C66   A    
C195  C196  A    
C167  C171  A    
C191  C192  A    
C60   C76   A    
Cr6   O50   S    
C112  S4    S    
C208  H102  S    
S11   O84   D    
C115  H39   S    
C163  O43   A    
C78   C82   A    
C113  H37   S    
C21   H46   S    
C54   C70   A    
Cr3   O19   S    
Cr8   O28   S    
C147  C213  S    
C165  H2    S    
C137  C153  A    
S19   O108  D    
S16   O98   D    
C205  H100  S    
C140  C156  A    
S12   O87   D    
C20   C172  A    
C116  H40   S    
S18   O105  D    
O70   H94   S    
C132  C152  A    
S13   O91   S    
O109  H127  S    
C62   H6    S    
S7    O71   D    
C90   O2    A    
C201  C202  A    
S9    O79   S    
C139  H35   S    
C106  C126  A    
C197  H85   S    
C10   S17   S    
O97   H123  S    
C84   C88   A    
Cr6   O26   S    
C148  C219  S    
Cr10  O18   S    
C119  C123  A    
C26   C90   S    
S18   O106  S    
Cr12  O20   S    
C5    C46   S    
Cr4   O48   S    
C105  C125  A    
Cr2   O46   S    
C7    C48   S    
C19   C20   A    
Cr3   O43   S    
C8    C47   S    
C107  C127  A    
S17   O102  D    
C175  C176  A    
C208  C209  A    
C214  C215  A    
C1    O25   A    
C136  C153  S    
C66   C70   A    
C44   C195  S    
C36   H64   S    
C95   C99   A    
O82   H118  S    
C202  C203  A    
C216  H109  S    
C61   C65   A    
C129  C137  A    
C184  C185  A    
C173  S5    S    
C34   H62   S    
C45   O33   A    
C117  C149  S    
S6    O68   D    
S4    O64   S    
C55   C71   A    
C2    C75   S    
C184  H74   S    
C137  H33   S    
C217  C218  A    
C213  C214  A    
Cr4   O24   S    
C89   O37   A    
C6    C9    A    
Cr5   O17   S    
Cr9   O9    S    
C199  H87   S    
C49   H9    S    
C222  C223  A    
O79   H117  S    
C129  C149  A    
S2    O58   S    
C64   C68   A    
C127  S15   S    
C53   H53   S    
C85   H25   S    
C142  H42   S    
C138  H34   S    
C123  S11   S    
C180  C181  A    
C121  S9    S    
Cr8   O52   S    
C57   C73   A    
C198  H86   S    
C130  H30   S    
Cr10  O14   S    
Cr8   O8    S    
C200  H88   S    
C85   C93   A    
C78   C158  S    
C185  H75   S    
S8    O74   D    
C158  O6    A    
C87   C95   A    
C130  C150  A    
C23   C24   A    
C47   O31   A    
C27   C91   S    
C52   H12   S    
C97   H18   S    
C189  C194  A    
C110  C114  A    
C146  C207  S    
C44   C52   A    
C56   H56   S    
C173  C174  A    
Cr12  O16   S    
C193  C194  A    
C79   C103  A    
C218  H111  S    
C11   C15   A    
C30   H50   S    
C27   C51   A    
O94   H122  S    
C7    C12   A    
C30   C34   A    
C207  C208  A    
C28   C92   S    
C10   C14   A    
Cr3   O3    S    
C192  C193  A    
C140  H36   S    
C187  H77   S    
C214  H107  S    
C108  C128  A    
C116  C120  A    
C163  O15   A    
C132  H32   S    
C144  C156  A    
C147  C151  A    
C86   H26   S    
C121  C125  A    
O106  H126  S    
C203  H98   S    
C136  O52   A    
C123  C127  A    
C139  C155  A    
C125  S13   S    
C54   C58   A    
C17   C18   A    
C5    C166  A    
C142  C154  A    
S2    O57   D    
C4    C73   S    
Cr12  O40   S    
C42   C50   A    
C113  C117  A    
C157  O5    A    
C26   C30   A    
C115  C119  A    
S3    O61   S    
C105  C161  S    
Cr9   O37   S    
Cr10  O34   S    
C61   H5    S    
C112  C116  A    
Cr11  O39   S    
C221  C222  A    
C58   C74   A    
C182  H73   S    
C89   O1    A    
C109  S1    S    
C211  H105  S    
C176  S8    S    
C39   C71   S    
C40   C72   S    
C209  C210  A    
C1    C76   S    
C107  C111  A    
C148  C152  A    
C107  C163  S    
S12   O86   D    
C190  H79   S    
C2    O22   A    
C102  H21   S    
C160  O12   A    
C9    S18   S    
C171  C176  A    
C124  C128  A    
C166  H1    S    
C14   C22   A    
S7    O73   S    
C205  C206  A    
C134  O50   A    
S14   O94   S    
C138  C154  A    
C63   C75   A    
S8    O76   S    
C96   C100  A    
C211  C212  A    
C4    O28   A    
C37   C41   A    
C91   O3    A    
C40   C44   A    
C197  C198  A    
C159  O7    A    
S19   O107  D    
C160  O8    A    
C59   H59   S    
C143  H43   S    
S10   O80   D    
C223  H115  S    
C81   C85   A    
Cr11  O19   S    
C221  H113  S    
C83   C87   A    
C201  C206  A    
C88   C96   A    
C175  S7    S    
C6    C45   S    
C93   C97   A    
C78   C102  A    
C133  C156  S    
S16   O100  S    
C80   C84   A    
S4    O63   D    
S1    O53   D    
Cr1   O17   S    
C2    O26   A    
C15   C19   A    
C135  C154  S    
C55   H55   S    
C80   C104  A    
C202  H97   S    
S5    O66   D    
C79   C159  S    
C193  H82   S    
C80   C160  S    
C219  C220  A    
C94   C98   A    
C141  H41   S    
O64   H92   S    
C42   C183  S    
C45   O29   A    
S20   O110  D    
C212  H106  S    
C118  C150  S    
O61   H91   S    
C129  H29   S    
S1    O54   D    
Cr1   O41   S    
C66   H66   S    
S3    O59   D    
Cr5   O29   S    
Cr9   O13   S    
Cr6   O18   S    
Cr10  O10   S    
C4    O24   A    
Cr7   O31   S    
C185  C186  A    
Cr11  O15   S    
O88   H120  S    
C165  C169  A    
S13   O90   D    
C133  O45   A    
S12   O88   S    
C100  H19   S    
C178  H69   S    
S9    O78   D    
S11   O83   D    
C58   H58   S    
C204  C205  A    
C83   H15   S    
C53   C57   A    
S14   O92   D    
C81   H13   S    
C110  S2    S    
C61   C73   A    
C82   C86   A    
C33   C37   A    
C56   C60   A    
C68   C72   A    
Cr7   O27   S    
C189  C190  A    
S17   O101  D    
C48   O36   A    
C8    C167  A    
C114  H38   S    
C22   H45   S    
C77   C81   A    
C35   H63   S    
C188  H78   S    
C183  C188  A    
C33   H61   S    
C209  H103  S    
C63   H7    S    
C207  C212  A    
S6    O69   D    
C32   C36   A    
S1    O55   S    
C31   H51   S    
C178  C179  A    
C145  C201  S    
C206  H101  S    
C144  H44   S    
C19   C171  A    
C135  O47   A    
C204  H99   S    
C203  C204  A    
C136  O48   A    
C224  H116  S    
C67   H67   S    
C132  C140  A    
C157  O9    A    
C220  H112  S    
C92   O40   A    
C25   C89   S    
S20   O112  S    
C143  C155  A    
C161  O13   A    
S6    O70   S    
O73   H95   S    
S11   O85   S    
C98   C102  A    
C79   C83   A    
C48   O32   A    
C43   C51   A    
C181  C182  A    
C105  C109  A    
C191  H80   S    
C65   C69   A    
C91   O39   A    
S19   O109  S    
C67   C71   A    
C106  C162  S    
Cr10  O38   S    
C25   C49   A    
Cr11  O35   S    
C13   C17   A    
Cr4   O4    S    
C108  C112  A    
C168  C172  A    
S15   O97   S    
Cr5   O5    S    
O91   H121  S    
S8    O75   D    
S18   O104  D    
C87   H27   S    
C213  C218  A    
C62   C74   A    
Cr1   O1    S    
C145  C149  A    
C170  C173  A    
Cr8   O20   S    
C111  S3    S    
C196  C197  A    
C93   C94   S    
C14   C18   A    
C35   C39   A    
C95   C96   S    
C144  C148  A    
C141  C153  A    
C215  C216  A    
C135  O51   A    
O76   H96   S    
C177  C178  A    
C143  C147  A    
C167  H4    S    
C168  H3    S    
C128  S16   S    
S16   O99   D    
C38   C42   A    
C99   H20   S    
C118  C122  A    
C17   C169  A    
C159  O11   A    
C64   H8    S    
C131  H31   S    
C186  H76   S    
C46   O34   A    
C1    O21   A    
C190  C191  A    
Cr2   O22   S    
C223  C224  A    
C117  C121  A    
C86   C94   A    
C3    O23   A    
C134  C155  S    
Cr5   O49   S    
C210  C211  A    
C98   H17   S    
C16   C20   A    
Cr2   O18   S    
C15   C23   A    
O85   H119  S    
C164  O16   A    
Cr3   O23   S    
Cr8   O32   S    
C179  H70   S    
C43   C189  S    
S3    O60   D    
C29   H49   S    
C92   O4    A    
C219  C224  A    
C119  C151  S    
C63   C67   A    
C120  C152  S    
C13   C21   A    
C36   C40   A    
C131  C139  A    
C57   H57   S    
O100  H124  S    
C39   C43   A    
C32   H52   S    
C179  C180  A    
C122  C126  A    
S7    O72   D    
Cr5   O25   S    
C194  H83   S    
Cr9   O17   S    
Cr6   O30   S    
C68   H68   S    
Cr7   O51   S    
Cr7   O19   S    
S15   O95   D    
Cr11  O11   S    
Cr4   O44   S    
Cr1   O45   S    
C161  O41   A    
C64   C76   A    
Cr2   O42   S    
C210  H104  S    
Cr3   O47   S    
C109  C113  A    
C133  O49   A    
C114  C118  A    
C51   H11   S    
C23   H48   S    
C60   H60   S    
C122  S10   S    
S10   O81   D    
C59   C75   A    
O67   H93   S    
C216  C217  A    
C106  C110  A    
C162  O14   A    
C88   H28   S    
S15   O96   D    
C34   C38   A    
C103  H24   S    
Cr1   O21   S    
C101  H22   S    
O58   H90   S    
C183  C184  A    
S10   O82   S    
C217  H110  S    
C5    C10   A    
Cr4   O20   S    
C24   H47   S    
S5    O65   D    
C177  C182  A    
C28   C52   A    
C199  C200  A    
C222  H114  S    
C8    C11   A    
Cr7   O7    S    
C3    O27   A    
O55   H89   S    
C166  C170  A    
S20   O111  D    
C31   C35   A    
S17   O103  S    
S2    O56   D    
C164  O44   A    
C16   C24   A    
C180  H71   S    
C111  C115  A    
C134  O46   A    
C104  H23   S    
C198  C199  A    
C196  H84   S    
C97   C101  A    
C120  C124  A    
C77   C157  S    
C130  C138  A    
