data_mof_unit_48401.cif
_audit_creation_date              2012-12-11T14:58:28-0500
_audit_creation_method            fapswitch 2.2
_symmetry_space_group_name_H-M    P1
_symmetry_Int_Tables_number       1
_space_group_crystal_system       triclinic
_cell_length_a                    11.068154
_cell_length_b                    11.080936
_cell_length_c                    18.71728
_cell_angle_alpha                 90.670855
_cell_angle_beta                  90.918309
_cell_angle_gamma                 59.497077
_cell_volume                      1977.61703433

loop_
_atom_site_label
_atom_site_type_symbol
_atom_type_description
_atom_site_fract_x
_atom_site_fract_y
_atom_site_fract_z
_atom_type_partial_charge
C1    C     C_R   0.361228 0.766483 0.395944 0.541530
C2    C     C_R   0.606559 0.132707 0.166756 0.013629
C3    C     C_R   0.375470 0.352517 0.154783 -0.004163
C4    C     C_R   0.515193 0.302938 0.264256 -0.168190
C5    C     C_R   0.500580 0.269073 0.193657 -0.019006
C6    C     C_R   0.072190 0.680857 0.346285 -0.090166
C7    C     C_R   0.948785 0.810533 0.341764 -0.181562
C8    C     C_R   0.582315 0.017904 0.164138 0.306652
C9    C     C_R   0.662387 0.911464 0.113687 -0.056235
C10   C     C_R   0.276297 0.475509 0.187672 -0.158764
C11   C     C_R   0.266859 0.485437 0.263710 0.000106
C12   C     C_R   0.416547 0.382981 0.382936 0.563084
C13   C     C_R   0.858785 0.838352 0.284407 -0.105404
C14   C     C_R   0.881385 0.728896 0.239446 -0.090824
C15   C     C_R   0.007494 0.602556 0.242144 -0.131277
C16   C     C_R   0.116394 0.583183 0.289268 0.033812
C17   C     C_R   0.395166 0.393050 0.303635 -0.005763
C18   C     C_R   0.880015 0.217185 0.301862 -0.148438
C19   C     C_R   0.904471 0.202830 0.228484 0.208324
C20   C     C_R   0.877139 0.322446 0.187966 0.035453
C21   C     C_R   0.834740 0.448278 0.222102 -0.187810
C22   C     C_R   0.835919 0.453334 0.295221 -0.116874
C23   C     C_R   0.780500 0.377250 0.404552 0.546632
C24   C     C_R   0.843794 0.343591 0.334921 -0.010411
C25   C     C_R   0.482753 0.774531 0.285836 0.256661
C26   C     C_R   0.481074 0.776646 0.210529 -0.071757
C27   C     C_R   0.355968 0.814794 0.172713 -0.011955
C28   C     C_R   0.247715 0.813604 0.210115 -0.121444
C29   C     C_R   0.241514 0.828267 0.282423 -0.176168
C30   C     C_R   0.358953 0.802444 0.321622 0.003310
C31   C     C_R   0.365411 0.196868 0.687664 -0.145918
C32   C     C_R   0.346247 0.178440 0.758630 -0.163194
C33   C     C_R   0.284537 0.293313 0.805456 0.016955
C34   C     C_R   0.345208 0.769592 0.604538 0.544226
C35   C     C_R   0.234636 0.430343 0.779728 0.214624
C36   C     C_R   0.247229 0.448064 0.707624 -0.075984
C37   C     C_R   0.319196 0.331284 0.662503 -0.022190
C38   C     C_R   0.905584 0.394807 0.707950 -0.108427
C39   C     C_R   0.942758 0.376033 0.779446 -0.130240
C40   C     C_R   0.922223 0.283333 0.820592 0.016138
C41   C     C_R   0.874985 0.200112 0.787829 -0.133389
C42   C     C_R   0.835222 0.220585 0.715911 -0.136609
C43   C     C_R   0.843929 0.323368 0.676741 0.026805
C44   C     C_R   0.199102 0.848273 0.710947 -0.167142
C45   C     C_R   0.368901 0.350390 0.594965 0.556340
C46   C     C_R   0.189198 0.855690 0.784352 -0.119201
C47   C     C_R   0.302376 0.839218 0.826175 -0.012755
C48   C     C_R   0.427600 0.809797 0.793994 -0.077868
C49   C     C_R   0.436964 0.808248 0.720329 0.219560
C50   C     C_R   0.323411 0.821323 0.677905 0.008415
C51   C     C_R   0.917467 0.311846 0.113553 0.553027
C52   C     C_R   0.332671 0.299089 0.090006 0.560531
C53   C     C_R   0.311854 0.889542 0.102972 0.568795
C54   C     C_R   0.947629 0.280516 0.897406 0.553314
C55   C     C_R   0.274352 0.262429 0.879404 0.518550
C56   C     C_R   0.768109 0.374157 0.609026 0.553360
C57   C     C_R   0.275996 0.892656 0.898610 0.524846
C58   C     C_R   0.772373 0.907011 0.076381 -0.179785
C59   C     C_R   0.796014 0.017875 0.081568 -0.083218
C60   C     C_R   0.709680 0.132434 0.124229 -0.078153
Cr1   Cr    Cr6+3 0.601770 0.606860 0.505860 1.016013
Cr2   Cr    Cr6+3 0.291380 0.601660 0.495070 0.979834
Cr3   Cr    Cr6+3 0.606880 0.291510 0.499120 0.996741
Cr4   Cr    Cr6+3 0.062440 0.063090 0.008210 1.009038
Cr5   Cr    Cr6+3 0.062880 0.375170 0.998920 1.007677
Cr6   Cr    Cr6+3 0.374700 0.061720 0.992470 1.028877
H1    H     H_    0.613625 0.236531 0.292051 0.126276
H2    H     H_    0.768526 0.941550 0.277784 0.100811
H3    H     H_    0.803353 0.740487 0.201854 0.113013
H4    H     H_    0.024873 0.524682 0.202024 0.123633
H5    H     H_    0.889198 0.130786 0.332801 0.101501
H6    H     H_    0.809098 0.540275 0.191807 0.127349
H7    H     H_    0.822163 0.546854 0.320563 0.214379
H8    H     H_    0.573588 0.757103 0.183605 0.113937
H9    H     H_    0.156588 0.820880 0.183701 0.182960
H10   H     H_    0.636817 0.832672 0.099443 0.112049
H11   H     H_    0.145138 0.855293 0.308069 0.150149
H12   H     H_    0.420972 0.106435 0.653169 0.128421
H13   H     H_    0.384056 0.073562 0.777901 0.144657
H14   H     H_    0.213573 0.552737 0.688776 0.165049
H15   H     H_    0.916128 0.472571 0.678554 0.151351
H16   H     H_    0.981026 0.439687 0.803540 0.166145
H17   H     H_    0.861096 0.125753 0.818395 0.136978
H18   H     H_    0.788968 0.163242 0.692584 0.139517
H19   H     H_    0.110305 0.859206 0.680220 0.145045
H20   H     H_    0.923531 0.889172 0.382855 0.105051
H21   H     H_    0.090393 0.880740 0.807983 0.162362
H22   H     H_    0.514519 0.800542 0.825906 0.159959
H23   H     H_    0.833272 0.821549 0.039778 0.112328
H24   H     H_    0.875359 0.018673 0.049015 0.174559
H25   H     H_    0.716789 0.225829 0.120828 0.142166
H26   H     H_    0.122616 0.664997 0.395706 0.206665
H27   H     H_    0.191720 0.550975 0.153970 0.125180
O1    O     O_R   0.748800 0.497470 0.428000 -0.511818
O2    O     O_R   0.300070 0.471040 0.567100 -0.508114
O3    O     O_R   0.491670 0.258900 0.574910 -0.510773
O4    O     O_R   0.718780 0.304180 0.577850 -0.508100
O5    O     O_3   0.500010 0.500010 0.500020 -0.263219
O6    O     O_R   0.186690 0.923650 0.086970 -0.505443
O7    O     O_R   0.957250 0.194250 0.084630 -0.455036
O8    O     O_R   0.934970 0.407490 0.085330 -0.541296
O9    O     O_R   0.203780 0.365190 0.067090 -0.514792
O10   O     O_R   0.417600 0.174890 0.067840 -0.461311
O11   O     O_R   0.375320 0.946260 0.070860 -0.457828
O12   O     O_R   0.476420 0.724060 0.429470 -0.476176
O13   O     O_R   0.160600 0.919630 0.926660 -0.529873
O14   O     O_R   0.933060 0.190520 0.936020 -0.516328
O15   O     O_R   0.908880 0.403460 0.925020 -0.506853
O16   O     O_R   0.179600 0.361450 0.918490 -0.510115
O17   O     O_R   0.391510 0.170860 0.907530 -0.511994
O18   O     O_R   0.351130 0.942530 0.922260 -0.532636
O19   O     O_3   0.166667 0.166667 0.999870 -0.288410
O20   O     O_R   0.264580 0.744340 0.416750 -0.571001
O21   O     O_R   0.309380 0.472470 0.418200 -0.531633
O22   O     O_R   0.501710 0.260430 0.414300 -0.534087
O23   O     O_R   0.728090 0.305600 0.428960 -0.525574
O24   O     O_R   0.738760 0.495930 0.588610 -0.498910
O25   O     O_R   0.467110 0.722640 0.578360 -0.488776
O26   O     O_R   0.254530 0.742800 0.577360 -0.532286
O27   O     O_3   0.957136 0.073579 0.196467 -0.699573
H28   H     H_    0.951290 0.008811 0.230306 0.310014
O28   O     O_3   0.604303 0.747062 0.322556 -0.565222
C61   C     C_3   0.585723 0.863681 0.364098 0.026640
H29   H     H_    0.479376 0.928658 0.387049 0.106559
H30   H     H_    0.602964 0.933632 0.330327 0.119053
C62   C     C_3   0.691531 0.815132 0.425984 -0.318109
H31   H     H_    0.707027 0.902409 0.443675 0.075804
H32   H     H_    0.653305 0.783552 0.472426 0.167153
H33   H     H_    0.793645 0.724659 0.409788 0.167499
O29   O     O_3   0.180990 0.547376 0.823003 -0.702173
H34   H     H_    0.235764 0.520753 0.868262 0.347603
O30   O     O_3   0.557963 0.794107 0.692401 -0.684026
H35   H     H_    0.531182 0.855085 0.649840 0.320762
O31   O     O_3   0.453425 0.029738 0.181317 -0.543219
C63   C     C_3   0.384081 0.098129 0.245250 -0.011524
H36   H     H_    0.432912 0.142989 0.278294 0.119987
H37   H     H_    0.385484 0.021826 0.280834 0.124758
C64   C     C_3   0.226612 0.192045 0.233223 -0.340998
H38   H     H_    0.183935 0.129415 0.208948 0.190714
H39   H     H_    0.174220 0.235108 0.285136 0.099194
H40   H     H_    0.199423 0.280239 0.197728 0.157419

loop_
_geom_bond_atom_site_label_1
_geom_bond_atom_site_label_2
_ccdc_geom_bond_type
C34   O25   A    
C63   C64   S    
C52   O10   A    
C33   C55   S    
C62   H31   S    
C56   O24   A    
C35   C36   A    
Cr5   O8    S    
C63   H36   S    
C53   O6    A    
C52   O9    A    
C26   C27   A    
C54   O14   A    
Cr4   O14   S    
C18   C24   A    
C56   O4    A    
C28   C29   A    
Cr2   O21   S    
Cr3   O5    S    
C38   C39   A    
C2    C60   A    
C61   H30   S    
C7    H20   S    
C53   O11   A    
C15   C16   A    
C41   H17   S    
C34   O26   A    
C9    C58   A    
C41   C42   A    
C26   H8    S    
C23   O23   A    
Cr2   O5    S    
Cr4   O6    S    
C11   C17   A    
Cr1   O5    S    
Cr2   O2    S    
O30   H35   S    
C12   C17   S    
C23   C24   S    
C48   H22   S    
C9    H10   S    
Cr6   O18   S    
Cr1   O12   S    
C25   O28   S    
Cr5   O15   S    
C12   O22   A    
Cr3   O22   S    
C57   O13   A    
C59   C60   A    
C13   C14   A    
C55   O16   A    
C1    O20   A    
Cr5   O9    S    
C44   C46   A    
C12   O21   A    
C49   O30   S    
C34   C50   S    
C21   H6    S    
Cr1   O24   S    
Cr6   O11   S    
C61   H29   S    
C42   H18   S    
Cr2   O20   S    
C36   H14   S    
C39   C40   A    
Cr1   O1    S    
C18   C19   A    
C61   C62   S    
C10   H27   S    
C58   C59   A    
C8    O31   S    
Cr3   O3    S    
C31   C37   A    
C59   H24   S    
Cr5   O19   S    
C29   C30   A    
C18   H5    S    
C47   C57   S    
C11   C16   S    
C47   C48   A    
C7    C13   A    
C8    C9    A    
Cr6   O17   S    
C35   O29   S    
Cr5   O16   S    
Cr2   O26   S    
C6    C7    A    
C64   H39   S    
C4    C17   A    
C48   C49   A    
C19   O27   S    
C40   C54   S    
C10   C11   A    
C55   O17   A    
C14   H3    S    
C22   C24   A    
C2    C5    S    
C51   O8    A    
C42   C43   A    
Cr3   O23   S    
C37   C45   S    
C44   H19   S    
C45   O2    A    
O27   H28   S    
C31   H12   S    
C46   H21   S    
C60   H25   S    
C44   C50   A    
C25   C30   A    
C63   H37   S    
C15   H4    S    
C46   C47   A    
C36   C37   A    
C62   H32   S    
Cr1   O25   S    
Cr6   O10   S    
C31   C32   A    
C2    C8    A    
C39   H16   S    
C4    C5    A    
C3    C5    A    
C64   H40   S    
C4    H1    S    
C3    C52   S    
C27   C53   S    
Cr4   O13   S    
O31   C63   S    
C20   C51   S    
C62   H33   S    
C23   O1    A    
C54   O15   A    
C51   O7    A    
C32   C33   A    
C19   C20   A    
O29   H34   S    
C25   C26   A    
C38   C43   A    
C38   H15   S    
C3    C10   A    
C32   H13   S    
C28   H9    S    
C57   O18   A    
C6    H26   S    
C1    C30   S    
C33   C35   A    
C58   H23   S    
Cr4   O19   S    
C64   H38   S    
C6    C16   A    
C43   C56   S    
Cr4   O7    S    
C29   H11   S    
C20   C21   A    
Cr3   O4    S    
C49   C50   A    
C27   C28   A    
C14   C15   A    
C40   C41   A    
C22   H7    S    
Cr6   O19   S    
O28   C61   S    
C21   C22   A    
C45   O3    A    
C1    O12   A    
C13   H2    S    
