data_mof_unit_27627.cif
_audit_creation_date              2012-10-26T20:23:36-0400
_audit_creation_method            fapswitch 2.2
_symmetry_space_group_name_H-M    P1
_symmetry_Int_Tables_number       1
_space_group_crystal_system       triclinic
_cell_length_a                    12.741718
_cell_length_b                    13.899998
_cell_length_c                    15.883065
_cell_angle_alpha                 90.227332
_cell_angle_beta                  92.059966
_cell_angle_gamma                 98.00232
_cell_volume                      2783.74047309

loop_
_atom_site_label
_atom_site_type_symbol
_atom_type_description
_atom_site_fract_x
_atom_site_fract_y
_atom_site_fract_z
_atom_type_partial_charge
C1    C     C_R   0.483537 0.315852 0.499053 0.546926
C2    C     C_1   0.145464 0.480757 0.483028 0.140525
C3    C     C_R   0.501361 0.500076 0.339590 0.543492
C4    C     C_R   0.498646 0.500006 0.660359 0.543023
C5    C     C_3   0.423503 0.435978 0.971858 0.257061
C6    C     C_3   0.581300 0.568602 0.028980 0.251081
C7    C     C_3   0.519109 0.412285 0.026848 -0.133051
C8    C     C_3   0.485662 0.592967 0.972992 -0.206205
C9    C     C_1   0.504620 0.500401 0.250163 -0.004729
C10   C     C_1   0.495586 0.500685 0.749689 -0.020163
C11   C     C_3   0.411141 0.523580 0.027818 0.245170
C12   C     C_R   0.516470 0.684138 0.500929 0.545346
C13   C     C_3   0.593200 0.481643 0.971842 0.280799
C14   C     C_3   0.506255 0.500897 0.083284 0.012482
C15   C     C_3   0.497641 0.503327 0.916544 -0.015287
C16   C     C_1   0.506515 0.500673 0.174809 0.015703
C17   C     C_1   0.494703 0.501674 0.825021 -0.015825
C18   C     C_1   0.525995 0.787388 0.501411 -0.034878
C19   C     C_1   0.474126 0.212601 0.497124 -0.033604
C20   C     C_3   0.287439 0.312299 0.000716 0.018710
C21   C     C_3   0.308632 0.207119 0.992564 -0.265960
C22   C     C_3   0.250999 0.142724 0.058842 -0.490243
C23   C     C_2   0.545172 0.979611 0.502075 0.290577
C24   C     C_3   0.676121 0.723289 0.029839 0.001931
C25   C     C_3   0.779935 0.783250 0.061060 -0.252459
C26   C     C_3   0.792880 0.885063 0.023829 -0.488014
C27   C     C_3   0.745595 0.533705 0.899138 0.029415
C28   C     C_3   0.811792 0.493988 0.832223 -0.256196
C29   C     C_3   0.868213 0.575411 0.779196 -0.488412
C30   C     C_3   0.247608 0.572520 0.001228 0.012298
C31   C     C_3   0.140620 0.579550 0.039472 -0.251355
C32   C     C_3   0.061707 0.610928 0.974226 -0.495221
C33   C     C_3   0.272735 0.008815 0.454800 0.008708
C34   C     C_2   0.455744 0.020460 0.491824 0.290280
C35   C     C_3   0.216769 0.044219 0.530532 -0.262092
C36   C     C_3   0.124264 0.096728 0.502177 -0.483757
C37   C     C_3   0.732449 0.991485 0.509350 0.009169
C38   C     C_3   0.764123 0.952144 0.595297 -0.263530
C39   C     C_3   0.861029 0.899490 0.589323 -0.484328
C40   C     C_1   0.465397 0.125568 0.494900 -0.016914
C41   C     C_1   0.535012 0.874445 0.501800 -0.017397
C42   C     C_2   0.028556 0.473411 0.476377 -0.159162
C43   C     C_2   0.971395 0.526479 0.524317 -0.165722
C44   C     C_1   0.854520 0.519224 0.517330 0.135652
Cu1   Cu    Cu3+1 0.395330 0.493960 0.494680 0.999168
Cu2   Cu    Cu3+1 0.604670 0.506040 0.505320 0.989287
H1    H     H_    0.533866 0.339820 0.049602 0.111456
H2    H     H_    0.267650 0.066953 0.050984 0.148213
H3    H     H_    0.164022 0.143166 0.051651 0.147290
H4    H     H_    0.608625 0.760015 0.049701 0.143790
H5    H     H_    0.675935 0.719084 0.959755 0.107478
H6    H     H_    0.781186 0.789067 0.130926 0.178598
H7    H     H_    0.847696 0.746152 0.042796 0.160125
H8    H     H_    0.794042 0.880951 0.954007 0.143605
H9    H     H_    0.868846 0.926697 0.047835 0.146579
H10   H     H_    0.726769 0.924104 0.042312 0.150418
H11   H     H_    0.799443 0.577844 0.945563 0.163481
H12   H     H_    0.471130 0.665180 0.949406 0.081812
H13   H     H_    0.694006 0.582002 0.867288 0.114275
H14   H     H_    0.871559 0.453520 0.863360 0.166682
H15   H     H_    0.759189 0.442866 0.789942 0.191693
H16   H     H_    0.809270 0.612700 0.743485 0.159053
H17   H     H_    0.918706 0.544454 0.733542 0.152459
H18   H     H_    0.919203 0.629294 0.819964 0.138508
H19   H     H_    0.234818 0.519841 0.947561 0.168169
H20   H     H_    0.280621 0.645420 0.977707 0.129674
H21   H     H_    0.107801 0.507565 0.064767 0.174701
H22   H     H_    0.151729 0.633069 0.092349 0.178687
H23   H     H_    0.012722 0.577326 0.570482 0.120552
H24   H     H_    0.092260 0.683225 0.948524 0.141911
H25   H     H_    0.985289 0.615921 0.004229 0.149636
H26   H     H_    0.047516 0.556927 0.921906 0.150783
H27   H     H_    0.214817 0.955339 0.418993 0.156276
H28   H     H_    0.296332 0.068505 0.409766 0.120436
H29   H     H_    0.186430 0.980873 0.569558 0.170524
H30   H     H_    0.273418 0.094489 0.570347 0.169754
H31   H     H_    0.153353 0.162066 0.465146 0.160340
H32   H     H_    0.084369 0.120115 0.558235 0.150795
H33   H     H_    0.065516 0.047637 0.462998 0.136819
H34   H     H_    0.987145 0.422566 0.430254 0.127999
H35   H     H_    0.798950 0.045968 0.489391 0.154628
H36   H     H_    0.722607 0.933992 0.459503 0.123363
H37   H     H_    0.782511 0.013517 0.640944 0.173256
H38   H     H_    0.697638 0.900925 0.619665 0.163150
H39   H     H_    0.843601 0.836611 0.545194 0.159364
H40   H     H_    0.882264 0.872277 0.652433 0.144701
H41   H     H_    0.929715 0.949745 0.567021 0.144940
H42   H     H_    0.200961 0.314280 0.991130 0.150113
H43   H     H_    0.309081 0.339444 0.066198 0.145539
H44   H     H_    0.281476 0.178552 0.928822 0.178565
H45   H     H_    0.395168 0.204364 0.000155 0.164592
H46   H     H_    0.278725 0.168746 0.123143 0.148481
N1    N     N_1   0.238040 0.484880 0.486690 -0.185029
N2    N     N_1   0.761960 0.515120 0.513310 -0.186440
O1    O     O_R   0.399110 0.356330 0.494860 -0.499447
O2    O     O_3   0.668819 0.630100 0.065556 -0.559380
O3    O     O_3   0.687814 0.454966 0.940999 -0.552693
O4    O     O_3   0.316395 0.542077 0.064052 -0.569960
O5    O     O_3   0.358258 0.960022 0.481886 -0.592468
O6    O     O_3   0.642219 0.039907 0.515563 -0.591841
O7    O     O_R   0.600890 0.643670 0.505140 -0.500676
O8    O     O_R   0.575890 0.366540 0.503840 -0.477822
O9    O     O_R   0.424110 0.633460 0.496160 -0.478168
O10   O     O_R   0.411620 0.494890 0.374590 -0.487587
O11   O     O_R   0.588380 0.505110 0.625410 -0.498600
O12   O     O_R   0.588400 0.505100 0.383570 -0.488219
O13   O     O_R   0.411600 0.494900 0.616430 -0.488054
O14   O     O_3   0.340012 0.368741 0.936858 -0.569178

loop_
_geom_bond_atom_site_label_1
_geom_bond_atom_site_label_2
_ccdc_geom_bond_type
C3    O10   A    
C22   H2    S    
C29   H17   S    
C42   H34   S    
C38   H37   S    
C35   C36   S    
C39   H41   S    
Cu1   N1    S    
C26   H9    S    
C32   H26   S    
Cu1   Cu2   S    
C31   H21   S    
Cu2   O8    S    
C35   H29   S    
C11   O4    S    
C34   C40   S    
C28   C29   S    
C9    C16   T    
C25   H7    S    
C5    C11   S    
C36   H31   S    
C24   O2    S    
C30   C31   S    
C11   C14   S    
C10   C17   T    
Cu2   O11   S    
C20   H42   S    
Cu1   O9    S    
C8    H12   S    
C7    C14   S    
C28   H15   S    
C24   H5    S    
C23   O6    S    
C29   H18   S    
C43   H23   S    
C21   C22   S    
C37   H35   S    
C26   H8    S    
C4    O13   A    
C32   H25   S    
C21   H44   S    
C28   H14   S    
C3    O12   A    
C24   H4    S    
C31   H22   S    
Cu2   O7    S    
C35   H30   S    
C1    C19   S    
C24   C25   S    
C12   O9    A    
C27   H11   S    
C18   C41   T    
C5    C7    S    
C6    C8    S    
C25   C26   S    
C33   O5    S    
C7    H1    S    
C43   C44   S    
C37   C38   S    
C3    C9    S    
Cu1   O10   S    
C6    C14   S    
C31   C32   S    
Cu2   N2    S    
C1    O1    A    
C23   C34   D    
C34   O5    S    
C30   H20   S    
C22   H3    S    
C33   H27   S    
C8    C15   S    
C6    O2    S    
C13   C15   S    
C14   C16   S    
C37   H36   S    
C42   C43   D    
C39   H39   S    
C4    C10   S    
Cu1   O1    S    
C21   H45   S    
C4    O11   A    
C15   C17   S    
C29   H16   S    
C27   O3    S    
C38   H38   S    
C2    N1    T    
C36   H33   S    
C26   H10   S    
C32   H24   S    
C20   H43   S    
C30   O4    S    
C23   C41   S    
C25   H6    S    
C12   O7    A    
C27   H13   S    
C6    C13   S    
C38   C39   S    
C2    C42   S    
C8    C11   S    
Cu2   O12   S    
C33   C35   S    
C13   O3    S    
C5    C15   S    
C30   H19   S    
C44   N2    T    
C19   C40   T    
C33   H28   S    
C7    C13   S    
C20   C21   S    
C12   C18   S    
C27   C28   S    
C22   H46   S    
C36   H32   S    
C39   H40   S    
C1    O8    A    
C37   O6    S    
Cu1   O13   S    
C20   O14   S    
C5    O14   S    
