data_mof_unit_25901.cif
_audit_creation_date              2012-12-10T18:37:56-0500
_audit_creation_method            fapswitch 2.2
_symmetry_space_group_name_H-M    P1
_symmetry_Int_Tables_number       1
_space_group_crystal_system       triclinic
_cell_length_a                    14.961683
_cell_length_b                    15.465156
_cell_length_c                    27.59922
_cell_angle_alpha                 89.617042
_cell_angle_beta                  104.948764
_cell_angle_gamma                 81.661449
_cell_volume                      6098.19243455

loop_
_atom_site_label
_atom_site_type_symbol
_atom_type_description
_atom_site_fract_x
_atom_site_fract_y
_atom_site_fract_z
_atom_type_partial_charge
C1    C     C_R   0.441281 0.661868 0.489978 1.033065
C2    C     C_R   0.405404 0.494394 0.111447 -0.011208
C3    C     C_R   0.501997 0.508800 0.646899 -0.336750
C4    C     C_R   0.490483 0.507413 0.351336 -0.306096
C5    C     C_R   0.385728 0.520263 0.007316 0.086470
C6    C     C_R   0.519286 0.602556 0.977676 0.087161
C7    C     C_R   0.505609 0.616767 0.026029 -0.078554
C8    C     C_R   0.377359 0.533497 0.955476 -0.077810
C9    C     C_R   0.447481 0.564830 0.042384 0.044303
C10   C     C_R   0.452815 0.563829 0.941870 0.044671
C11   C     C_R   0.342130 0.457125 0.025253 -0.167471
C12   C     C_R   0.558710 0.337759 0.508382 0.991086
C13   C     C_R   0.601853 0.617131 0.965891 -0.168477
C14   C     C_R   0.350427 0.444207 0.076410 0.121623
C15   C     C_R   0.614910 0.603477 0.918075 0.118917
C16   C     C_R   0.501446 0.500431 0.594046 1.040734
C17   C     C_R   0.497829 0.501258 0.405639 0.992457
C18   C     C_R   0.300878 0.513428 0.916736 0.398189
C19   C     C_R   0.550626 0.675925 0.059800 0.395586
C20   C     C_R   0.404402 0.754554 0.480273 -0.177597
C21   C     C_R   0.595169 0.244512 0.512498 -0.222092
C22   C     C_R   0.284815 0.877578 0.482187 0.383918
C23   C     C_R   0.463340 0.552766 0.892845 -0.092119
C24   C     C_R   0.713685 0.125575 0.502784 0.442347
C25   C     C_R   0.316097 0.787600 0.486471 -0.227159
C26   C     C_R   0.683455 0.215005 0.505010 -0.233817
C27   C     C_R   0.460322 0.811221 0.467357 0.319267
C28   C     C_R   0.537367 0.184263 0.518939 0.338808
C29   C     C_R   0.441359 0.899977 0.477023 -0.052922
C30   C     C_R   0.556173 0.099188 0.502938 -0.086198
C31   C     C_R   0.348570 0.934962 0.478215 -0.021240
C32   C     C_R   0.649192 0.066479 0.501640 -0.043776
C33   C     C_R   0.511913 0.954455 0.486820 0.138674
C34   C     C_R   0.453634 0.555083 0.094052 -0.093043
C35   C     C_R   0.485893 0.045127 0.489673 0.123278
C36   C     C_R   0.390136 0.079945 0.477342 -0.143125
C37   C     C_R   0.608026 0.920621 0.497484 -0.127631
C38   C     C_R   0.322873 0.025945 0.474713 -0.075962
C39   C     C_R   0.674765 0.975783 0.501126 -0.083166
C40   C     C_R   0.404596 0.508310 0.808116 0.581899
C41   C     C_R   0.517031 0.593688 0.179566 0.585076
C42   C     C_R   0.832075 0.656605 0.561160 0.005111
C43   C     C_R   0.165242 0.347804 0.434515 0.002353
C44   C     C_R   0.746519 0.626314 0.553580 0.056501
C45   C     C_R   0.393165 0.520332 0.856394 -0.105212
C46   C     C_R   0.251557 0.377244 0.443326 0.128751
C47   C     C_R   0.798080 0.503656 0.511368 0.035083
C48   C     C_R   0.202815 0.493860 0.490324 -0.026592
C49   C     C_R   0.885810 0.530676 0.516541 -0.031204
C50   C     C_R   0.113397 0.469416 0.482435 -0.038994
C51   C     C_R   0.901914 0.609210 0.541736 0.130981
C52   C     C_R   0.095972 0.393373 0.455071 0.142554
C53   C     C_R   0.956231 0.483982 0.496389 0.098705
C54   C     C_R   0.042446 0.516569 0.501921 0.083838
C55   C     C_R   0.054688 0.595792 0.526208 -0.190858
C56   C     C_R   0.509799 0.604857 0.128334 -0.108501
C57   C     C_R   0.942843 0.406493 0.470352 -0.153109
C58   C     C_R   0.986321 0.640450 0.545978 -0.118843
C59   C     C_R   0.010616 0.363173 0.449557 -0.155994
C60   C     C_R   0.552357 0.559499 0.831269 0.567333
C61   C     C_R   0.416122 0.484888 0.163524 0.560144
C62   C     C_R   0.555398 0.456653 0.734297 -0.122794
C63   C     C_R   0.400164 0.553145 0.265976 -0.156850
C64   C     C_R   0.563499 0.450253 0.685101 0.375755
C65   C     C_R   0.404423 0.545212 0.316859 0.322330
C66   C     C_R   0.440489 0.577743 0.660216 0.390187
C67   C     C_R   0.311404 0.504043 0.868179 -0.154717
C68   C     C_R   0.569158 0.476978 0.332576 0.407724
C69   C     C_R   0.433656 0.581434 0.709472 -0.138076
C70   C     C_R   0.561824 0.487417 0.281388 -0.135327
C71   C     C_R   0.489694 0.520677 0.746131 0.130811
C72   C     C_R   0.478035 0.525195 0.248415 0.144221
C73   C     C_R   0.554680 0.666975 0.110712 -0.154632
C74   C     C_R   0.544501 0.572604 0.880581 -0.015768
H1    H     H_    0.728896 0.261751 0.501398 0.236597
H2    H     H_    0.690450 0.662303 0.566752 0.146409
H3    H     H_    0.115813 0.626799 0.529836 0.188815
H4    H     H_    0.880313 0.377078 0.464870 0.187864
H5    H     H_    0.386539 0.633153 0.720201 0.214247
H6    H     H_    0.621176 0.465483 0.266585 0.211136
H7    H     H_    0.253979 0.486075 0.839154 0.233982
H8    H     H_    0.591617 0.710404 0.136499 0.235603
H9    H     H_    0.335807 0.581467 0.239183 0.204183
H10   H     H_    0.601203 0.412379 0.763918 0.199712
H11   H     H_    0.304853 0.413785 0.999923 0.202873
H12   H     H_    0.271600 0.743036 0.494275 0.223575
H13   H     H_    0.659389 0.635203 0.994432 0.201962
H14   H     H_    0.251232 0.056448 0.469789 0.214403
H15   H     H_    0.746545 0.946233 0.505411 0.218583
H16   H     H_    0.297251 0.792001 0.622020 0.413613
H17   H     H_    0.800143 0.343029 0.358668 0.387289
H18   H     H_    0.327736 0.273185 0.559852 0.394116
H19   H     H_    0.582363 0.842148 0.370366 0.407772
H20   H     H_    0.097834 0.804721 0.464343 0.368209
H21   H     H_    0.944398 0.154112 0.488318 0.407743
H22   H     H_    0.785091 0.766737 0.594041 0.199980
H23   H     H_    0.366888 0.149387 0.471011 0.188238
H24   H     H_    0.894383 0.718403 0.621810 0.218390
H25   H     H_    0.210152 0.241578 0.397985 0.188749
H26   H     H_    0.101345 0.292587 0.371606 0.213054
H27   H     H_    0.245926 0.460943 0.319102 0.350788
H28   H     H_    0.807400 0.358429 0.702551 0.397111
H29   H     H_    0.327609 0.318826 0.079435 0.207384
H30   H     H_    0.231847 0.394732 0.074608 0.222028
H31   H     H_    0.707479 0.685471 0.915791 0.230780
H32   H     H_    0.756153 0.580742 0.933740 0.205355
H33   H     H_    0.098624 0.423064 0.934464 0.398353
H34   H     H_    0.632779 0.851449 0.502945 0.187648
H35   H     H_    0.715630 0.812600 0.035971 0.401790
H36   H     H_    0.999824 0.700955 0.564018 0.204328
H37   H     H_    0.995883 0.304578 0.429660 0.182814
H38   H     H_    0.224102 0.547538 0.512288 0.178070
H39   H     H_    0.778495 0.445852 0.492799 0.169235
H40   H     H_    0.306848 0.343071 0.428822 0.131497
N1    N     N_R   0.483012 0.527952 0.796657 -0.344221
N2    N     N_R   0.470980 0.534263 0.195957 -0.343409
N3    N     N_R   0.731710 0.552720 0.528410 -0.116777
N4    N     N_R   0.268290 0.447280 0.471590 -0.101857
N5    N     N_3   0.847082 0.735950 0.586873 -0.427292
N6    N     N_3   0.148651 0.271490 0.406052 -0.437635
N7    N     N_3   0.303368 0.379072 0.092097 -0.353904
N8    N     N_3   0.700735 0.620131 0.908508 -0.345959
O1    O     O_R   0.383110 0.605620 0.485680 -0.588260
O2    O     O_2   0.569172 0.642114 0.212857 -0.505166
O3    O     O_2   0.372840 0.426790 0.182013 -0.507747
O4    O     O_2   0.627471 0.579143 0.817437 -0.482402
O5    O     O_2   0.449968 0.704721 0.596845 -0.341873
O6    O     O_2   0.307550 0.636308 0.576873 -0.353028
O7    O     O_3   0.328475 0.745409 0.648241 -0.512055
O8    O     O_2   0.732965 0.492582 0.395738 -0.287656
O9    O     O_2   0.662982 0.363238 0.409583 -0.347728
O10   O     O_3   0.738842 0.365763 0.335178 -0.530309
O11   O     O_2   0.455641 0.121394 0.585804 -0.240366
O12   O     O_R   0.616890 0.394380 0.514320 -0.603505
O13   O     O_2   0.511114 0.261676 0.602455 -0.225378
O14   O     O_3   0.359021 0.258905 0.532738 -0.592672
O15   O     O_2   0.620868 0.727286 0.449702 -0.305498
O16   O     O_2   0.474942 0.720348 0.386137 -0.259866
O17   O     O_3   0.542317 0.865825 0.392182 -0.521451
O18   O     O_2   0.175232 0.974420 0.530648 -0.218634
O19   O     O_2   0.113856 0.965823 0.439983 -0.269228
O20   O     O_3   0.116074 0.831124 0.497377 -0.509085
O21   O     O_2   0.884073 0.035632 0.542737 -0.243153
O22   O     O_2   0.824675 0.039559 0.451115 -0.244518
O23   O     O_R   0.531900 0.639510 0.503910 -0.605252
O24   O     O_3   0.882138 0.178926 0.492534 -0.557337
O25   O     O_2   0.318115 0.639732 0.378513 -0.229468
O26   O     O_2   0.228712 0.636282 0.291410 -0.248125
O27   O     O_3   0.252750 0.497322 0.348855 -0.534589
O28   O     O_2   0.652851 0.285923 0.700441 -0.227480
O29   O     O_2   0.654638 0.359922 0.622136 -0.281576
O30   O     O_3   0.757770 0.406468 0.705455 -0.515716
O31   O     O_2   0.173697 0.567547 0.968686 -0.273147
O32   O     O_2   0.116935 0.563041 0.877486 -0.237799
O33   O     O_3   0.162113 0.415575 0.928984 -0.561532
O34   O     O_R   0.468100 0.360490 0.496090 -0.602290
O35   O     O_2   0.538168 0.796105 0.985572 -0.267352
O36   O     O_2   0.557886 0.846914 0.070855 -0.236906
O37   O     O_3   0.702020 0.757970 0.049561 -0.560430
O38   O     O_R   0.425620 0.483050 0.562130 -0.583168
O39   O     O_R   0.574380 0.516950 0.437870 -0.534814
O40   O     O_R   0.574410 0.516930 0.580360 -0.587270
O41   O     O_R   0.425590 0.483070 0.419640 -0.586877
O42   O     O_2   0.337942 0.477229 0.772711 -0.515913
S1    S     S_3+6 0.380666 0.667043 0.618361 0.021357
S2    S     S_3+6 0.585095 0.772709 0.040074 0.040281
S3    S     S_3+6 0.677901 0.423912 0.370605 0.027758
S4    S     S_3+6 0.465868 0.205798 0.561903 0.061358
S5    S     S_3+6 0.526904 0.777773 0.423456 0.046025
S6    S     S_3+6 0.170069 0.915175 0.487390 0.073426
S7    S     S_3+6 0.828814 0.091774 0.497179 0.074203
S8    S     S_3+6 0.299093 0.583394 0.334057 0.091043
S9    S     S_3+6 0.656710 0.372203 0.676252 0.081931
S10   S     S_3+6 0.185338 0.517842 0.923528 0.036819
Zn1   Zn    Zn3+2 0.400660 0.477380 0.487830 1.075697
Zn2   Zn    Zn3+2 0.599340 0.522620 0.512170 1.087264

loop_
_geom_bond_atom_site_label_1
_geom_bond_atom_site_label_2
_ccdc_geom_bond_type
C21   C26   A    
C63   C65   A    
O34   Zn1   S    
C34   C56   A    
O29   S9    D    
C15   N8    S    
C16   O38   A    
O27   S8    S    
H22   N5    S    
C1    O23   A    
C35   C36   A    
O10   S3    S    
O41   Zn1   S    
C1    O1    A    
H24   N5    S    
C47   C49   A    
C3    C64   A    
O22   S7    D    
O36   S2    D    
C50   C54   A    
O12   Zn2   S    
C30   C35   A    
C23   C45   A    
C41   O2    S    
C24   C26   A    
C42   C51   A    
C40   O42   S    
C4    C65   A    
C55   H3    S    
C11   C14   A    
C43   C52   A    
C57   C59   A    
C66   C69   A    
O40   Zn2   S    
C20   C25   A    
C29   C33   A    
C27   C29   A    
C46   N4    A    
C69   C71   A    
C32   C39   A    
H27   O27   S    
C60   O4    S    
C44   H2    S    
C24   S7    S    
C25   H12   S    
C62   C64   A    
C17   O41   A    
O26   S8    D    
H25   N6    S    
H16   O7    S    
O8    S3    D    
C49   C51   A    
C22   C25   A    
C45   C67   A    
C50   C52   A    
O13   S4    D    
C36   H23   S    
H26   N6    S    
C19   S2    S    
C27   S5    S    
O15   S5    D    
C2    C61   A    
C43   N6    S    
O20   S6    S    
C2    C34   A    
C48   C50   A    
O9    S3    D    
C14   N7    S    
C12   O12   A    
O24   S7    S    
O16   S5    D    
C13   H13   S    
H18   O14   S    
H21   O24   S    
C42   C44   A    
C12   O34   A    
C2    C14   A    
C40   C45   A    
C37   C39   A    
C70   C72   A    
C22   C31   A    
O32   S10   D    
C65   S8    S    
C70   H6    S    
H20   O20   S    
C19   C73   A    
C37   H34   S    
O11   S4    D    
C4    C68   A    
O39   Zn2   S    
C46   H40   S    
C48   N4    A    
H30   N7    S    
O14   S4    S    
C16   O40   A    
C18   C67   A    
C53   C54   A    
O31   S10   D    
C33   C37   A    
C38   H14   S    
C15   C74   A    
C24   C32   A    
C41   C56   A    
C5    C9    A    
H19   O17   S    
C52   C59   A    
C59   H37   S    
O23   Zn2   S    
O5    S1    D    
H32   N8    S    
C61   N2    A    
C26   H1    S    
C71   N1    S    
C51   C58   A    
C22   S6    S    
C17   O39   A    
O30   S9    S    
C18   S10   S    
O33   S10   S    
C8    C10   A    
C48   H38   S    
C21   C28   A    
N4    Zn1   S    
C67   H7    S    
C7    C19   A    
C13   C15   A    
C9    C34   A    
O38   Zn1   S    
C69   H5    S    
C3    C66   A    
C4    C17   S    
C23   C74   A    
H35   O37   S    
C73   H8    S    
O25   S8    D    
N3    Zn2   S    
C47   H39   S    
C62   H10   S    
C54   C55   A    
C1    C20   S    
O18   S6    D    
C56   C73   A    
C66   S1    S    
C58   H36   S    
C57   H4    S    
C53   C57   A    
O35   S2    D    
C6    C10   A    
C5    C8    A    
O1    Zn1   S    
C31   C38   A    
C5    C11   A    
C6    C7    A    
H17   O10   S    
C20   C27   A    
C10   C23   A    
C72   N2    S    
O37   S2    S    
O7    S1    S    
C36   C38   A    
O21   S7    D    
C28   C30   A    
C29   C31   A    
C6    C13   A    
C30   C32   A    
O6    S1    D    
C44   N3    A    
C11   H11   S    
C49   C53   A    
C12   C21   S    
C60   C74   A    
O19   S6    D    
C33   C35   A    
C62   C71   A    
H31   N8    S    
O17   S5    S    
C42   N5    S    
C43   C46   A    
C8    C18   A    
C28   S4    S    
C40   N1    A    
C68   S3    S    
C7    C9    A    
C47   N3    A    
O28   S9    D    
C63   C72   A    
C68   C70   A    
C55   C58   A    
C63   H9    S    
C60   N1    A    
C61   O3    S    
C41   N2    A    
C64   S9    S    
C39   H15   S    
H33   O33   S    
C3    C16   S    
H28   O30   S    
H29   N7    S    
