data_mof_unit_8573.cif
_audit_creation_date              2012-12-10T17:53:40-0500
_audit_creation_method            fapswitch 2.2
_symmetry_space_group_name_H-M    P1
_symmetry_Int_Tables_number       1
_space_group_crystal_system       triclinic
_cell_length_a                    21.859743
_cell_length_b                    29.997523
_cell_length_c                    31.070268
_cell_angle_alpha                 90.025366
_cell_angle_beta                  89.345892
_cell_angle_gamma                 90.027953
_cell_volume                      20372.6277994

loop_
_atom_site_label
_atom_site_type_symbol
_atom_type_description
_atom_site_fract_x
_atom_site_fract_y
_atom_site_fract_z
_atom_type_partial_charge
C1    C     C_R   0.249604 0.060440 0.940370 0.971417
C2    C     C_R   0.251328 0.939368 0.440266 0.958043
C3    C     C_R   0.564712 0.499443 0.998969 -0.130434
C4    C     C_R   0.436392 0.999403 0.497723 -0.131952
C5    C     C_R   0.563064 0.999118 0.502173 -0.157413
C6    C     C_R   0.937781 0.499636 0.497725 -0.158665
C7    C     C_R   0.064696 0.499441 0.498944 -0.130741
C8    C     C_R   0.249955 0.810047 0.309974 0.886556
C9    C     C_R   0.749608 0.189903 0.309927 0.889813
C10   C     C_R   0.250182 0.189958 0.689689 0.894777
C11   C     C_R   0.750160 0.810095 0.689708 0.892042
C12   C     C_R   0.749837 0.309954 0.310423 0.891930
C13   C     C_R   0.750387 0.939650 0.559615 0.956967
C14   C     C_R   0.249622 0.689964 0.310061 0.884417
C15   C     C_R   0.750306 0.690000 0.689863 0.889332
C16   C     C_R   0.250145 0.310355 0.689991 0.893424
C17   C     C_R   0.749783 0.809726 0.810587 0.893760
C18   C     C_R   0.249713 0.189870 0.810181 0.894414
C19   C     C_R   0.750288 0.189874 0.189863 0.893486
C20   C     C_R   0.250151 0.810129 0.189765 0.888397
C21   C     C_R   0.249839 0.309963 0.810415 0.896420
C22   C     C_R   0.749623 0.689953 0.810052 0.886853
C23   C     C_R   0.250312 0.689989 0.189875 0.889214
C24   C     C_R   0.250050 0.060377 0.559620 0.963874
C25   C     C_R   0.750144 0.310323 0.189965 0.893161
C26   C     C_R   0.370175 0.999090 0.000159 1.040385
C27   C     C_R   0.629912 0.999523 0.999771 1.043677
C28   C     C_R   0.870201 0.499258 0.000042 1.038110
C29   C     C_R   0.129957 0.499310 0.999626 1.042289
C30   C     C_R   0.870154 0.999531 0.499936 1.038863
C31   C     C_R   0.129830 0.000340 0.500191 1.038296
C32   C     C_R   0.370198 0.499245 0.500052 1.037819
C33   C     C_R   0.629954 0.499309 0.499628 1.041932
C34   C     C_R   0.130093 0.999852 0.000320 0.898918
C35   C     C_R   0.249056 0.560615 0.440312 0.960142
C36   C     C_R   0.870471 0.999965 0.999692 0.859841
C37   C     C_R   0.630265 0.499536 0.000340 0.891770
C38   C     C_R   0.370674 0.500162 0.999680 0.863500
C39   C     C_R   0.629678 0.999541 0.500806 0.879713
C40   C     C_R   0.370116 0.998884 0.498551 0.904523
C41   C     C_R   0.130258 0.499528 0.500344 0.891843
C42   C     C_R   0.870669 0.500172 0.499684 0.863461
C43   C     C_R   0.437440 0.913959 0.988844 0.528449
C44   C     C_R   0.562187 0.082036 0.995279 0.516243
C45   C     C_R   0.439557 0.080969 0.979028 0.477506
C46   C     C_R   0.750170 0.439547 0.440488 0.956870
C47   C     C_R   0.563943 0.916339 0.979110 0.477953
C48   C     C_R   0.937344 0.414052 0.988600 0.526576
C49   C     C_R   0.062861 0.581854 0.998082 0.514430
C50   C     C_R   0.940095 0.581896 0.982090 0.494177
C51   C     C_R   0.063813 0.416305 0.979263 0.474237
C52   C     C_R   0.937648 0.914964 0.489933 0.522481
C53   C     C_R   0.062630 0.084886 0.490479 0.524588
C54   C     C_R   0.936979 0.082512 0.481199 0.497993
C55   C     C_R   0.063631 0.917164 0.481940 0.494796
C56   C     C_R   0.437327 0.414001 0.488670 0.526866
C57   C     C_R   0.249770 0.439639 0.559673 0.950913
C58   C     C_R   0.562841 0.581855 0.498011 0.514368
C59   C     C_R   0.440084 0.581850 0.482006 0.494127
C60   C     C_R   0.563807 0.416270 0.479344 0.474803
C61   C     C_R   0.468629 0.880477 0.965430 -0.347182
C62   C     C_R   0.537641 0.115306 0.969059 -0.309394
C63   C     C_R   0.476207 0.114263 0.960283 -0.333018
C64   C     C_R   0.530437 0.882986 0.959028 -0.312425
C65   C     C_R   0.968632 0.380434 0.965406 -0.346759
C66   C     C_R   0.038010 0.616856 0.974295 -0.308031
C67   C     C_R   0.976629 0.616342 0.965475 -0.323938
C68   C     C_R   0.751599 0.560392 0.559784 0.953917
C69   C     C_R   0.030546 0.382702 0.959435 -0.312439
C70   C     C_R   0.969292 0.880920 0.467568 -0.349708
C71   C     C_R   0.031945 0.118974 0.468040 -0.353466
C72   C     C_R   0.970281 0.116828 0.462330 -0.298496
C73   C     C_R   0.031288 0.882923 0.462602 -0.299947
C74   C     C_R   0.468634 0.380370 0.465512 -0.347140
C75   C     C_R   0.537988 0.616806 0.474150 -0.308040
C76   C     C_R   0.476606 0.616270 0.465330 -0.323521
C77   C     C_R   0.530552 0.382633 0.459560 -0.313228
C78   C     C_R   0.533072 0.957020 0.991407 -0.086389
C79   C     C_R   0.249234 0.156672 0.843472 -0.079444
C80   C     C_R   0.467983 0.039626 0.991808 -0.079736
C81   C     C_R   0.532005 0.039707 0.996448 -0.084007
C82   C     C_R   0.468037 0.956480 0.993867 -0.070989
C83   C     C_R   0.032976 0.457035 0.991314 -0.086106
C84   C     C_R   0.968305 0.539911 0.993099 -0.086848
C85   C     C_R   0.032317 0.539659 0.997651 -0.089526
C86   C     C_R   0.967977 0.456585 0.993651 -0.070237
C87   C     C_R   0.032852 0.958474 0.492299 -0.091366
C88   C     C_R   0.967366 0.041263 0.491914 -0.091663
C89   C     C_R   0.032084 0.041996 0.494505 -0.074016
C90   C     C_R   0.749310 0.841962 0.844829 -0.102842
C91   C     C_R   0.968033 0.957785 0.494221 -0.074386
C92   C     C_R   0.532964 0.457010 0.491354 -0.086074
C93   C     C_R   0.468298 0.539884 0.493067 -0.086838
C94   C     C_R   0.532309 0.539647 0.497624 -0.089466
C95   C     C_R   0.467959 0.456553 0.493687 -0.070630
C96   C     C_R   0.563858 0.998372 0.998673 -0.169272
C97   C     C_R   0.436313 0.998439 0.997894 -0.170349
C98   C     C_R   0.063929 0.498241 0.998852 -0.165007
C99   C     C_R   0.936380 0.498587 0.998002 -0.169495
C100  C     C_R   0.063734 0.000142 0.498484 -0.169546
C101  C     C_R   0.250302 0.843444 0.156483 -0.085813
C102  C     C_R   0.936249 0.999599 0.497862 -0.168725
C103  C     C_R   0.563923 0.498231 0.498854 -0.165017
C104  C     C_R   0.436372 0.498563 0.498010 -0.169476
C105  C     C_R   0.194394 0.102064 0.885713 0.445356
C106  C     C_R   0.804166 0.881980 0.899299 0.477208
C107  C     C_R   0.194817 0.896535 0.113660 0.462330
C108  C     C_R   0.805042 0.118442 0.099935 0.457079
C109  C     C_R   0.702967 0.591314 0.875090 0.479497
C110  C     C_R   0.305306 0.385367 0.896477 0.448682
C111  C     C_R   0.694761 0.397415 0.114784 0.452061
C112  C     C_R   0.750711 0.939522 0.940447 0.967639
C113  C     C_R   0.751067 0.156475 0.156851 -0.094251
C114  C     C_R   0.298675 0.625927 0.093297 0.466947
C115  C     C_R   0.709073 0.088256 0.371454 0.472439
C116  C     C_R   0.290263 0.911873 0.370777 0.466542
C117  C     C_R   0.694562 0.894434 0.611662 0.430710
C118  C     C_R   0.306160 0.104932 0.611396 0.470450
C119  C     C_R   0.202973 0.591302 0.375076 0.479730
C120  C     C_R   0.805314 0.385425 0.396419 0.448592
C121  C     C_R   0.194705 0.397307 0.614658 0.452251
C122  C     C_R   0.798730 0.625868 0.593339 0.466927
C123  C     C_R   0.194531 0.134939 0.854292 -0.280389
C124  C     C_R   0.748516 0.657245 0.843428 -0.058826
C125  C     C_R   0.802652 0.848875 0.868335 -0.256957
C126  C     C_R   0.195083 0.863541 0.144957 -0.278779
C127  C     C_R   0.803474 0.151274 0.131128 -0.241067
C128  C     C_R   0.703397 0.624287 0.843300 -0.302263
C129  C     C_R   0.304583 0.353112 0.864735 -0.256636
C130  C     C_R   0.695154 0.364729 0.146252 -0.275661
C131  C     C_R   0.296708 0.658544 0.124944 -0.255836
C132  C     C_R   0.710828 0.119982 0.338969 -0.284915
C133  C     C_R   0.289729 0.879320 0.338924 -0.293293
C134  C     C_R   0.694756 0.861354 0.642738 -0.278127
C135  C     C_R   0.249606 0.342578 0.844395 -0.097896
C136  C     C_R   0.305829 0.138285 0.642479 -0.289781
C137  C     C_R   0.203428 0.624275 0.343279 -0.303026
C138  C     C_R   0.804593 0.353158 0.364692 -0.259954
C139  C     C_R   0.195107 0.364644 0.646154 -0.278379
C140  C     C_R   0.796773 0.658490 0.624980 -0.256192
C141  C     C_3   0.352915 0.864157 0.999710 0.112938
C142  C     C_3   0.322534 0.862144 0.955246 -0.329663
C143  C     C_3   0.296875 0.815766 0.946455 -1.010449
C144  C     C_3   0.606330 0.131378 0.043430 0.056236
C145  C     C_3   0.655376 0.165131 0.029554 -0.306873
C146  C     C_R   0.750271 0.344069 0.157124 -0.083034
C147  C     C_3   0.651344 0.207818 0.056190 -0.960065
C148  C     C_3   0.364770 0.128142 0.007048 0.127646
C149  C     C_3   0.384221 0.124520 0.054395 -0.361007
C150  C     C_3   0.367777 0.166768 0.079312 -0.994554
C151  C     C_3   0.640632 0.870886 0.005967 0.134039
C152  C     C_3   0.633777 0.878144 0.054730 -0.335598
C153  C     C_3   0.643659 0.834789 0.079366 -1.009850
C154  C     C_3   0.852976 0.364148 0.999783 0.112163
C155  C     C_3   0.822500 0.361841 0.955372 -0.327980
C156  C     C_3   0.797235 0.315306 0.946769 -1.014395
C157  C     C_R   0.251229 0.656855 0.156833 -0.080709
C158  C     C_3   0.105459 0.625719 0.051076 0.051912
C159  C     C_3   0.149160 0.664068 0.039658 -0.309583
C160  C     C_3   0.142143 0.702837 0.071156 -0.950842
C161  C     C_3   0.866445 0.626558 0.014804 0.107904
C162  C     C_3   0.889391 0.619223 0.061019 -0.358454
C163  C     C_3   0.873893 0.659059 0.089672 -0.990651
C164  C     C_3   0.138909 0.371090 0.008463 0.140220
C165  C     C_3   0.121089 0.376737 0.056209 -0.360589
C166  C     C_3   0.135503 0.334689 0.081782 -0.996834
C167  C     C_3   0.854167 0.864624 0.502465 0.111968
C168  C     C_R   0.748274 0.157365 0.343297 -0.059700
C169  C     C_3   0.823832 0.860667 0.458095 -0.324611
C170  C     C_3   0.799889 0.813548 0.450654 -1.001441
C171  C     C_3   0.145925 0.135116 0.503050 0.115572
C172  C     C_3   0.177670 0.138994 0.458636 -0.331715
C173  C     C_3   0.203490 0.185748 0.451654 -1.009528
C174  C     C_3   0.864908 0.125959 0.516920 0.109382
C175  C     C_3   0.891281 0.117898 0.562095 -0.362090
C176  C     C_3   0.875200 0.156230 0.592468 -0.986295
C177  C     C_3   0.133396 0.873881 0.518791 0.107254
C178  C     C_3   0.105810 0.883075 0.563825 -0.357889
C179  C     C_R   0.250362 0.842933 0.343033 -0.061448
C180  C     C_3   0.119217 0.844797 0.594628 -0.988956
C181  C     C_3   0.353217 0.363917 0.500218 0.111663
C182  C     C_3   0.322454 0.361016 0.455938 -0.330251
C183  C     C_3   0.297244 0.314324 0.447944 -1.010599
C184  C     C_3   0.605395 0.625916 0.550899 0.051883
C185  C     C_3   0.649115 0.664225 0.539366 -0.307846
C186  C     C_3   0.641793 0.703248 0.570550 -0.953939
C187  C     C_3   0.366534 0.626538 0.514782 0.107337
C188  C     C_3   0.389547 0.619178 0.560978 -0.356727
C189  C     C_3   0.374207 0.659039 0.589636 -0.994529
C190  C     C_R   0.750373 0.843366 0.656340 -0.085159
C191  C     C_3   0.638889 0.371115 0.508644 0.139742
C192  C     C_3   0.620887 0.376806 0.556355 -0.360389
C193  C     C_3   0.635365 0.334830 0.582017 -0.998145
C194  C     C_3   0.121481 0.052450 0.863966 0.074861
C195  C     C_3   0.066357 0.025603 0.879923 -0.320319
C196  C     C_3   0.038720 0.997704 0.844077 -1.003246
C197  C     C_3   0.896609 0.917902 0.895474 0.063714
C198  C     C_3   0.948801 0.890108 0.875304 -0.365924
C199  C     C_3   0.946225 0.889118 0.826163 -0.914134
C200  C     C_3   0.117988 0.942794 0.138693 0.085243
C201  C     C_R   0.250313 0.156769 0.656290 -0.087067
C202  C     C_3   0.053922 0.925807 0.150368 -0.349893
C203  C     C_3   0.032250 0.943892 0.193852 -0.963299
C204  C     C_3   0.885239 0.070041 0.100619 0.050036
C205  C     C_3   0.954122 0.075859 0.104797 -0.339976
C206  C     C_3   0.984632 0.032899 0.119393 -0.974044
C207  C     C_3   0.641007 0.540321 0.838125 0.102631
C208  C     C_3   0.576897 0.556238 0.825974 -0.359719
C209  C     C_3   0.556606 0.535774 0.783508 -0.975757
C210  C     C_3   0.388510 0.431349 0.893259 0.045238
C211  C     C_3   0.457574 0.423955 0.893447 -0.331666
C212  C     C_R   0.248507 0.657260 0.343441 -0.059463
C213  C     C_3   0.492222 0.464260 0.876033 -0.978640
C214  C     C_3   0.622862 0.448018 0.136646 0.069912
C215  C     C_3   0.566984 0.474162 0.121736 -0.319971
C216  C     C_3   0.542790 0.505231 0.156848 -0.984739
C217  C     C_3   0.398335 0.604259 0.085232 0.050080
C218  C     C_3   0.449443 0.638674 0.089791 -0.329147
C219  C     C_3   0.506877 0.617769 0.108636 -0.991765
C220  C     C_3   0.612765 0.059505 0.375066 0.062600
C221  C     C_3   0.576521 0.015917 0.376038 -0.292823
C222  C     C_3   0.508591 0.024286 0.384285 -1.000246
C223  C     C_R   0.250236 0.939614 0.059618 0.957905
C224  C     C_R   0.749598 0.342560 0.344410 -0.097435
C225  C     C_3   0.318690 0.974679 0.332176 0.104062
C226  C     C_3   0.375442 0.976343 0.302959 -0.353025
C227  C     C_3   0.365565 0.006825 0.264361 -0.972429
C228  C     C_3   0.621654 0.944908 0.631026 0.082597
C229  C     C_3   0.553746 0.954855 0.625787 -0.326239
C230  C     C_3   0.530607 0.985504 0.661500 -1.003019
C231  C     C_3   0.391501 0.065934 0.633712 0.090972
C232  C     C_3   0.451323 0.091680 0.640635 -0.368521
C233  C     C_3   0.467956 0.094374 0.688163 -0.961189
C234  C     C_3   0.140782 0.540452 0.338083 0.102620
C235  C     C_R   0.250277 0.344145 0.657185 -0.083387
C236  C     C_3   0.076716 0.556605 0.326090 -0.360057
C237  C     C_3   0.056206 0.536401 0.283563 -0.975221
C238  C     C_3   0.888360 0.431548 0.393101 0.045792
C239  C     C_3   0.957440 0.424231 0.393131 -0.332255
C240  C     C_3   0.991926 0.464602 0.375711 -0.978776
C241  C     C_3   0.122332 0.447609 0.636422 0.070011
C242  C     C_3   0.066627 0.473817 0.621306 -0.320014
C243  C     C_3   0.041855 0.504575 0.656479 -0.985405
C244  C     C_3   0.898352 0.604057 0.585392 0.050181
C245  C     C_3   0.949521 0.638411 0.590041 -0.329224
C246  C     C_R   0.751189 0.656886 0.656798 -0.080710
C247  C     C_3   0.006928 0.617398 0.608814 -0.992596
C248  C     C_3   0.068934 0.915065 0.009244 -0.345540
C249  C     C_3   0.079412 0.891764 0.965557 -0.352151
C250  C     C_3   0.125806 0.853995 0.969369 -0.870655
C251  C     C_3   0.935092 0.085143 0.985844 -0.357098
C252  C     C_3   0.923466 0.093976 0.937796 -0.330732
C253  C     C_3   0.874268 0.129468 0.931898 -0.850632
C254  C     C_3   0.070313 0.084534 0.987931 -0.357613
C255  C     C_3   0.080707 0.110797 0.029852 -0.349136
C256  C     C_3   0.133115 0.144135 0.024898 -0.866636
C257  C     C_R   0.303687 0.146277 0.864369 -0.194496
C258  C     C_3   0.934129 0.914744 0.011741 -0.350380
C259  C     C_3   0.922041 0.904583 0.059702 -0.328783
C260  C     C_3   0.872474 0.869130 0.065303 -0.855291
C261  C     C_3   0.569555 0.415648 0.014734 -0.361743
C262  C     C_3   0.581317 0.388418 0.973371 -0.346099
C263  C     C_3   0.629224 0.352229 0.980607 -0.869321
C264  C     C_3   0.437759 0.581969 0.971180 -0.359789
C265  C     C_3   0.423804 0.581441 0.922655 -0.320493
C266  C     C_3   0.381536 0.619792 0.910591 -0.859744
C267  C     C_3   0.572763 0.578943 0.970128 -0.368745
C268  C     C_R   0.696101 0.866363 0.853848 -0.196360
C269  C     C_3   0.585585 0.613614 0.005359 -0.359891
C270  C     C_3   0.623172 0.652514 0.987619 -0.874939
C271  C     C_3   0.434488 0.415206 0.015468 -0.357459
C272  C     C_3   0.420843 0.407803 0.063725 -0.318921
C273  C     C_3   0.370386 0.373205 0.070385 -0.857359
C274  C     C_3   0.567924 0.913205 0.497893 -0.364775
C275  C     C_3   0.540418 0.874568 0.524173 -0.354494
C276  C     C_3   0.586675 0.836920 0.530715 -0.858845
C277  C     C_3   0.431433 0.084541 0.506503 -0.339869
C278  C     C_3   0.421035 0.106367 0.462202 -0.355767
C279  C     C_R   0.305419 0.855872 0.136547 -0.186989
C280  C     C_3   0.375930 0.145066 0.465839 -0.873395
C281  C     C_3   0.566738 0.085026 0.505920 -0.379551
C282  C     C_3   0.579910 0.099947 0.552371 -0.293924
C283  C     C_3   0.632125 0.133714 0.553627 -0.880988
C284  C     C_3   0.437805 0.921834 0.463995 -0.415761
C285  C     C_3   0.395973 0.890000 0.489878 -0.344303
C286  C     C_3   0.386788 0.845714 0.466413 -0.909340
C287  C     C_3   0.069506 0.415548 0.514250 -0.361630
C288  C     C_3   0.081220 0.388671 0.472659 -0.344934
C289  C     C_3   0.129632 0.352742 0.479410 -0.871403
C290  C     C_R   0.700737 0.128191 0.152282 -0.209972
C291  C     C_3   0.937732 0.582039 0.471351 -0.359814
C292  C     C_3   0.923764 0.581645 0.422825 -0.320983
C293  C     C_3   0.881469 0.620018 0.410872 -0.858872
C294  C     C_3   0.072750 0.578991 0.470231 -0.368623
C295  C     C_3   0.085625 0.613617 0.505494 -0.357374
C296  C     C_3   0.123236 0.652516 0.487778 -0.880678
C297  C     C_3   0.934431 0.415154 0.515087 -0.357583
C298  C     C_3   0.920861 0.407491 0.563315 -0.318437
C299  C     C_3   0.870301 0.372947 0.569842 -0.859155
C300  C     C_R   0.791557 0.659633 0.875950 -0.191912
C301  C     C_R   0.194847 0.363594 0.856500 -0.198937
C302  C     C_R   0.805225 0.356116 0.136738 -0.186336
C303  C     C_R   0.751184 0.060319 0.059749 0.937041
C304  C     C_R   0.208063 0.622619 0.157934 -0.215679
C305  C     C_R   0.782980 0.164293 0.379993 -0.199326
C306  C     C_R   0.213850 0.836914 0.379540 -0.204658
C307  C     C_R   0.805925 0.857953 0.638424 -0.185439
C308  C     C_R   0.194882 0.142737 0.638647 -0.181461
C309  C     C_R   0.291485 0.659683 0.376000 -0.193282
C310  C     C_R   0.694816 0.363511 0.356573 -0.199187
C311  C     C_R   0.305284 0.356386 0.636977 -0.186143
C312  C     C_R   0.707872 0.622746 0.657809 -0.215208
C313  C     C_R   0.303229 0.114843 0.896569 -0.280439
C314  C     C_R   0.749066 0.560613 0.940312 0.959991
C315  C     C_R   0.696714 0.898213 0.885907 -0.241302
C316  C     C_R   0.304988 0.887560 0.104439 -0.305542
C317  C     C_R   0.702064 0.095790 0.120795 -0.252954
C318  C     C_R   0.789714 0.628741 0.908600 -0.275969
C319  C     C_R   0.195295 0.395381 0.888612 -0.244856
C320  C     C_R   0.804629 0.387659 0.104504 -0.303860
C321  C     C_R   0.209594 0.590377 0.126301 -0.262177
C322  C     C_R   0.780864 0.133210 0.412643 -0.249175
C323  C     C_R   0.216642 0.867721 0.412381 -0.254236
C324  C     C_R   0.805614 0.889767 0.606397 -0.298820
C325  C     C_R   0.250181 0.439547 0.940488 0.957065
C326  C     C_R   0.195249 0.110983 0.606631 -0.310222
C327  C     C_R   0.289636 0.628785 0.408645 -0.276764
C328  C     C_R   0.695262 0.395304 0.388681 -0.245306
C329  C     C_R   0.304690 0.387912 0.604727 -0.304416
C330  C     C_R   0.709404 0.590492 0.626188 -0.262480
C331  C     C_R   0.248552 0.093915 0.907980 -0.094185
C332  C     C_R   0.750468 0.905637 0.908516 -0.123484
C333  C     C_R   0.249591 0.906287 0.092050 -0.101920
C334  C     C_R   0.752211 0.093157 0.092841 -0.129621
C335  C     C_R   0.746466 0.594519 0.907916 -0.114729
C336  C     C_R   0.749760 0.439634 0.059672 0.950593
C337  C     C_R   0.250241 0.405761 0.908582 -0.108950
C338  C     C_R   0.749205 0.406517 0.092363 -0.099473
C339  C     C_R   0.252760 0.593417 0.092914 -0.129336
C340  C     C_R   0.745658 0.094654 0.407895 -0.131697
C341  C     C_R   0.253669 0.905452 0.407739 -0.115164
C342  C     C_R   0.749947 0.906439 0.592090 -0.105492
C343  C     C_R   0.250838 0.093711 0.592057 -0.100743
C344  C     C_R   0.246441 0.594527 0.407922 -0.114366
C345  C     C_R   0.750231 0.405757 0.408583 -0.108703
C346  C     C_R   0.249218 0.406543 0.592379 -0.098730
C347  C     C_R   0.251616 0.560390 0.059788 0.953793
C348  C     C_R   0.752714 0.593436 0.592890 -0.129222
C349  C     C_R   0.033060 0.958843 0.004635 0.036361
C350  C     C_R   0.969309 0.041148 0.993078 0.039150
C351  C     C_R   0.033581 0.041232 0.994860 0.028673
C352  C     C_R   0.968817 0.958848 0.005320 0.023156
C353  C     C_R   0.533473 0.458808 0.006543 0.020188
C354  C     C_R   0.470540 0.539265 0.985486 0.025836
C355  C     C_R   0.534896 0.538954 0.986497 0.044572
C356  C     C_R   0.469184 0.458963 0.007048 0.045032
C357  C     C_R   0.531725 0.957606 0.497901 0.036206
C358  C     C_R   0.748562 0.060643 0.440288 0.951074
C359  C     C_R   0.467255 0.040627 0.503255 0.027529
C360  C     C_R   0.531535 0.040668 0.504373 0.043111
C361  C     C_R   0.468202 0.958877 0.490279 0.066221
C362  C     C_R   0.033443 0.458776 0.506359 0.020259
C363  C     C_R   0.970525 0.539302 0.485550 0.025961
C364  C     C_R   0.034884 0.538986 0.486561 0.044392
C365  C     C_R   0.969155 0.458937 0.506865 0.044839
C366  C     C_R   0.937293 0.000025 0.999265 -0.157407
C367  C     C_R   0.064223 0.000051 0.000341 -0.139267
C368  C     C_R   0.437795 0.499626 0.997750 -0.158849
H1    H     H_    0.456177 0.142151 0.943443 0.160984
H2    H     H_    0.055033 0.854770 0.448333 0.162075
H3    H     H_    0.114493 0.614129 0.084095 0.162901
H4    H     H_    0.057508 0.638551 0.052767 0.122424
H5    H     H_    0.197089 0.652189 0.040002 0.243725
H6    H     H_    0.140042 0.676429 0.006736 0.204210
H7    H     H_    0.095257 0.716936 0.069441 0.259706
H8    H     H_    0.175581 0.729422 0.062784 0.264314
H9    H     H_    0.150768 0.691595 0.104557 0.280221
H10   H     H_    0.816152 0.631380 0.016641 0.175596
H11   H     H_    0.884859 0.658250 0.001436 0.108691
H12   H     H_    0.867789 0.589031 0.075113 0.243346
H13   H     H_    0.948371 0.850479 0.456569 0.164814
H14   H     H_    0.939806 0.614597 0.060953 0.201803
H15   H     H_    0.896074 0.689722 0.076897 0.267116
H16   H     H_    0.890816 0.652920 0.122705 0.268415
H17   H     H_    0.823583 0.664122 0.091338 0.261575
H18   H     H_    0.188815 0.364696 0.006620 0.175125
H19   H     H_    0.117780 0.340440 0.995165 0.112992
H20   H     H_    0.146855 0.404956 0.070310 0.241745
H21   H     H_    0.071367 0.383817 0.059472 0.213831
H22   H     H_    0.109355 0.305883 0.069052 0.269670
H23   H     H_    0.122426 0.339731 0.116077 0.269676
H24   H     H_    0.053215 0.149535 0.457403 0.165026
H25   H     H_    0.185234 0.327210 0.079877 0.262062
H26   H     H_    0.817604 0.859447 0.526797 0.172492
H27   H     H_    0.886859 0.837234 0.509378 0.114261
H28   H     H_    0.784973 0.884266 0.456023 0.245453
H29   H     H_    0.856159 0.869452 0.431685 0.205270
H30   H     H_    0.838182 0.789233 0.451273 0.268402
H31   H     H_    0.777681 0.811692 0.418739 0.266494
H32   H     H_    0.765610 0.804582 0.475879 0.269639
H33   H     H_    0.181800 0.140189 0.527313 0.172632
H34   H     H_    0.113236 0.162641 0.510006 0.113311
H35   H     H_    0.456316 0.645286 0.450506 0.162516
H36   H     H_    0.215733 0.114714 0.456177 0.245153
H37   H     H_    0.145853 0.131098 0.432176 0.204179
H38   H     H_    0.166029 0.210755 0.452429 0.269668
H39   H     H_    0.226952 0.187470 0.419811 0.268118
H40   H     H_    0.237151 0.193915 0.476999 0.272762
H41   H     H_    0.814681 0.130174 0.520647 0.170635
H42   H     H_    0.881951 0.158101 0.503624 0.107601
H43   H     H_    0.872553 0.086587 0.575901 0.244050
H44   H     H_    0.941912 0.115005 0.560240 0.210933
H45   H     H_    0.894362 0.188042 0.579928 0.267529
H46   H     H_    0.553488 0.355376 0.443181 0.164005
H47   H     H_    0.894846 0.149703 0.624656 0.268893
H48   H     H_    0.824760 0.159402 0.596017 0.259630
H49   H     H_    0.183418 0.869070 0.522487 0.170624
H50   H     H_    0.115900 0.841781 0.505933 0.107767
H51   H     H_    0.125364 0.914158 0.577284 0.242954
H52   H     H_    0.055390 0.887059 0.561862 0.210863
H53   H     H_    0.099099 0.813276 0.582428 0.266826
H54   H     H_    0.098792 0.852193 0.626728 0.269477
H55   H     H_    0.169372 0.840516 0.598241 0.259108
H56   H     H_    0.316729 0.358507 0.524581 0.172491
H57   H     H_    0.447330 0.350323 0.453893 0.163551
H58   H     H_    0.385670 0.336200 0.506459 0.113521
H59   H     H_    0.284192 0.385183 0.454386 0.243784
H60   H     H_    0.354836 0.369751 0.429545 0.204425
H61   H     H_    0.334969 0.289524 0.447757 0.269576
H62   H     H_    0.274308 0.313336 0.416255 0.267904
H63   H     H_    0.263285 0.305264 0.473344 0.273534
H64   H     H_    0.614404 0.614473 0.583970 0.162832
H65   H     H_    0.557441 0.638746 0.552526 0.122475
H66   H     H_    0.697060 0.652393 0.539991 0.243287
H67   H     H_    0.640238 0.676315 0.506316 0.204310
H68   H     H_    0.563982 0.646625 0.467221 0.164944
H69   H     H_    0.594830 0.717189 0.568680 0.258608
H70   H     H_    0.675063 0.729884 0.561993 0.265426
H71   H     H_    0.650451 0.692310 0.604046 0.280334
H72   H     H_    0.316248 0.631390 0.516660 0.175065
H73   H     H_    0.384970 0.658220 0.501404 0.108496
H74   H     H_    0.367891 0.589018 0.575096 0.243229
H75   H     H_    0.439950 0.614483 0.560870 0.201682
H76   H     H_    0.396457 0.689666 0.576839 0.266818
H77   H     H_    0.391167 0.652879 0.622656 0.268536
H78   H     H_    0.323914 0.664178 0.591341 0.261126
H79   H     H_    0.152192 0.143238 0.838408 0.162756
H80   H     H_    0.688815 0.364780 0.506898 0.174650
H81   H     H_    0.617867 0.340428 0.495340 0.111583
H82   H     H_    0.646498 0.405100 0.570459 0.241852
H83   H     H_    0.571129 0.383793 0.559528 0.213547
H84   H     H_    0.609365 0.305953 0.569287 0.268839
H85   H     H_    0.622153 0.339903 0.616283 0.269960
H86   H     H_    0.685128 0.327444 0.580208 0.261843
H87   H     H_    0.158533 0.028808 0.854291 0.149556
H88   H     H_    0.107465 0.072439 0.835568 0.141284
H89   H     H_    0.080477 0.003235 0.906491 0.228676
H90   H     H_    0.843249 0.829044 0.862426 0.175767
H91   H     H_    0.030883 0.048746 0.892565 0.220785
H92   H     H_    0.026142 0.019127 0.816407 0.267804
H93   H     H_    0.996624 0.981326 0.856473 0.265720
H94   H     H_    0.071606 0.971743 0.833132 0.271782
H95   H     H_    0.917354 0.943017 0.917150 0.128833
H96   H     H_    0.872071 0.938099 0.870831 0.140523
H97   H     H_    0.993555 0.904531 0.884676 0.188608
H98   H     H_    0.947500 0.855368 0.887728 0.239152
H99   H     H_    0.902585 0.874413 0.815131 0.272284
H100  H     H_    0.984606 0.868668 0.813296 0.255456
H101  H     H_    0.152453 0.854460 0.160703 0.169317
H102  H     H_    0.950473 0.923333 0.812878 0.259697
H103  H     H_    0.114541 0.978358 0.129088 0.160604
H104  H     H_    0.147740 0.942162 0.167733 0.132202
H105  H     H_    0.021541 0.936317 0.125074 0.216286
H106  H     H_    0.053792 0.888805 0.151699 0.224276
H107  H     H_    0.060636 0.929912 0.220020 0.266784
H108  H     H_    0.983869 0.934097 0.199659 0.266977
H109  H     H_    0.035647 0.980803 0.194587 0.265952
H110  H     H_    0.875880 0.040452 0.080347 0.163961
H111  H     H_    0.866256 0.063265 0.133589 0.139861
H112  H     H_    0.553210 0.856063 0.942005 0.165210
H113  H     H_    0.843908 0.171457 0.136139 0.171255
H114  H     H_    0.973518 0.085349 0.073245 0.230816
H115  H     H_    0.963806 0.102932 0.128185 0.219497
H116  H     H_    0.964403 0.021713 0.150487 0.271403
H117  H     H_    0.034344 0.038757 0.123594 0.259181
H118  H     H_    0.978532 0.006396 0.094846 0.269612
H119  H     H_    0.639489 0.503528 0.842097 0.163864
H120  H     H_    0.674752 0.546639 0.811628 0.120092
H121  H     H_    0.543954 0.546798 0.851818 0.229751
H122  H     H_    0.575797 0.593082 0.823127 0.215712
H123  H     H_    0.587755 0.546411 0.756938 0.263848
H124  H     H_    0.669610 0.624380 0.818188 0.148362
H125  H     H_    0.509517 0.547089 0.776146 0.266361
H126  H     H_    0.556682 0.498813 0.785645 0.265767
H127  H     H_    0.377521 0.463174 0.909920 0.163273
H128  H     H_    0.374065 0.434349 0.858959 0.132396
H129  H     H_    0.472414 0.417707 0.926766 0.232250
H130  H     H_    0.469062 0.394178 0.873654 0.216114
H131  H     H_    0.477009 0.472267 0.842950 0.269519
H132  H     H_    0.542012 0.456954 0.875156 0.267438
H133  H     H_    0.484391 0.493476 0.897302 0.267302
H134  H     H_    0.660298 0.472099 0.143805 0.153589
H135  H     H_    0.347178 0.336921 0.855811 0.174156
H136  H     H_    0.610260 0.429425 0.166465 0.140841
H137  H     H_    0.579437 0.494233 0.092921 0.231176
H138  H     H_    0.530199 0.450506 0.112753 0.217270
H139  H     H_    0.530718 0.486013 0.186293 0.266342
H140  H     H_    0.500999 0.522287 0.145337 0.265651
H141  H     H_    0.577696 0.530777 0.164788 0.270534
H142  H     H_    0.415034 0.576390 0.064792 0.149583
H143  H     H_    0.387998 0.589210 0.117468 0.131931
H144  H     H_    0.460212 0.653226 0.057758 0.217489
H145  H     H_    0.434033 0.666129 0.111265 0.217759
H146  H     H_    0.652511 0.355824 0.162142 0.165732
H147  H     H_    0.497792 0.606887 0.142264 0.273704
H148  H     H_    0.544422 0.642707 0.108756 0.266716
H149  H     H_    0.521748 0.588554 0.089186 0.269295
H150  H     H_    0.594094 0.081292 0.349342 0.142003
H151  H     H_    0.606996 0.076334 0.406875 0.107902
H152  H     H_    0.582331 0.998317 0.344769 0.224056
H153  H     H_    0.594389 0.994098 0.401884 0.239161
H154  H     H_    0.501944 0.042917 0.414749 0.272312
H155  H     H_    0.484081 0.991958 0.386940 0.274097
H156  H     H_    0.488838 0.043838 0.357473 0.262332
H157  H     H_    0.330790 0.684747 0.124922 0.153531
H158  H     H_    0.308902 0.008909 0.344079 0.165622
H159  H     H_    0.278099 0.964287 0.313047 0.117887
H160  H     H_    0.414967 0.988819 0.321586 0.234084
H161  H     H_    0.386582 0.942302 0.291215 0.218495
H162  H     H_    0.327017 0.994412 0.244670 0.266157
H163  H     H_    0.407614 0.007436 0.243979 0.269034
H164  H     H_    0.355472 0.041331 0.275312 0.261016
H165  H     H_    0.648169 0.976323 0.626874 0.161473
H166  H     H_    0.628421 0.932240 0.664426 0.135237
H167  H     H_    0.545986 0.970859 0.594067 0.226784
H168  H     H_    0.684178 0.115034 0.310141 0.149271
H169  H     H_    0.527483 0.923145 0.627152 0.222735
H170  H     H_    0.538508 0.970314 0.693557 0.268240
H171  H     H_    0.480772 0.990656 0.657925 0.264168
H172  H     H_    0.554419 0.018172 0.659698 0.273020
H173  H     H_    0.402888 0.030864 0.625600 0.150158
H174  H     H_    0.363493 0.063912 0.663985 0.139454
H175  H     H_    0.488866 0.074869 0.622581 0.204814
H176  H     H_    0.447447 0.126164 0.627872 0.233509
H177  H     H_    0.433403 0.114506 0.706030 0.267265
H178  H     H_    0.513350 0.110564 0.691456 0.263820
H179  H     H_    0.319242 0.882564 0.310866 0.150180
H180  H     H_    0.469959 0.060585 0.702595 0.272094
H181  H     H_    0.139055 0.503653 0.341957 0.163751
H182  H     H_    0.174488 0.546727 0.311554 0.120274
H183  H     H_    0.043798 0.547134 0.351936 0.229686
H184  H     H_    0.075776 0.593465 0.323412 0.215759
H185  H     H_    0.087322 0.547099 0.256996 0.263775
H186  H     H_    0.009143 0.547861 0.276324 0.266452
H187  H     H_    0.056132 0.499430 0.285527 0.265755
H188  H     H_    0.877379 0.463339 0.409824 0.163486
H189  H     H_    0.873757 0.434576 0.358838 0.132732
H190  H     H_    0.651511 0.850699 0.656685 0.174175
H191  H     H_    0.972430 0.417956 0.426409 0.232255
H192  H     H_    0.968910 0.394498 0.373273 0.216245
H193  H     H_    0.976521 0.472674 0.342688 0.269658
H194  H     H_    0.041723 0.457338 0.374686 0.267336
H195  H     H_    0.984161 0.493759 0.397067 0.267235
H196  H     H_    0.159641 0.471670 0.643950 0.153181
H197  H     H_    0.109371 0.428835 0.666059 0.141059
H198  H     H_    0.079460 0.494136 0.592736 0.231137
H199  H     H_    0.030030 0.450202 0.611878 0.217459
H200  H     H_    0.029381 0.485103 0.685688 0.266346
H201  H     H_    0.348584 0.149020 0.656288 0.176275
H202  H     H_    0.000209 0.521687 0.644791 0.265720
H203  H     H_    0.076588 0.530084 0.664875 0.270495
H204  H     H_    0.915044 0.576183 0.564955 0.149704
H205  H     H_    0.887894 0.588998 0.617604 0.131840
H206  H     H_    0.960304 0.653052 0.558049 0.217467
H207  H     H_    0.934163 0.665813 0.611596 0.217619
H208  H     H_    0.997823 0.606380 0.642398 0.273793
H209  H     H_    0.044496 0.642315 0.609035 0.266192
H210  H     H_    0.021777 0.588257 0.589251 0.269502
H211  H     H_    0.170748 0.867265 0.979680 0.279007
H212  H     H_    0.169701 0.624358 0.318129 0.148560
H213  H     H_    0.109493 0.828872 0.993123 0.259811
H214  H     H_    0.131940 0.837449 0.937638 0.242185
H215  H     H_    0.036108 0.877639 0.953405 0.201707
H216  H     H_    0.096066 0.915786 0.940931 0.241873
H217  H     H_    0.113496 0.920964 0.024777 0.246307
H218  H     H_    0.046488 0.891751 0.031979 0.194987
H219  H     H_    0.830048 0.117996 0.945980 0.272544
H220  H     H_    0.888112 0.161070 0.947706 0.255028
H221  H     H_    0.867850 0.135880 0.897047 0.234741
H222  H     H_    0.966042 0.105771 0.921766 0.199012
H223  H     H_    0.447306 0.850486 0.953693 0.163560
H224  H     H_    0.847207 0.337017 0.355725 0.174047
H225  H     H_    0.909238 0.063021 0.921029 0.237548
H226  H     H_    0.891968 0.085919 0.004770 0.255843
H227  H     H_    0.959492 0.114116 0.999202 0.184478
H228  H     H_    0.177040 0.126433 0.019485 0.280594
H229  H     H_    0.124578 0.166923 0.997439 0.261282
H230  H     H_    0.136932 0.164288 0.054736 0.236295
H231  H     H_    0.039316 0.130096 0.038706 0.201025
H232  H     H_    0.091014 0.087816 0.056835 0.245882
H233  H     H_    0.115193 0.077106 0.972993 0.253100
H234  H     H_    0.049025 0.106492 0.963771 0.199006
H235  H     H_    0.152427 0.355608 0.661923 0.165446
H236  H     H_    0.828418 0.881176 0.052139 0.271881
H237  H     H_    0.886121 0.837944 0.048466 0.254850
H238  H     H_    0.865803 0.861742 0.100056 0.236276
H239  H     H_    0.964355 0.892245 0.074944 0.196666
H240  H     H_    0.907888 0.935103 0.077433 0.237896
H241  H     H_    0.891032 0.914694 0.993550 0.257593
H242  H     H_    0.958099 0.886077 0.997065 0.188527
H243  H     H_    0.673705 0.367371 0.989324 0.281498
H244  H     H_    0.614058 0.329372 0.006757 0.262769
H245  H     H_    0.635818 0.332582 0.950615 0.241759
H246  H     H_    0.830947 0.684630 0.625011 0.153727
H247  H     H_    0.538963 0.371796 0.962633 0.200666
H248  H     H_    0.597123 0.410390 0.946747 0.248623
H249  H     H_    0.614089 0.423353 0.029327 0.250733
H250  H     H_    0.547185 0.394413 0.039358 0.202886
H251  H     H_    0.336995 0.616603 0.927904 0.268759
H252  H     H_    0.402885 0.652244 0.918892 0.254563
H253  H     H_    0.373063 0.619047 0.875429 0.237103
H254  H     H_    0.466760 0.584494 0.903561 0.194212
H255  H     H_    0.402220 0.549590 0.912909 0.235908
H256  H     H_    0.396158 0.588260 0.990852 0.246510
H257  H     H_    0.346534 0.162422 0.855993 0.168844
H258  H     H_    0.464444 0.612307 0.978007 0.185224
H259  H     H_    0.668051 0.640624 0.975156 0.275585
H260  H     H_    0.598216 0.669341 0.961259 0.259819
H261  H     H_    0.631370 0.677101 0.013654 0.243103
H262  H     H_    0.542403 0.627032 0.018690 0.219507
H263  H     H_    0.610591 0.598406 0.032441 0.253550
H264  H     H_    0.616973 0.567785 0.956165 0.228592
H265  H     H_    0.550773 0.595228 0.942389 0.201810
H266  H     H_    0.327003 0.384912 0.055933 0.270975
H267  H     H_    0.383886 0.340998 0.055397 0.253647
H268  H     H_    0.654493 0.861225 0.835899 0.167394
H269  H     H_    0.362511 0.367819 0.105366 0.235355
H270  H     H_    0.462456 0.395838 0.080172 0.195544
H271  H     H_    0.407037 0.439367 0.079785 0.238765
H272  H     H_    0.392379 0.413665 0.996018 0.252359
H273  H     H_    0.459372 0.385805 0.003164 0.180318
H274  H     H_    0.601104 0.822853 0.499109 0.248670
H275  H     H_    0.627842 0.848848 0.547649 0.294778
H276  H     H_    0.565284 0.809937 0.550185 0.245538
H277  H     H_    0.523401 0.886679 0.555874 0.237396
H278  H     H_    0.503102 0.859084 0.506291 0.240273
H279  H     H_    0.348622 0.841118 0.145586 0.169665
H280  H     H_    0.576339 0.902264 0.464172 0.186446
H281  H     H_    0.612954 0.918172 0.512963 0.255480
H282  H     H_    0.330831 0.133011 0.477848 0.279212
H283  H     H_    0.393573 0.170834 0.488191 0.257341
H284  H     H_    0.369571 0.160438 0.433696 0.241714
H285  H     H_    0.464422 0.119191 0.448251 0.198689
H286  H     H_    0.403140 0.081858 0.438784 0.251284
H287  H     H_    0.386757 0.079026 0.522565 0.254575
H288  H     H_    0.453873 0.108634 0.528141 0.195105
H289  H     H_    0.675233 0.118428 0.541455 0.276285
H290  H     H_    0.660954 0.130787 0.173245 0.163652
H291  H     H_    0.620987 0.163263 0.533658 0.251459
H292  H     H_    0.639212 0.144817 0.587302 0.235834
H293  H     H_    0.538712 0.115862 0.566654 0.190287
H294  H     H_    0.591550 0.071071 0.573087 0.235797
H295  H     H_    0.609378 0.082948 0.486322 0.199163
H296  H     H_    0.542490 0.112301 0.489610 0.173958
H297  H     H_    0.366331 0.851652 0.434354 0.279436
H298  H     H_    0.430825 0.827845 0.461932 0.255738
H299  H     H_    0.355263 0.824176 0.485462 0.249595
H300  H     H_    0.412972 0.884215 0.522892 0.212743
H301  H     H_    0.825830 0.685752 0.876419 0.155149
H302  H     H_    0.350434 0.904554 0.493661 0.266931
H303  H     H_    0.410392 0.937309 0.438045 0.212181
H304  H     H_    0.473162 0.902395 0.446277 0.211884
H305  H     H_    0.174032 0.368113 0.487949 0.282278
H306  H     H_    0.115037 0.329653 0.505520 0.261022
H307  H     H_    0.136106 0.333302 0.449278 0.241476
H308  H     H_    0.038951 0.371844 0.462039 0.200270
H309  H     H_    0.096494 0.410921 0.446098 0.248626
H310  H     H_    0.114022 0.423126 0.528940 0.250909
H311  H     H_    0.047123 0.394108 0.538700 0.201985
H312  H     H_    0.152030 0.355878 0.840943 0.168414
H313  H     H_    0.836935 0.616765 0.428181 0.268762
H314  H     H_    0.902800 0.652453 0.419258 0.254606
H315  H     H_    0.872989 0.619373 0.375709 0.237264
H316  H     H_    0.966708 0.584765 0.403730 0.194179
H317  H     H_    0.902195 0.549816 0.412997 0.236021
H318  H     H_    0.896122 0.588258 0.491034 0.246689
H319  H     H_    0.964413 0.612359 0.478256 0.185209
H320  H     H_    0.168092 0.640616 0.475280 0.275966
H321  H     H_    0.098273 0.669389 0.461448 0.259263
H322  H     H_    0.131485 0.677068 0.513834 0.241960
H323  H     H_    0.848379 0.341030 0.145391 0.169527
H324  H     H_    0.042466 0.627044 0.518852 0.219200
H325  H     H_    0.110632 0.598372 0.532555 0.253359
H326  H     H_    0.116938 0.567839 0.456222 0.228429
H327  H     H_    0.050733 0.595323 0.442529 0.201563
H328  H     H_    0.826922 0.384821 0.555508 0.271211
H329  H     H_    0.883655 0.340807 0.554656 0.253110
H330  H     H_    0.862492 0.367364 0.604800 0.235429
H331  H     H_    0.962470 0.395353 0.579651 0.195521
H332  H     H_    0.907183 0.438988 0.579553 0.238816
H333  H     H_    0.892268 0.413758 0.495688 0.252547
H334  H     H_    0.563743 0.144708 0.960575 0.163981
H335  H     H_    0.173730 0.620715 0.183305 0.156702
H336  H     H_    0.959255 0.385812 0.502586 0.180113
H337  H     H_    0.811097 0.193829 0.383429 0.149226
H338  H     H_    0.184451 0.807991 0.382947 0.151057
H339  H     H_    0.849385 0.844834 0.649006 0.169659
H340  H     H_    0.151392 0.156251 0.649421 0.170739
H341  H     H_    0.325718 0.685828 0.376498 0.157165
H342  H     H_    0.651981 0.355743 0.341064 0.168344
H343  H     H_    0.348479 0.341454 0.645769 0.169575
H344  H     H_    0.673441 0.620907 0.683120 0.156737
H345  H     H_    0.345812 0.106233 0.911557 0.196887
H346  H     H_    0.956354 0.645379 0.950678 0.162186
H347  H     H_    0.655668 0.917278 0.892887 0.174879
H348  H     H_    0.347771 0.897685 0.089502 0.185297
H349  H     H_    0.663661 0.073184 0.117698 0.160435
H350  H     H_    0.823034 0.631184 0.933602 0.195396
H351  H     H_    0.153119 0.412077 0.897663 0.176942
H352  H     H_    0.847287 0.397457 0.089190 0.184802
H353  H     H_    0.176013 0.563774 0.127079 0.162647
H354  H     H_    0.807984 0.138807 0.440854 0.184200
H355  H     H_    0.188981 0.862403 0.440790 0.188950
H356  H     H_    0.848597 0.901378 0.592800 0.182048
H357  H     H_    0.053468 0.355468 0.943010 0.164780
H358  H     H_    0.152308 0.099793 0.593305 0.181635
H359  H     H_    0.322909 0.631253 0.433675 0.195501
H360  H     H_    0.653067 0.411950 0.397776 0.177010
H361  H     H_    0.347376 0.397843 0.589527 0.184033
H362  H     H_    0.675730 0.563950 0.626909 0.162601
H363  H     H_    0.316197 0.858594 0.023875 0.172766
H364  H     H_    0.384997 0.836152 0.005698 0.114397
H365  H     H_    0.284561 0.886551 0.953857 0.245178
H366  H     H_    0.355248 0.871084 0.929121 0.204707
H367  H     H_    0.334331 0.790753 0.946057 0.270455
H368  H     H_    0.947317 0.350405 0.953750 0.164117
H369  H     H_    0.274211 0.815444 0.914654 0.267006
H370  H     H_    0.262595 0.806535 0.971584 0.271941
H371  H     H_    0.610799 0.124079 0.077997 0.159149
H372  H     H_    0.560195 0.147137 0.041460 0.121982
H373  H     H_    0.701507 0.150514 0.033403 0.244748
H374  H     H_    0.649832 0.173610 0.995054 0.204001
H375  H     H_    0.606069 0.223936 0.051966 0.260899
H376  H     H_    0.687545 0.231431 0.045431 0.264484
H377  H     H_    0.658083 0.200353 0.090822 0.277933
H378  H     H_    0.314684 0.133896 0.006619 0.177618
H379  H     H_    0.064021 0.646677 0.967408 0.164945
H380  H     H_    0.384870 0.158350 0.991839 0.112358
H381  H     H_    0.360833 0.095788 0.069921 0.243043
H382  H     H_    0.434436 0.119319 0.056369 0.204486
H383  H     H_    0.391570 0.196044 0.064997 0.267858
H384  H     H_    0.382221 0.163238 0.113288 0.268738
H385  H     H_    0.317572 0.172445 0.078810 0.262196
H386  H     H_    0.688838 0.861645 0.998932 0.169864
H387  H     H_    0.613930 0.841160 0.996094 0.112784
H388  H     H_    0.668182 0.902749 0.065696 0.240032
H389  H     H_    0.587321 0.891073 0.062529 0.215400
H390  H     H_    0.947265 0.144944 0.447811 0.163687
H391  H     H_    0.608886 0.809625 0.070109 0.270128
H392  H     H_    0.639233 0.841178 0.114472 0.270923
H393  H     H_    0.690137 0.821383 0.072503 0.263912
H394  H     H_    0.816305 0.358655 0.023997 0.172298
H395  H     H_    0.885151 0.336228 0.005888 0.114823
H396  H     H_    0.784298 0.386065 0.953967 0.244377
H397  H     H_    0.855081 0.370843 0.929182 0.204564
H398  H     H_    0.834927 0.290480 0.946353 0.269863
H399  H     H_    0.774429 0.314768 0.915023 0.266982
H400  H     H_    0.763168 0.305969 0.972004 0.271536
O1    O     O_R   0.250000 0.071660 0.980070 -0.631201
O2    O     O_R   0.250000 0.928340 0.480070 -0.640291
O3    O     O_3   0.626593 0.910245 0.982154 -0.650956
O4    O     O_3   0.879631 0.406675 0.007581 -0.658512
O5    O     O_3   0.114693 0.589091 0.022532 -0.642978
O6    O     O_3   0.878111 0.589700 0.986788 -0.652838
O7    O     O_3   0.126196 0.409914 0.983555 -0.653043
O8    O     O_3   0.880030 0.907630 0.509099 -0.659239
O9    O     O_3   0.119554 0.092203 0.509801 -0.658351
O10   O     O_3   0.875220 0.089911 0.487669 -0.644339
O11   O     O_3   0.124917 0.909654 0.489172 -0.645886
O12   O     O_3   0.379538 0.406651 0.507551 -0.657947
O13   O     O_R   0.750000 0.928340 0.519930 -0.633610
O14   O     O_3   0.614633 0.589159 0.522497 -0.643042
O15   O     O_3   0.378114 0.589678 0.486752 -0.652637
O16   O     O_3   0.626185 0.409885 0.483654 -0.652806
O17   O     O_3   0.140818 0.080611 0.897567 -0.695439
O18   O     O_3   0.857598 0.890696 0.921104 -0.684794
O19   O     O_3   0.141330 0.918497 0.102965 -0.691259
O20   O     O_3   0.860256 0.108235 0.080381 -0.683882
O21   O     O_3   0.657589 0.558766 0.878285 -0.675146
O22   O     O_3   0.359838 0.396023 0.915981 -0.680350
O23   O     O_3   0.640799 0.418220 0.103661 -0.694888
O24   O     O_R   0.250000 0.071660 0.519930 -0.638773
O25   O     O_3   0.347387 0.623983 0.064634 -0.668331
O26   O     O_3   0.674917 0.049766 0.366540 -0.631452
O27   O     O_3   0.330667 0.947506 0.368428 -0.663254
O28   O     O_3   0.640132 0.913799 0.599310 -0.677397
O29   O     O_3   0.359810 0.084052 0.598275 -0.694829
O30   O     O_3   0.157632 0.558720 0.378262 -0.675069
O31   O     O_3   0.859870 0.396161 0.415845 -0.681113
O32   O     O_3   0.140715 0.417998 0.603391 -0.695001
O33   O     O_3   0.847505 0.623852 0.564735 -0.668518
O34   O     O_R   0.250000 0.571660 0.480070 -0.627979
O35   O     O_R   0.750000 0.428340 0.480070 -0.610201
O36   O     O_R   0.250000 0.428340 0.519930 -0.640212
O37   O     O_R   0.750000 0.571660 0.519930 -0.583267
O38   O     O_R   0.250010 0.019960 0.928320 -0.633822
O39   O     O_R   0.749990 0.980040 0.928320 -0.644096
O40   O     O_R   0.250010 0.980040 0.071680 -0.630864
O41   O     O_R   0.750000 0.928340 0.980070 -0.608579
O42   O     O_R   0.749990 0.019960 0.071680 -0.647489
O43   O     O_R   0.750010 0.519960 0.928320 -0.607542
O44   O     O_R   0.249990 0.480040 0.928320 -0.650748
O45   O     O_R   0.750010 0.480040 0.071680 -0.634096
O46   O     O_R   0.249990 0.519960 0.071680 -0.645807
O47   O     O_R   0.750010 0.019960 0.428320 -0.580552
O48   O     O_R   0.249990 0.980040 0.428320 -0.614389
O49   O     O_R   0.750010 0.980040 0.571680 -0.640923
O50   O     O_R   0.249990 0.019960 0.571680 -0.625660
O51   O     O_R   0.250010 0.519960 0.428320 -0.607156
O52   O     O_R   0.250000 0.928340 0.019930 -0.638650
O53   O     O_R   0.749990 0.480040 0.428320 -0.650590
O54   O     O_R   0.250010 0.480040 0.571680 -0.634156
O55   O     O_R   0.749990 0.519960 0.571680 -0.645756
O56   O     O_R   0.341630 0.025860 0.025880 -0.606118
O57   O     O_R   0.658370 0.974140 0.025880 -0.611734
O58   O     O_R   0.341630 0.974140 0.974120 -0.600709
O59   O     O_R   0.658370 0.025860 0.974120 -0.598939
O60   O     O_R   0.841630 0.525860 0.025880 -0.604208
O61   O     O_R   0.158370 0.474140 0.025880 -0.609849
O62   O     O_R   0.841630 0.474140 0.974120 -0.601204
O63   O     O_R   0.750000 0.071660 0.019930 -0.603315
O64   O     O_R   0.158370 0.525860 0.974120 -0.599982
O65   O     O_R   0.841630 0.025860 0.525880 -0.603703
O66   O     O_R   0.158370 0.974140 0.525880 -0.601411
O67   O     O_R   0.841630 0.974140 0.474120 -0.599386
O68   O     O_R   0.158370 0.025860 0.474120 -0.601961
O69   O     O_R   0.341630 0.525860 0.525880 -0.604374
O70   O     O_R   0.658370 0.474140 0.525880 -0.609760
O71   O     O_R   0.341630 0.474140 0.474120 -0.600407
O72   O     O_R   0.658370 0.525860 0.474120 -0.599963
O73   O     O_R   0.158400 0.025850 0.025870 -0.625908
O74   O     O_R   0.750000 0.571660 0.980070 -0.627831
O75   O     O_R   0.841600 0.974150 0.025870 -0.635701
O76   O     O_R   0.158400 0.974150 0.974130 -0.640555
O77   O     O_R   0.841600 0.025850 0.974130 -0.629544
O78   O     O_R   0.658400 0.525850 0.025870 -0.643093
O79   O     O_R   0.341600 0.474150 0.025870 -0.626953
O80   O     O_R   0.658400 0.474150 0.974130 -0.624641
O81   O     O_R   0.341600 0.525850 0.974130 -0.635073
O82   O     O_R   0.658400 0.025850 0.525870 -0.623141
O83   O     O_R   0.341600 0.974150 0.525870 -0.642251
O84   O     O_R   0.658400 0.974150 0.474130 -0.650523
O85   O     O_R   0.250000 0.428340 0.980070 -0.609807
O86   O     O_R   0.341600 0.025850 0.474130 -0.631466
O87   O     O_R   0.158400 0.525850 0.525870 -0.643242
O88   O     O_R   0.841600 0.474150 0.525870 -0.626933
O89   O     O_R   0.158400 0.474150 0.474130 -0.624283
O90   O     O_R   0.841600 0.525850 0.474130 -0.635132
O91   O     O_R   0.198320 0.795840 0.295890 -0.622690
O92   O     O_R   0.801680 0.204160 0.295890 -0.619431
O93   O     O_R   0.198320 0.204160 0.704110 -0.630398
O94   O     O_R   0.801680 0.795840 0.704110 -0.630488
O95   O     O_R   0.698320 0.295840 0.295890 -0.629275
O96   O     O_R   0.750000 0.428340 0.019930 -0.640567
O97   O     O_R   0.301680 0.704160 0.295890 -0.622144
O98   O     O_R   0.698320 0.704160 0.704110 -0.628284
O99   O     O_R   0.301680 0.295840 0.704110 -0.628774
O100  O     O_R   0.698320 0.795840 0.795890 -0.626880
O101  O     O_R   0.301680 0.204160 0.795890 -0.630618
O102  O     O_R   0.698320 0.204160 0.204110 -0.629241
O103  O     O_R   0.301680 0.795840 0.204110 -0.633405
O104  O     O_R   0.198320 0.295840 0.795890 -0.628683
O105  O     O_R   0.801680 0.704160 0.795890 -0.624187
O106  O     O_R   0.198320 0.704160 0.204110 -0.628027
O107  O     O_R   0.250000 0.571660 0.019930 -0.583141
O108  O     O_R   0.801680 0.295840 0.204110 -0.630262
O109  O     O_R   0.301770 0.795830 0.295870 -0.624367
O110  O     O_R   0.698230 0.204170 0.295870 -0.628447
O111  O     O_R   0.301770 0.204170 0.704130 -0.630037
O112  O     O_R   0.698230 0.795830 0.704130 -0.629086
O113  O     O_R   0.801770 0.295830 0.295870 -0.632208
O114  O     O_R   0.198230 0.704170 0.295870 -0.629447
O115  O     O_R   0.801770 0.704170 0.704130 -0.625276
O116  O     O_R   0.198230 0.295830 0.704130 -0.630093
O117  O     O_R   0.801770 0.795830 0.795870 -0.632821
O118  O     O_R   0.750000 0.071660 0.480070 -0.636847
O119  O     O_R   0.198230 0.204170 0.795870 -0.628929
O120  O     O_R   0.801770 0.204170 0.204130 -0.628104
O121  O     O_R   0.198230 0.795830 0.204130 -0.627405
O122  O     O_R   0.301770 0.295830 0.795870 -0.630953
O123  O     O_R   0.698230 0.704170 0.795870 -0.627076
O124  O     O_R   0.301770 0.704170 0.204130 -0.625571
O125  O     O_R   0.698230 0.295830 0.204130 -0.628930
O126  O     O_3   0.379677 0.906598 0.007744 -0.659871
O127  O     O_3   0.613443 0.090760 0.019998 -0.643623
O128  O     O_3   0.377305 0.088585 0.983025 -0.657892
Zn1   Zn    Zn3+2 0.250010 0.034530 0.034550 0.932578
Zn2   Zn    Zn3+2 0.249990 0.965470 0.534550 0.929908
Zn3   Zn    Zn3+2 0.750010 0.965470 0.465450 0.955414
Zn4   Zn    Zn3+2 0.249990 0.034530 0.465450 0.931996
Zn5   Zn    Zn3+2 0.250010 0.534530 0.534550 0.933763
Zn6   Zn    Zn3+2 0.749990 0.465470 0.534550 0.929889
Zn7   Zn    Zn3+2 0.250010 0.465470 0.465450 0.940841
Zn8   Zn    Zn3+2 0.749990 0.534530 0.465450 0.965480
Zn9   Zn    Zn3+2 0.180950 0.750000 0.250000 0.939181
Zn10  Zn    Zn3+2 0.819050 0.250000 0.250000 0.940076
Zn11  Zn    Zn3+2 0.180950 0.250000 0.750000 0.934138
Zn12  Zn    Zn3+2 0.749990 0.965470 0.034550 0.924749
Zn13  Zn    Zn3+2 0.819050 0.750000 0.750000 0.938249
Zn14  Zn    Zn3+2 0.680950 0.250000 0.250000 0.933179
Zn15  Zn    Zn3+2 0.319050 0.750000 0.250000 0.941530
Zn16  Zn    Zn3+2 0.680950 0.750000 0.750000 0.936056
Zn17  Zn    Zn3+2 0.319050 0.250000 0.750000 0.933835
Zn18  Zn    Zn3+2 0.250010 0.965470 0.965450 0.928450
Zn19  Zn    Zn3+2 0.749990 0.034530 0.965450 0.956912
Zn20  Zn    Zn3+2 0.750010 0.534530 0.034550 0.934130
Zn21  Zn    Zn3+2 0.249990 0.465470 0.034550 0.930075
Zn22  Zn    Zn3+2 0.750010 0.465470 0.965450 0.939997
Zn23  Zn    Zn3+2 0.249990 0.534530 0.965450 0.965396
Zn24  Zn    Zn3+2 0.750010 0.034530 0.534550 0.923316

loop_
_geom_bond_atom_site_label_1
_geom_bond_atom_site_label_2
_ccdc_geom_bond_type
O40   Zn1   S    
C191  H81   S    
C249  H216  S    
C87   C91   A    
C130  C146  A    
O45   Zn20  S    
C3    C353  A    
C177  H49   S    
C291  C292  S    
C106  O18   S    
C244  H205  S    
C193  H84   S    
O92   Zn10  S    
C278  H286  S    
C167  H26   S    
C329  H361  S    
O80   Zn22  S    
C75   H68   S    
C43   C61   A    
C282  C283  S    
C295  H325  S    
C319  C337  A    
C70   H13   S    
C284  C285  S    
C126  H101  S    
O75   Zn12  S    
C177  O11   S    
C204  H111  S    
O71   Zn7   S    
C6    C365  A    
C15   O115  A    
C321  C339  A    
C252  H225  S    
C19   C113  S    
C232  H175  S    
C38   C368  S    
C271  C272  S    
C324  H356  S    
C164  O7    S    
C244  C245  S    
C105  C123  A    
C274  C275  S    
C42   O90   A    
C161  H11   S    
O87   Zn5   S    
C182  C183  S    
C136  C201  A    
C118  O29   S    
C145  H373  S    
C297  H336  S    
O91   Zn9   S    
C291  H318  S    
C150  H385  S    
C352  C366  A    
C275  C276  S    
C78   C96   A    
C272  C273  S    
C268  H268  S    
C32   C104  S    
C16   O99   A    
C140  H246  S    
C48   C65   A    
C230  H170  S    
C358  O118  A    
C281  H295  S    
C210  H127  S    
C202  H106  S    
O99   Zn17  S    
C27   O59   A    
C222  H155  S    
C273  H269  S    
C122  O33   S    
C234  C236  S    
C143  H369  S    
C285  H300  S    
C270  H260  S    
O63   Zn19  S    
C228  C229  S    
C205  H115  S    
C188  H75   S    
C170  H32   S    
C279  C316  A    
C301  H312  S    
C311  H343  S    
C225  H158  S    
C202  C203  S    
C50   C84   A    
C191  C192  S    
C318  C335  A    
C251  C252  S    
C312  C330  A    
C258  H241  S    
C44   C81   A    
O100  Zn16  S    
C47   C64   A    
C109  C335  A    
C243  H202  S    
C231  H173  S    
O106  Zn9   S    
C214  H136  S    
C116  C133  A    
C134  H190  S    
C178  H51   S    
C234  O30   S    
C153  H393  S    
C182  H59   S    
C350  C366  A    
C302  C320  A    
C240  H193  S    
C148  H380  S    
C121  O32   S    
C28   O62   A    
O117  Zn13  S    
C75   C76   A    
C253  H220  S    
C229  C230  S    
O93   Zn11  S    
C49   C85   A    
C206  H118  S    
C181  O12   S    
O24   Zn4   S    
C111  C130  A    
C109  O21   S    
C175  C176  S    
C230  H171  S    
C165  H20   S    
C138  C224  A    
C284  C361  S    
C186  H70   S    
C173  H40   S    
C68   O37   A    
C30   C102  S    
C295  H324  S    
C12   O95   A    
C171  H34   S    
C210  O22   S    
C31   C100  S    
C60   O16   S    
C86   C99   A    
C320  C338  A    
C154  C155  S    
C57   O36   A    
C263  H243  S    
C203  H108  S    
C349  C367  A    
C64   H112  S    
C356  C368  A    
C5    C39   S    
C53   C89   A    
C158  C159  S    
C287  C362  S    
C296  H322  S    
C120  C138  A    
C298  C299  S    
C193  H86   S    
C53   C71   A    
O36   Zn7   S    
C51   C83   A    
C325  O85   A    
C314  O74   A    
C217  H143  S    
C227  H163  S    
C212  C309  A    
C74   H57   S    
O52   Zn18  S    
C169  H28   S    
C288  C289  S    
C241  H197  S    
C30   O67   A    
C76   H35   S    
C283  H292  S    
C114  C339  A    
C215  H138  S    
C88   C102  A    
C6    C363  A    
C323  H355  S    
C246  C312  A    
C218  H144  S    
C254  H233  S    
C264  H258  S    
C66   H379  S    
C144  C145  S    
C11   C190  S    
C105  O17   S    
O112  Zn16  S    
O119  Zn11  S    
C38   O81   A    
C67   H346  S    
C319  H351  S    
C151  H386  S    
C54   C88   A    
C328  C345  A    
C155  H397  S    
O86   Zn4   S    
C294  C295  S    
C257  H257  S    
C61   H223  S    
C130  H146  S    
C237  H185  S    
C45   C80   A    
C252  H222  S    
C167  O8    S    
C241  O32   S    
C350  C351  A    
C132  H168  S    
C29   O61   A    
C347  O46   A    
C197  H95   S    
C175  H44   S    
O88   Zn6   S    
C195  C196  S    
C1    C331  S    
C213  H131  S    
C83   C86   A    
C310  C328  A    
C209  H126  S    
C3    C37   S    
O95   Zn14  S    
C200  C202  S    
C27   O57   A    
O39   Zn19  S    
C359  C360  A    
O70   Zn6   S    
C183  H61   S    
C52   C91   A    
C162  H12   S    
C51   C69   A    
C10   O93   A    
C260  H236  S    
C288  H309  S    
C23   O106  A    
O61   Zn21  S    
C160  H9    S    
C142  H366  S    
C148  O128  S    
C256  H230  S    
C120  C345  A    
O66   Zn2   S    
O59   Zn19  S    
C170  H30   S    
C56   C95   A    
C289  H305  S    
C251  H226  S    
C265  H255  S    
C300  H301  S    
C80   C97   A    
C324  C342  A    
C35   C344  S    
C163  H17   S    
C131  H157  S    
C229  H169  S    
C216  H140  S    
C255  H231  S    
C243  H200  S    
C167  C169  S    
C8    O91   A    
C262  H247  S    
C250  H214  S    
C244  H204  S    
C106  C125  A    
C249  C250  S    
C216  H141  S    
C33   O70   A    
C240  H195  S    
C140  C246  A    
O74   Zn20  S    
C328  H360  S    
C311  C329  A    
C227  H162  S    
C17   O117  A    
C186  H69   S    
C206  H116  S    
C261  C262  S    
C4    C361  A    
C167  H27   S    
C255  H232  S    
C35   O34   A    
C276  H275  S    
C123  H79   S    
C208  H122  S    
C184  C185  S    
C116  C341  A    
C14   O97   A    
O68   Zn4   S    
C12   O113  A    
C147  H376  S    
C164  H19   S    
C72   H390  S    
C9    O110  A    
C185  H67   S    
C138  H224  S    
C174  C175  S    
C204  H110  S    
C11   O112  A    
C129  C135  A    
C218  H145  S    
O51   Zn7   S    
C302  H323  S    
C282  H293  S    
C12   C224  S    
C4    C40   S    
C264  C265  S    
C83   C98   A    
C251  H227  S    
C191  O16   S    
O124  Zn15  S    
C32   O69   A    
C304  C321  A    
C336  O96   A    
C22   O105  A    
C50   C67   A    
C250  H211  S    
C156  H399  S    
C297  H333  S    
C207  O21   S    
C291  H319  S    
C66   C67   A    
C236  H184  S    
C158  H4    S    
C277  C278  S    
C248  H217  S    
C306  H338  S    
C207  H119  S    
O53   Zn8   S    
C220  C221  S    
C10   C201  S    
C101  C126  A    
C199  H99   S    
C115  C132  A    
C60   C92   A    
C115  O26   S    
C357  C361  A    
C52   O8    S    
C316  C333  A    
C105  C331  A    
O44   Zn23  S    
C245  H206  S    
C34   O73   A    
C168  C305  A    
C79   C257  A    
C315  H347  S    
C273  H266  S    
C286  H298  S    
C325  C337  S    
C247  H208  S    
C147  H377  S    
C238  H188  S    
C57   C346  S    
C190  C307  A    
C46   C345  S    
C174  H41   S    
C233  H178  S    
C186  H71   S    
C219  H147  S    
C259  H239  S    
C20   C101  S    
C24   O24   A    
C16   C235  S    
C300  C318  A    
C217  C218  S    
O54   Zn5   S    
C272  H270  S    
C318  H350  S    
C237  H187  S    
C118  C136  A    
C49   C66   A    
C247  H209  S    
C274  C357  S    
C277  C359  S    
C298  H331  S    
C223  C333  S    
C248  C349  S    
C23   O124  A    
C199  H102  S    
C243  H203  S    
C176  H45   S    
C211  H129  S    
C114  O25   S    
C266  H252  S    
C219  H149  S    
C15   C246  S    
C317  C334  A    
C151  C152  S    
O96   Zn22  S    
C133  H179  S    
C62   C63   A    
C149  H382  S    
O13   Zn3   S    
C22   O123  A    
C68   O55   A    
C20   O103  A    
C88   C89   A    
C275  H278  S    
O118  Zn24  S    
C330  H362  S    
C204  O20   S    
O43   Zn22  S    
C253  H221  S    
C119  O30   S    
C28   C99   S    
C172  H36   S    
C349  C352  A    
C150  H384  S    
C166  H22   S    
C293  H313  S    
C187  H72   S    
C48   C86   A    
C38   O79   A    
C301  C319  A    
C242  H199  S    
C4    C359  A    
C128  H124  S    
C299  H328  S    
C155  C156  S    
C200  H103  S    
C203  H109  S    
C266  H253  S    
C87   C100  A    
C50   O6    S    
C196  H93   S    
C198  H97   S    
O77   Zn19  S    
C249  H215  S    
C304  H335  S    
O69   Zn5   S    
O62   Zn22  S    
C33   O72   A    
C289  H307  S    
C358  O47   A    
O94   Zn13  S    
C316  H348  S    
C9    C168  S    
O67   Zn3   S    
C294  H326  S    
C13   C342  S    
O58   Zn18  S    
C159  H6    S    
C262  C263  S    
O78   Zn20  S    
C322  H354  S    
C339  C347  S    
C58   O14   S    
C321  H353  S    
O104  Zn11  S    
C124  C128  A    
C180  H54   S    
C121  C139  A    
C258  C259  S    
C5    C360  A    
C122  C140  A    
C71   C72   A    
C351  C367  A    
O108  Zn10  S    
C228  O28   S    
C267  H265  S    
C115  C340  A    
C232  H176  S    
C44   O127  S    
C53   O9    S    
C23   C157  S    
C9    O92   A    
C269  H263  S    
C21   C135  S    
C171  O9    S    
C32   O71   A    
C307  C324  A    
C7    C41   S    
C55   C87   A    
C197  C198  S    
C41   O87   A    
O85   Zn21  S    
C125  H90   S    
C308  C326  A    
C73   H2    S    
C26   C97   S    
C151  H387  S    
C327  C344  A    
C55   C73   A    
C234  H181  S    
C244  O33   S    
C152  C153  S    
C226  C227  S    
O113  Zn10  S    
C252  C253  S    
O102  Zn14  S    
C47   C78   A    
C14   O114  A    
C59   C76   A    
C229  H167  S    
C65   H368  S    
C294  H327  S    
C255  C256  S    
C210  H128  S    
C209  H123  S    
C36   O75   A    
C230  H172  S    
C274  H281  S    
C222  H156  S    
C114  C131  A    
C194  H87   S    
C287  H310  S    
C284  H304  S    
C145  H374  S    
C270  H261  S    
C183  H63   S    
C161  C162  S    
C177  H50   S    
C233  H180  S    
C151  O3    S    
C205  H114  S    
C354  C355  A    
C181  C182  S    
C172  C173  S    
C189  H77   S    
C208  C209  S    
C305  H337  S    
C29   C98   S    
C260  H238  S    
C164  C165  S    
C239  C240  S    
C225  C226  S    
C329  C346  A    
O1    Zn1   S    
C184  H65   S    
C141  H364  S    
C303  O63   A    
C163  H16   S    
C176  H47   S    
C193  H85   S    
O72   Zn8   S    
C220  H151  S    
C42   O88   A    
C154  H395  S    
C15   O98   A    
C178  H52   S    
C238  H189  S    
C153  H392  S    
C182  H60   S    
C248  H218  S    
C46   O53   A    
C240  H194  S    
C297  C298  S    
O122  Zn17  S    
O121  Zn9   S    
C131  C157  A    
C253  H219  S    
O41   Zn12  S    
C8    O109  A    
C68   C348  S    
C161  O6    S    
C189  H76   S    
C277  H288  S    
C276  H274  S    
C18   C79   S    
C173  H39   S    
C271  H273  S    
C293  H315  S    
C363  C364  A    
C54   O10   S    
C169  H29   S    
C25   C146  S    
C171  H33   S    
C164  H18   S    
C228  H165  S    
C245  H207  S    
C37   O78   A    
C310  H342  S    
C203  H107  S    
C174  O10   S    
O107  Zn23  S    
C194  C195  S    
O76   Zn18  S    
C297  C365  S    
C214  O23   S    
C201  C308  A    
C27   C96   S    
C189  H78   S    
C122  C348  A    
C181  H58   S    
C327  H359  S    
C117  C134  A    
C288  H308  S    
O35   Zn6   S    
C145  C147  S    
C156  H398  S    
C165  H21   S    
C217  H142  S    
C173  H38   S    
C24   C343  S    
C194  H88   S    
C323  C341  A    
C322  C340  A    
C56   C74   A    
C305  C322  A    
C89   C100  A    
C207  C208  S    
C347  O107  A    
C241  H196  S    
C55   O11   S    
C84   C85   A    
C258  H242  S    
O83   Zn2   S    
C283  H291  S    
C263  H245  S    
C106  C332  A    
C313  H345  S    
C295  C296  S    
C215  H137  S    
C81   C96   A    
C7    C364  A    
O57   Zn12  S    
C197  H96   S    
C113  C290  A    
C51   O7    S    
C18   O119  A    
C290  C317  A    
C278  H285  S    
C296  H321  S    
C34   O76   A    
C61   C64   A    
C90   C268  A    
C285  C286  S    
C13   O13   A    
C26   O58   A    
C109  C128  A    
C217  O25   S    
C159  C160  S    
C308  H340  S    
C158  O5    S    
C70   C73   A    
C242  C243  S    
C111  C338  A    
C59   O15   S    
O109  Zn15  S    
C22   C124  S    
C223  O52   A    
C227  H164  S    
C33   C103  S    
C175  H43   S    
C314  C335  S    
C281  H296  S    
C1    O38   A    
C202  H105  S    
C336  C338  S    
C2    O2    A    
C209  H125  S    
C94   C103  A    
C36   O77   A    
C264  H256  S    
C222  H154  S    
C82   C97   A    
C239  H191  S    
C107  C333  A    
C195  H91   S    
C157  C304  A    
C270  H259  S    
C309  C327  A    
C353  C356  A    
C248  C249  S    
C127  H113  S    
C162  C163  S    
C170  H31   S    
C25   O125  A    
C238  C239  S    
C225  H159  S    
C226  H160  S    
C254  C351  S    
C84   C99   A    
C101  C279  A    
C124  C300  A    
C17   C90   S    
C224  C310  A    
C71   H24   S    
C325  O44   A    
O103  Zn15  S    
C178  C180  S    
C231  H174  S    
C219  H148  S    
C262  H248  S    
C196  H92   S    
C200  O19   S    
C154  H394  S    
C143  H370  S    
C112  O41   A    
C14   C212  S    
C271  H272  S    
C313  C331  A    
C117  O28   S    
C258  C352  S    
C292  H317  S    
O81   Zn23  S    
C149  C150  S    
C256  H228  S    
C206  H117  S    
C36   C366  S    
C267  C269  S    
C8    C179  S    
C57   O54   A    
C185  C186  S    
C117  C342  A    
C45   C63   A    
C276  H276  S    
O65   Zn24  S    
C65   C69   A    
C141  O126  S    
C16   O116  A    
C34   C367  S    
C232  C233  S    
O2    Zn2   S    
C90   C125  A    
C354  C368  A    
C236  H183  S    
C261  H250  S    
C280  H283  S    
C185  H66   S    
C56   O12   S    
C37   O80   A    
C5    C357  A    
C29   O64   A    
C110  C337  A    
C291  C363  S    
C263  H244  S    
C326  H358  S    
C192  H83   S    
C254  H234  S    
C282  H294  S    
C303  O42   A    
C177  C178  S    
C161  H10   S    
C317  H349  S    
C142  C143  S    
C112  O39   A    
C220  O26   S    
O60   Zn20  S    
C303  C334  S    
C2    O48   A    
C137  C212  A    
C156  H400  S    
C235  C311  A    
C362  C365  A    
C146  C302  A    
C120  O31   S    
C163  H15   S    
C171  C172  S    
O115  Zn13  S    
C165  C166  S    
O89   Zn7   S    
C31   O66   A    
C340  C358  S    
C169  C170  S    
C41   O89   A    
C40   O83   A    
C271  C356  S    
C215  C216  S    
C266  H251  S    
C7    C362  A    
C10   O111  A    
C62   H334  S    
C205  C206  S    
C236  C237  S    
C213  H133  S    
O101  Zn17  S    
C20   O121  A    
C254  C255  S    
C110  C129  A    
C13   O49   A    
C11   O94   A    
C286  H299  S    
C287  H311  S    
C19   O120  A    
C152  H388  S    
O111  Zn17  S    
C35   O51   A    
C174  H42   S    
C144  O127  S    
C233  H177  S    
O114  Zn9   S    
C330  C348  A    
C241  C242  S    
O105  Zn13  S    
C269  C270  S    
C237  H186  S    
C267  C355  S    
C129  H135  S    
C298  H332  S    
C265  H254  S    
C78   C82   A    
C264  C354  S    
C85   C98   A    
O50   Zn2   S    
C92   C103  A    
C268  C315  A    
C147  H375  S    
C210  C211  S    
C213  H132  S    
C220  H150  S    
C172  H37   S    
C39   O82   A    
C47   O3    S    
C26   O56   A    
O46   Zn21  S    
C149  H381  S    
C183  H62   S    
C198  C199  S    
C195  H89   S    
C180  H53   S    
C275  H277  S    
C107  O19   S    
C121  C346  A    
C142  H365  S    
O56   Zn1   S    
C279  H279  S    
C256  H229  S    
O79   Zn21  S    
O116  Zn11  S    
C225  O27   S    
C289  H306  S    
C292  C293  S    
C144  H372  S    
C180  H55   S    
C166  H23   S    
C24   O50   A    
C290  H290  S    
C31   O68   A    
C216  H139  S    
C326  C343  A    
C135  C301  A    
C93   C104  A    
C200  H104  S    
C58   C75   A    
C314  O43   A    
C1    O1    A    
C250  H213  S    
C196  H94   S    
C198  H98   S    
C17   O100  A    
O73   Zn1   S    
C60   C77   A    
C137  H212  S    
C30   O65   A    
C221  H153  S    
O64   Zn23  S    
O42   Zn12  S    
C239  H192  S    
C63   H1    S    
C3    C355  A    
C69   H357  S    
C148  C149  S    
C162  H14   S    
C49   O5    S    
C214  C215  S    
C133  C179  A    
C261  H249  S    
O98   Zn16  S    
C160  H7    S    
O34   Zn5   S    
C44   C62   A    
C281  C282  S    
C79   C123  A    
C208  H121  S    
C74   C77   A    
C92   C95   A    
C280  H284  S    
C191  H80   S    
C25   O108  A    
O47   Zn3   S    
C188  C189  S    
C312  H344  S    
C111  O23   S    
O123  Zn16  S    
O49   Zn24  S    
C257  C313  A    
C221  C222  S    
O38   Zn18  S    
O125  Zn14  S    
C221  H152  S    
C223  O40   A    
C118  C343  A    
C269  H262  S    
O37   Zn8   S    
C260  H237  S    
C144  H371  S    
C93   C94   A    
C119  C344  A    
C204  C205  S    
C214  H134  S    
C277  H287  S    
C152  H389  S    
C285  H302  S    
C160  H8    S    
C272  H271  S    
C234  H182  S    
C143  H367  S    
C211  C213  S    
C166  H25   S    
C187  H73   S    
C158  H3    S    
C287  C288  S    
C136  H201  S    
C278  C280  S    
C207  H120  S    
C299  H329  S    
C91   C102  A    
C259  C260  S    
C179  C306  A    
C139  H235  S    
C293  H314  S    
C154  O4    S    
C95   C104  A    
C2    C341  S    
C199  H100  S    
C306  C323  A    
C40   O86   A    
C21   O122  A    
C188  H74   S    
C48   O4    S    
C194  O17   S    
C181  H56   S    
O110  Zn14  S    
C21   O104  A    
C273  H267  S    
C286  H297  S    
C231  O29   S    
C132  C168  A    
C107  C126  A    
C261  C353  S    
C80   C81   A    
C108  O20   S    
C39   O84   A    
C155  H396  S    
C320  H352  S    
C281  C360  S    
C274  H280  S    
C259  H240  S    
C113  C127  A    
C226  H161  S    
O120  Zn10  S    
O55   Zn6   S    
C59   C93   A    
O84   Zn3   S    
C299  H330  S    
C159  H5    S    
C77   H46   S    
C247  H210  S    
C280  H282  S    
C192  C193  S    
C134  C190  A    
C245  C247  S    
C58   C94   A    
C251  C350  S    
C309  H341  S    
C283  H289  S    
C141  C142  S    
C141  H363  S    
C139  C235  A    
C197  O18   S    
C176  H48   S    
C211  H130  S    
C218  C219  S    
C119  C137  A    
C265  C266  S    
C184  H64   S    
O97   Zn15  S    
C267  H264  S    
C153  H391  S    
C43   O126  S    
C184  O14   S    
C19   O102  A    
C336  O45   A    
C148  H378  S    
C46   O35   A    
C28   O60   A    
C108  C127  A    
C294  C364  S    
C108  C334  A    
C292  H316  S    
C52   C70   A    
C112  C332  S    
C187  O15   S    
C54   C72   A    
C187  C188  S    
C150  H383  S    
C231  C232  S    
C296  H320  S    
C43   C82   A    
O48   Zn4   S    
C116  O27   S    
C307  H339  S    
C45   O128  S    
C228  H166  S    
O90   Zn8   S    
C242  H198  S    
C315  C332  A    
C284  H303  S    
O82   Zn24  S    
C238  O31   S    
C192  H82   S    
C110  O22   S    
C18   O101  A    
C6    C42   S    
