data_mof_unit_10353.cif
_audit_creation_date              2013-03-05T16:04:11-0500
_audit_creation_method            fapswitch 2.2
_symmetry_space_group_name_H-M    P1
_symmetry_Int_Tables_number       1
_space_group_crystal_system       triclinic
_cell_length_a                    19.461919
_cell_length_b                    6.93412
_cell_length_c                    17.695729
_cell_angle_alpha                 90.043761
_cell_angle_beta                  108.967723
_cell_angle_gamma                 89.987085
_cell_volume                      2258.39329475

loop_
_atom_site_label
_atom_site_type_symbol
_atom_site_description
_atom_site_fract_x
_atom_site_fract_y
_atom_site_fract_z
_atom_type_partial_charge
O1    O     O_R   0.561710 0.369960 0.440200 -0.576628
O2    O     O_R   0.061710 0.630040 0.940200 -0.593335
O3    O     O_R   0.412630 0.033330 0.406330 -0.601664
O4    O     O_R   0.912630 0.966670 0.906330 -0.606000
O5    O     O_R   0.438290 0.869790 0.559800 -0.592865
O6    O     O_R   0.938290 0.130210 0.059800 -0.590950
C1    C     C_R   0.384944 0.202988 0.383114 0.932765
C2    C     C_R   0.885015 0.796908 0.882984 0.934042
O7    O     O_R   0.559570 0.039810 0.430640 -0.597651
O8    O     O_R   0.059570 0.960190 0.930640 -0.589241
O9    O     O_R   0.586280 0.876320 0.584290 -0.579633
O10   O     O_R   0.086280 0.123680 0.084290 -0.573075
C3    C     C_R   0.580980 0.209017 0.415536 1.026405
C4    C     C_R   0.080896 0.790755 0.915385 1.013464
O11   O     O_R   0.413720 0.363440 0.415710 -0.597149
O12   O     O_R   0.913720 0.636560 0.915710 -0.591556
O13   O     O_3   0.508590 0.205630 0.550380 -0.277981
O14   O     O_3   0.008590 0.794370 0.050380 -0.276635
V1    V     V_3+5 0.498410 0.928130 0.490650 1.180765
V2    V     V_3+5 0.998410 0.071870 0.990650 1.177033
O15   O     O_R   0.587370 0.546990 0.593670 -0.592376
O16   O     O_R   0.087370 0.453010 0.093670 -0.600757
C5    C     C_R   0.614873 0.716862 0.617338 0.983746
C6    C     C_R   0.114985 0.283273 0.117250 0.980133
O17   O     O_R   0.440430 0.540520 0.569360 -0.604104
O18   O     O_R   0.940430 0.459480 0.069360 -0.598540
C7    C     C_R   0.419749 0.709741 0.585494 0.916338
C8    C     C_R   0.917704 0.290700 0.083158 0.910785
V3    V     V_3+5 0.501590 0.428960 0.509350 1.183898
V4    V     V_3+5 0.001590 0.571040 0.009350 1.176339
O19   O     O_3   0.491410 0.701330 0.449620 -0.271063
O20   O     O_3   0.991410 0.298670 0.949620 -0.274863
C9    C     C_R   0.275477 0.582558 0.679174 -0.093022
C10   C     C_R   0.822739 0.406777 0.234732 -0.086070
H1    H     H_    0.237725 0.465679 0.675854 0.095009
H2    H     H_    0.826419 0.515059 0.280016 0.104302
C11   C     C_R   0.322723 0.571561 0.634145 -0.199296
C12   C     C_R   0.868993 0.418702 0.188509 -0.195539
H3    H     H_    0.319875 0.446648 0.596468 0.122599
H4    H     H_    0.907750 0.536011 0.199491 0.130946
C13   C     C_R   0.371859 0.721799 0.636107 -0.128993
C14   C     C_R   0.866470 0.278770 0.130001 -0.145293
C15   C     C_R   0.373386 0.883690 0.685516 0.003331
C16   C     C_R   0.814630 0.127823 0.116931 0.039212
C17   C     C_R   0.326002 0.892782 0.730813 -0.119721
C18   C     C_R   0.767867 0.119181 0.163147 -0.146807
H5    H     H_    0.328251 0.016474 0.769041 0.165141
H6    H     H_    0.727294 0.006281 0.152007 0.160599
C19   C     C_R   0.276758 0.743129 0.728008 0.172526
C20   C     C_R   0.772082 0.256339 0.222727 0.153621
C21   C     C_R   0.227607 0.609229 0.833781 0.327406
C22   C     C_R   0.669460 0.390504 0.266063 0.378219
C23   C     C_R   0.177320 0.620204 0.875563 -0.175095
C24   C     C_R   0.625055 0.378190 0.314868 -0.243303
H7    H     H_    0.176987 0.507966 0.917926 0.205914
H8    H     H_    0.584998 0.489493 0.311097 0.177611
C25   C     C_R   0.130325 0.778377 0.866782 -0.202276
C26   C     C_R   0.629219 0.220243 0.365661 -0.212392
C27   C     C_R   0.131486 0.923422 0.812145 -0.150914
C28   C     C_R   0.680308 0.075243 0.369413 -0.023853
H9    H     H_    0.094797 0.045121 0.803517 0.125932
H10   H     H_    0.685160 0.954082 0.409483 0.146340
C29   C     C_R   0.178194 0.910416 0.766160 0.077161
C30   C     C_R   0.727310 0.087270 0.324065 0.070805
C31   C     C_R   0.227363 0.754384 0.777066 -0.094448
C32   C     C_R   0.721982 0.244310 0.270944 -0.130524
C33   C     C_R   0.806726 0.631315 0.757707 0.092564
C34   C     C_R   0.306717 0.368994 0.258333 0.117124
C35   C     C_R   0.818086 0.783603 0.812730 -0.206576
C36   C     C_R   0.318020 0.216264 0.312939 -0.209195
C37   C     C_R   0.763006 0.924136 0.797888 -0.148573
C38   C     C_R   0.262922 0.075820 0.297818 -0.158636
H11   H     H_    0.769509 0.046974 0.837335 0.106080
H12   H     H_    0.269345 0.952845 0.337096 0.107522
C39   C     C_R   0.696638 0.900180 0.735075 -0.055922
C40   C     C_R   0.196613 0.100147 0.234977 -0.068076
H13   H     H_    0.654457 0.007376 0.727365 0.114149
H14   H     H_    0.154391 0.993027 0.227096 0.110574
C41   C     C_R   0.683616 0.735769 0.684966 -0.248693
C42   C     C_R   0.183741 0.264567 0.184958 -0.254747
C43   C     C_R   0.741837 0.609353 0.695146 0.117895
C44   C     C_R   0.242088 0.390926 0.195410 0.139896
C45   C     C_3   0.745862 0.394000 0.698492 0.141660
C46   C     C_3   0.246375 0.606400 0.199150 0.113800
C47   C     C_3   0.817611 0.418180 0.768167 -0.316072
C48   C     C_3   0.317409 0.581911 0.269649 -0.333067
H15   H     H_    0.701201 0.328246 0.715950 0.053019
H16   H     H_    0.201042 0.672109 0.215427 0.051616
H17   H     H_    0.815195 0.366697 0.826727 0.155863
H18   H     H_    0.313997 0.632246 0.327975 0.153655
N1    N     N_R   0.753638 0.308172 0.625907 0.246995
O21   O     O_R   0.764149 0.123465 0.623178 -0.416347
O22   O     O_R   0.742933 0.410200 0.561344 -0.415210
N2    N     N_R   0.255853 0.692188 0.127462 0.253814
O23   O     O_R   0.261950 0.878201 0.122994 -0.377599
O24   O     O_R   0.256124 0.585799 0.066935 -0.384667
N3    N     N_3   0.883439 0.354650 0.752288 -0.175523
H19   H     H_    0.882352 0.204181 0.748471 0.166792
H20   H     H_    0.884945 0.409687 0.697806 0.156044
N4    N     N_3   0.383787 0.646745 0.255321 -0.162011
H21   H     H_    0.381940 0.797028 0.250479 0.179622
H22   H     H_    0.386915 0.589969 0.201734 0.188225
N5    N     N_3   0.424241 0.037061 0.691673 -0.193670
H23   H     H_    0.456631 0.049447 0.751553 0.131775
H24   H     H_    0.395014 0.165413 0.675316 0.124197
N6    N     N_3   0.808332 0.986453 0.055535 -0.192664
H25   H     H_    0.771225 0.878855 0.057247 0.131346
H26   H     H_    0.786964 0.055977 0.000428 0.094951
N7    N     N_R   0.280089 0.454786 0.852325 0.231136
O25   O     O_R   0.265884 0.293627 0.881906 -0.390683
O26   O     O_R   0.345972 0.484330 0.851841 -0.369422
N8    N     N_R   0.658988 0.549355 0.210905 0.225990
O27   O     O_R   0.631295 0.710681 0.225216 -0.421005
O28   O     O_R   0.667435 0.525990 0.141487 -0.391054
N9    N     N_3   0.174199 0.053682 0.706553 -0.221604
H27   H     H_    0.121411 0.052859 0.665868 0.091705
H28   H     H_    0.182979 0.188642 0.734334 0.134346
N10   N     N_3   0.781816 0.941022 0.335393 -0.202632
H29   H     H_    0.832700 0.007594 0.350600 0.103901
H30   H     H_    0.772757 0.865903 0.281902 0.138622

loop_
_geom_bond_atom_site_label_1
_geom_bond_atom_site_label_2
_geom_bond_distance
_ccdc_geom_bond_type
C45   H15   1.110752 S    
C29   C31   1.415392 A    
O13   V3    1.697407 S    
O4    C2    1.303995 A    
V1    O19   1.718435 S    
C1    C36   1.481770 S    
N8    O28   1.301234 A    
N3    H19   1.045279 S    
O9    V1    1.989431 S    
C2    C35   1.482530 S    
C39   C41   1.415167 A    
C19   C31   1.492056 S    
C12   H4    1.083105 S    
C46   C48   1.541237 S    
C12   C14   1.407579 A    
O3    C1    1.303706 A    
N7    O26   1.301290 A    
C24   C26   1.402879 A    
C25   C27   1.400914 A    
N6    H25   1.045761 S    
C22   N8    1.442132 S    
C9    C19   1.404145 A    
N9    H27   1.045466 S    
C30   N10   1.433686 S    
C28   H10   1.083913 S    
O7    V1    1.991865 S    
C21   C31   1.420837 A    
C8    C14   1.491854 S    
C35   C37   1.408755 A    
O7    C3    1.301838 A    
N10   H29   1.045459 S    
N3    H20   1.046396 S    
O5    C7    1.294678 A    
C6    C42   1.483537 S    
O6    C8    1.294815 A    
O8    V2    1.991025 S    
N9    H28   1.044707 S    
O3    V1    1.981751 S    
O14   V4    1.696452 S    
V4    O20   2.141120 S    
C48   N4    1.465816 S    
C10   H2    1.082973 S    
C38   C40   1.413403 A    
C29   N9    1.433102 S    
C2    O12   1.293881 A    
C17   H5    1.083999 S    
C21   N7    1.442223 S    
C13   C15   1.416732 A    
C14   C16   1.419638 A    
O1    V3    1.990853 S    
N8    O27   1.301550 A    
C43   C45   1.495531 S    
C22   C24   1.409027 A    
O11   V3    2.008417 S    
N10   H30   1.043640 S    
C23   H7    1.082476 S    
O17   V3    1.990701 S    
C24   H8    1.083451 S    
C27   H9    1.083677 S    
C33   C47   1.496038 S    
C40   C42   1.415384 A    
C42   C44   1.398228 A    
C48   H18   1.111539 S    
N1    O21   1.300307 A    
C37   H11   1.081893 S    
C47   H17   1.111631 S    
O13   V1    2.172552 S    
C3    C26   1.484984 S    
C16   C18   1.408788 A    
O15   V3    2.015610 S    
C9    C11   1.400841 A    
C33   C35   1.403789 A    
C30   C32   1.420663 A    
N1    O22   1.302170 A    
C39   H13   1.082639 S    
C7    C13   1.490076 S    
C17   C19   1.402586 A    
O10   V2    1.989112 S    
N4    H22   1.046360 S    
N5    H24   1.045260 S    
C46   N2    1.466451 S    
N2    O24   1.301509 A    
C15   C17   1.406176 A    
C20   C32   1.492199 S    
C34   C48   1.495241 S    
C38   H12   1.081782 S    
C45   C47   1.542313 S    
C33   C43   1.390895 A    
C44   C46   1.496683 S    
O15   C5    1.305060 A    
O8    C4    1.302930 A    
O16   C6    1.304956 A    
O1    C3    1.296937 A    
O12   V4    2.008815 S    
C22   C32   1.422043 A    
C41   C43   1.397076 A    
V2    O20   1.719395 S    
C4    C25   1.486662 S    
C18   C20   1.401816 A    
C23   C25   1.403931 A    
O16   V4    2.016230 S    
C10   C12   1.401789 A    
O18   C8    1.302229 A    
C46   H16   1.110750 S    
C40   H14   1.082602 S    
C10   C20   1.403307 A    
O18   V4    1.991542 S    
O5    V1    1.990406 S    
C16   N6    1.438115 S    
O17   C7    1.301670 A    
C45   N1    1.466985 S    
O10   C6    1.290116 A    
C27   C29   1.406179 A    
O2    V4    1.991344 S    
C28   C30   1.401795 A    
C34   C44   1.390953 A    
C11   H3    1.083029 S    
N7    O25   1.301663 A    
C37   C39   1.413483 A    
N6    H26   1.045610 S    
O6    V2    1.989920 S    
C1    O11   1.293650 A    
O9    C5    1.289728 A    
N4    H21   1.045315 S    
C9    H1    1.082713 S    
O14   V2    2.173902 S    
C11   C13   1.407054 A    
N2    O23   1.300131 A    
O2    C4    1.296806 A    
C15   N5    1.432707 S    
C47   N3    1.465565 S    
C21   C23   1.407322 A    
O4    V2    1.981191 S    
C18   H6    1.083562 S    
V3    O19   2.142466 S    
N5    H23   1.045566 S    
C34   C36   1.402487 A    
C36   C38   1.408329 A    
C5    C41   1.482670 S    
C26   C28   1.400242 A    
