data_mof_unit_62448.cif
_audit_creation_date              2012-12-10T19:09:05-0500
_audit_creation_method            fapswitch 2.2
_symmetry_space_group_name_H-M    P1
_symmetry_Int_Tables_number       1
_space_group_crystal_system       triclinic
_cell_length_a                    30.210119
_cell_length_b                    30.209693
_cell_length_c                    18.244351
_cell_angle_alpha                 89.999954
_cell_angle_beta                  89.997245
_cell_angle_gamma                 89.999804
_cell_volume                      16650.49566

loop_
_atom_site_label
_atom_site_type_symbol
_atom_type_description
_atom_site_fract_x
_atom_site_fract_y
_atom_site_fract_z
_atom_type_partial_charge
C1    C     C_R   0.225379 0.999998 0.499994 0.167936
C2    C     C_R   0.963768 0.202505 0.470878 -0.189287
C3    C     C_R   0.011918 0.656842 0.565008 0.097490
C4    C     C_R   0.656847 0.012031 0.435057 0.097615
C5    C     C_R   0.012234 0.343151 0.435154 0.097768
C6    C     C_R   0.343158 0.987951 0.435060 0.097630
C7    C     C_R   0.988082 0.656842 0.434994 0.097491
C8    C     C_R   0.843151 0.512070 0.064922 0.097639
C9    C     C_R   0.488076 0.843158 0.065001 0.097510
C10   C     C_R   0.156843 0.487910 0.064919 0.097674
C11   C     C_R   0.511874 0.156841 0.065023 0.097468
C12   C     C_R   0.156849 0.512092 0.935092 0.097670
C13   C     C_R   0.797499 0.963640 0.471295 -0.189209
C14   C     C_R   0.511926 0.843158 0.935002 0.097504
C15   C     C_R   0.843158 0.487933 0.935065 0.097649
C16   C     C_R   0.488126 0.156841 0.934974 0.097473
C17   C     C_R   0.365809 0.000000 0.499998 -0.154304
C18   C     C_R   0.000001 0.365807 0.500000 -0.154420
C19   C     C_R   0.634191 1.000000 0.500002 -0.154286
C20   C     C_R   1.000000 0.634189 0.500001 -0.154227
C21   C     C_R   0.865808 0.500001 0.999996 -0.154320
C22   C     C_R   0.500000 0.865810 0.000001 -0.154197
C23   C     C_R   0.134192 0.500000 0.000004 -0.154314
C24   C     C_R   0.036428 0.797497 0.471533 -0.189201
C25   C     C_R   0.500000 0.134189 0.999999 -0.154177
C26   C     C_R   0.273670 0.999998 0.499996 -0.068458
C27   C     C_R   0.000006 0.273668 0.500004 -0.068480
C28   C     C_R   0.726330 0.999997 0.500004 -0.068446
C29   C     C_R   0.999999 0.726328 0.500002 -0.068464
C30   C     C_R   0.773669 0.500000 0.999990 -0.068472
C31   C     C_R   0.500002 0.773671 0.000002 -0.068437
C32   C     C_R   0.226331 0.500001 0.000009 -0.068444
C33   C     C_R   0.500000 0.226328 0.999998 -0.068452
C34   C     C_3   0.270523 0.025867 0.633306 -0.393845
C35   C     C_R   0.797496 0.036353 0.528717 -0.189221
C36   C     C_3   0.263046 0.075860 0.634922 -0.873071
C37   C     C_3   0.973711 0.270525 0.633084 -0.393961
C38   C     C_3   0.923708 0.263106 0.634282 -0.873163
C39   C     C_3   0.729465 0.974167 0.633332 -0.393864
C40   C     C_3   0.736945 0.924176 0.634986 -0.873095
C41   C     C_3   0.025522 0.729468 0.633499 -0.393759
C42   C     C_3   0.075503 0.737010 0.635458 -0.873026
C43   C     C_3   0.729477 0.025826 0.366675 -0.393865
C44   C     C_3   0.736958 0.075817 0.365020 -0.873094
C45   C     C_3   0.026319 0.270523 0.366929 -0.393903
C46   C     C_R   0.036239 0.202502 0.529128 -0.189298
C47   C     C_3   0.076326 0.263108 0.365762 -0.873102
C48   C     C_3   0.270534 0.974129 0.366686 -0.393843
C49   C     C_3   0.263062 0.924134 0.365070 -0.873074
C50   C     C_3   0.974475 0.729468 0.366503 -0.393752
C51   C     C_3   0.924494 0.737007 0.364543 -0.873033
C52   C     C_3   0.770520 0.525912 0.133278 -0.393829
C53   C     C_3   0.763046 0.575907 0.134850 -0.873051
C54   C     C_3   0.474452 0.770531 0.133484 -0.393800
C55   C     C_3   0.424472 0.762995 0.135419 -0.873054
C56   C     C_3   0.229467 0.474029 0.133257 -0.393904
C57   C     C_R   0.202502 0.963649 0.528734 -0.189206
C58   C     C_3   0.236926 0.424034 0.134770 -0.873135
C59   C     C_3   0.525437 0.229468 0.133541 -0.393724
C60   C     C_3   0.575417 0.237009 0.135586 -0.872984
C61   C     C_3   0.229479 0.525973 0.866762 -0.393906
C62   C     C_3   0.236939 0.575968 0.865251 -0.873142
C63   C     C_3   0.525553 0.770530 0.866521 -0.393787
C64   C     C_3   0.575533 0.762996 0.864588 -0.873043
C65   C     C_3   0.770535 0.474088 0.866701 -0.393837
C66   C     C_3   0.763066 0.424093 0.865126 -0.873052
C67   C     C_3   0.474564 0.229468 0.866455 -0.393736
C68   C     C_R   0.963570 0.797498 0.528470 -0.189199
C69   C     C_3   0.424584 0.237009 0.864408 -0.872991
C70   C     C_3   0.369246 0.022887 0.634627 -0.415153
C71   C     C_3   0.379695 0.980926 0.677952 -0.875199
C72   C     C_3   0.976797 0.369242 0.634488 -0.415242
C73   C     C_3   0.018667 0.379646 0.678073 -0.875325
C74   C     C_3   0.630742 0.977144 0.634644 -0.415153
C75   C     C_3   0.620291 0.019116 0.677943 -0.875223
C76   C     C_3   0.022655 0.630738 0.634739 -0.415079
C77   C     C_3   0.980626 0.620246 0.677868 -0.875034
C78   C     C_3   0.630753 0.022857 0.365361 -0.415160
C79   C     C_R   0.702503 0.536338 0.971212 -0.189218
C80   C     C_3   0.620300 0.980887 0.322062 -0.875201
C81   C     C_3   0.023226 0.369239 0.365516 -0.415189
C82   C     C_3   0.981362 0.379640 0.321904 -0.875296
C83   C     C_3   0.369257 0.977116 0.365367 -0.415143
C84   C     C_3   0.379703 0.019080 0.322043 -0.875219
C85   C     C_3   0.977350 0.630739 0.365262 -0.415078
C86   C     C_3   0.019383 0.620251 0.322138 -0.875011
C87   C     C_3   0.869243 0.522927 0.134609 -0.415191
C88   C     C_3   0.879690 0.480977 0.177965 -0.875123
C89   C     C_3   0.477333 0.869261 0.134726 -0.415156
C90   C     C_R   0.463578 0.702503 0.971530 -0.189192
C91   C     C_3   0.519355 0.879747 0.177861 -0.875098
C92   C     C_3   0.130745 0.477040 0.134595 -0.415210
C93   C     C_3   0.120307 0.518979 0.177982 -0.875286
C94   C     C_3   0.522570 0.130736 0.134766 -0.415107
C95   C     C_3   0.480517 0.120243 0.177827 -0.875023
C96   C     C_3   0.130758 0.522967 0.865414 -0.415231
C97   C     C_3   0.120321 0.481030 0.822022 -0.875171
C98   C     C_3   0.522668 0.869260 0.865277 -0.415146
C99   C     C_3   0.480646 0.879744 0.822139 -0.875084
C100  C     C_3   0.869257 0.477082 0.865379 -0.415145
C101  C     C_R   0.297498 0.463678 0.971182 -0.189231
C102  C     C_3   0.879702 0.519036 0.822028 -0.875228
C103  C     C_3   0.477431 0.130736 0.865233 -0.415123
C104  C     C_3   0.519483 0.120240 0.822176 -0.875037
C105  C     C_R   0.000004 0.225378 0.500004 0.167927
C106  C     C_R   0.536458 0.297498 0.971629 -0.189151
C107  C     C_R   0.297497 0.536320 0.028838 -0.189230
C108  C     C_R   0.536425 0.702502 0.028473 -0.189190
C109  C     C_R   0.702502 0.463659 0.028765 -0.189214
C110  C     C_R   0.463542 0.297497 0.028367 -0.189151
C111  C     C_R   0.156585 0.036038 0.470247 -0.205774
C112  C     C_R   0.964084 0.156587 0.469858 -0.205806
C113  C     C_R   0.843417 0.963950 0.470289 -0.205805
C114  C     C_R   0.036124 0.843417 0.470532 -0.205803
C115  C     C_R   0.843414 0.036045 0.529723 -0.205773
C116  C     C_R   0.774621 0.999997 0.500005 0.167940
C117  C     C_R   0.035920 0.156584 0.530144 -0.205789
C118  C     C_R   0.156583 0.963958 0.529740 -0.205807
C119  C     C_R   0.963875 0.843417 0.529470 -0.205800
C120  C     C_R   0.656584 0.536029 0.970208 -0.205797
C121  C     C_R   0.463882 0.656583 0.970528 -0.205796
C122  C     C_R   0.343416 0.463990 0.970171 -0.205804
C123  C     C_R   0.536157 0.343417 0.970634 -0.205803
C124  C     C_R   0.343415 0.536008 0.029844 -0.205793
C125  C     C_R   0.536120 0.656582 0.029472 -0.205797
C126  C     C_R   0.656584 0.463968 0.029775 -0.205805
C127  C     C_R   0.999999 0.774621 0.500001 0.168043
C128  C     C_R   0.463844 0.343417 0.029365 -0.205801
C129  C     C_R   0.133817 0.999998 0.499995 0.000933
C130  C     C_R   0.000001 0.133817 0.500000 0.000735
C131  C     C_R   0.866183 0.999998 0.500005 0.000947
C132  C     C_R   1.000000 0.866184 0.500000 0.001111
C133  C     C_R   0.633817 0.499999 0.999994 0.000957
C134  C     C_R   0.500001 0.633816 1.000000 0.001088
C135  C     C_R   0.366183 0.499999 0.000006 0.000912
C136  C     C_R   0.500000 0.366184 0.000000 0.001154
C137  C     C_R   0.413856 1.000000 0.500000 0.915218
C138  C     C_R   0.725378 0.499999 0.999988 0.167945
C139  C     C_R   0.000000 0.413855 0.499999 0.915218
C140  C     C_R   0.586144 1.000000 0.500000 0.915219
C141  C     C_R   1.000000 0.586143 0.500001 0.915237
C142  C     C_R   0.913856 0.500000 1.000000 0.915224
C143  C     C_R   0.500000 0.913857 0.000001 0.915233
C144  C     C_R   0.086144 0.500000 0.000001 0.915221
C145  C     C_R   0.500000 0.086143 0.999999 0.915227
C146  C     C_R   0.500000 1.000000 0.358929 0.943220
C147  C     C_R   0.000001 0.499999 0.358929 0.943221
C148  C     C_R   0.500000 1.000000 0.641071 0.943221
C149  C     C_R   0.500002 0.725379 0.000002 0.168023
C150  C     C_R   0.999999 0.499999 0.641071 0.943221
C151  C     C_R   1.000000 0.500000 0.858929 0.943239
C152  C     C_R   0.500001 1.000000 0.858929 0.943185
C153  C     C_R   0.000001 0.500000 0.141071 0.943233
C154  C     C_R   0.499999 0.000000 0.141071 0.943184
C155  C     C_R   1.000000 0.913771 0.500000 0.857529
C156  C     C_R   0.086229 1.000000 0.499998 0.857563
C157  C     C_R   1.000000 0.086229 0.500000 0.857607
C158  C     C_R   0.913771 0.999999 0.500002 0.857557
C159  C     C_R   0.500000 0.413771 0.000000 0.857522
C160  C     C_R   0.274622 0.499999 0.000010 0.167916
C161  C     C_R   0.586229 0.500000 0.999998 0.857515
C162  C     C_R   0.500000 0.586229 1.000000 0.857531
C163  C     C_R   0.413771 0.500000 0.000002 0.857520
C164  C     C_1   0.499998 1.000000 0.282415 -0.210042
C165  C     C_1   0.000002 0.500000 0.282415 -0.210021
C166  C     C_1   0.500002 1.000000 0.717585 -0.210043
C167  C     C_1   0.999998 0.500000 0.717584 -0.210023
C168  C     C_1   0.999999 0.500000 0.782415 -0.210037
C169  C     C_1   0.500002 1.000000 0.782416 -0.210027
C170  C     C_1   0.000002 0.500000 0.217585 -0.210033
C171  C     C_R   0.500000 0.274621 0.999998 0.168008
C172  C     C_1   0.499998 0.000000 0.217584 -0.210026
C173  C     C_R   0.296406 0.012100 0.564920 0.137991
C174  C     C_R   0.987710 0.296405 0.564827 0.138062
C175  C     C_R   0.703588 0.987914 0.564935 0.137990
C176  C     C_R   0.011952 0.703589 0.565005 0.137939
C177  C     C_R   0.703594 0.012081 0.435072 0.137992
C178  C     C_R   0.012305 0.296404 0.435181 0.138033
C179  C     C_R   0.296411 0.987897 0.435072 0.137989
C180  C     C_R   0.988047 0.703589 0.434997 0.137947
C181  C     C_R   0.796404 0.512123 0.064905 0.137990
C182  C     C_R   0.202504 0.036347 0.471253 -0.189221
C183  C     C_R   0.488040 0.796411 0.064998 0.137949
C184  C     C_R   0.203590 0.487854 0.064905 0.138008
C185  C     C_R   0.511909 0.203588 0.065021 0.137926
C186  C     C_R   0.203596 0.512149 0.935111 0.138014
C187  C     C_R   0.511963 0.796411 0.935006 0.137946
C188  C     C_R   0.796411 0.487879 0.935077 0.137989
C189  C     C_R   0.488092 0.203588 0.934976 0.137928
C190  C     C_R   0.343152 0.012049 0.564935 0.097626
C191  C     C_R   0.987777 0.343152 0.564850 0.097783
C192  C     C_R   0.656842 0.987967 0.564947 0.097619
H1    H     H_    0.220295 0.064426 0.448972 0.131972
H2    H     H_    0.435440 0.720294 0.949457 0.131957
H3    H     H_    0.584649 0.745712 0.813044 0.248985
H4    H     H_    0.508927 0.737943 0.863189 0.212921
H5    H     H_    0.514595 0.787254 0.815628 0.206396
H6    H     H_    0.794981 0.405973 0.867683 0.252068
H7    H     H_    0.742255 0.413764 0.912236 0.264009
H8    H     H_    0.745769 0.414824 0.813672 0.248981
H9    H     H_    0.737923 0.490658 0.863275 0.212957
H10   H     H_    0.787231 0.484945 0.815721 0.206360
H11   H     H_    0.406410 0.205122 0.866846 0.252034
H12   H     H_    0.414121 0.257859 0.911387 0.264013
H13   H     H_    0.279707 0.435621 0.948833 0.131970
H14   H     H_    0.415516 0.254294 0.812842 0.248976
H15   H     H_    0.491198 0.262053 0.863159 0.212905
H16   H     H_    0.485565 0.212741 0.815589 0.206383
H17   H     H_    0.400943 0.958415 0.645165 0.270645
H18   H     H_    0.397601 0.989763 0.729048 0.257735
H19   H     H_    0.348748 0.963281 0.692885 0.253974
H20   H     H_    0.400593 0.040316 0.622167 0.218512
H21   H     H_    0.351699 0.046652 0.670450 0.214613
H22   H     H_    0.041269 0.400879 0.645433 0.270507
H23   H     H_    0.009731 0.397551 0.729123 0.257776
H24   H     H_    0.564622 0.279707 0.949636 0.131947
H25   H     H_    0.036248 0.348679 0.693097 0.254032
H26   H     H_    0.959423 0.400606 0.621958 0.218758
H27   H     H_    0.952936 0.351708 0.670151 0.214578
H28   H     H_    0.599046 0.041620 0.645144 0.270661
H29   H     H_    0.602383 0.010290 0.729045 0.257740
H30   H     H_    0.651239 0.036763 0.692864 0.253975
H31   H     H_    0.599395 0.959716 0.622191 0.218492
H32   H     H_    0.648285 0.953387 0.670480 0.214620
H33   H     H_    0.958192 0.598974 0.644980 0.270756
H34   H     H_    0.989391 0.602350 0.729012 0.257696
H35   H     H_    0.279706 0.564377 0.051187 0.131969
H36   H     H_    0.962923 0.651175 0.692713 0.253913
H37   H     H_    0.040128 0.599406 0.622326 0.218325
H38   H     H_    0.046346 0.648297 0.670682 0.214628
H39   H     H_    0.599052 0.958384 0.354861 0.270662
H40   H     H_    0.602395 0.989715 0.270960 0.257734
H41   H     H_    0.651246 0.963237 0.307138 0.253972
H42   H     H_    0.599407 0.040289 0.377814 0.218493
H43   H     H_    0.648301 0.046612 0.329524 0.214622
H44   H     H_    0.958752 0.400874 0.354530 0.270479
H45   H     H_    0.990309 0.397543 0.270855 0.257769
H46   H     H_    0.564562 0.720292 0.050547 0.131955
H47   H     H_    0.963785 0.348672 0.306874 0.254028
H48   H     H_    0.040596 0.400605 0.378052 0.218756
H49   H     H_    0.047097 0.351707 0.329867 0.214554
H50   H     H_    0.400947 0.041592 0.354830 0.270643
H51   H     H_    0.397611 0.010245 0.270945 0.257740
H52   H     H_    0.348754 0.036721 0.307113 0.253976
H53   H     H_    0.400606 0.959692 0.377827 0.218510
H54   H     H_    0.351715 0.953349 0.329545 0.214612
H55   H     H_    0.041818 0.598987 0.355035 0.270763
H56   H     H_    0.010621 0.602349 0.270998 0.257696
H57   H     H_    0.720293 0.435586 0.051073 0.131957
H58   H     H_    0.037082 0.651181 0.307284 0.253900
H59   H     H_    0.959880 0.599405 0.377672 0.218319
H60   H     H_    0.953659 0.648296 0.329316 0.214631
H61   H     H_    0.900938 0.458457 0.145197 0.270640
H62   H     H_    0.897594 0.489828 0.229058 0.257734
H63   H     H_    0.848741 0.463337 0.192909 0.253964
H64   H     H_    0.900591 0.540352 0.122139 0.218542
H65   H     H_    0.851695 0.546703 0.170413 0.214606
H66   H     H_    0.541796 0.901011 0.144974 0.270771
H67   H     H_    0.510584 0.897650 0.228994 0.257714
H68   H     H_    0.435378 0.279707 0.050360 0.131947
H69   H     H_    0.537049 0.848816 0.192721 0.253928
H70   H     H_    0.459866 0.900595 0.122314 0.218350
H71   H     H_    0.453638 0.851704 0.170661 0.214651
H72   H     H_    0.099061 0.541510 0.145234 0.270618
H73   H     H_    0.102402 0.510119 0.229071 0.257751
H74   H     H_    0.151259 0.536609 0.192928 0.254004
H75   H     H_    0.099394 0.459626 0.122119 0.218572
H76   H     H_    0.148285 0.453252 0.170378 0.214616
H77   H     H_    0.458101 0.098977 0.144897 0.270808
H78   H     H_    0.489255 0.102340 0.228975 0.257697
H79   H     H_    0.138816 0.063982 0.447420 0.132718
H80   H     H_    0.462808 0.151172 0.192657 0.253902
H81   H     H_    0.540050 0.099405 0.122376 0.218272
H82   H     H_    0.546239 0.148294 0.170748 0.214653
H83   H     H_    0.099081 0.458493 0.854773 0.270626
H84   H     H_    0.102411 0.489893 0.770942 0.257746
H85   H     H_    0.151274 0.463404 0.807058 0.253978
H86   H     H_    0.099406 0.540382 0.877890 0.218581
H87   H     H_    0.148302 0.546756 0.829634 0.214615
H88   H     H_    0.458203 0.901009 0.855024 0.270768
H89   H     H_    0.489416 0.897645 0.771004 0.257713
H90   H     H_    0.936233 0.138819 0.446721 0.132887
H91   H     H_    0.462953 0.848812 0.807283 0.253925
H92   H     H_    0.540133 0.900595 0.877688 0.218350
H93   H     H_    0.546365 0.851704 0.829342 0.214647
H94   H     H_    0.900946 0.541557 0.854799 0.270628
H95   H     H_    0.897610 0.510189 0.770934 0.257739
H96   H     H_    0.848752 0.536673 0.807086 0.253979
H97   H     H_    0.900607 0.459661 0.877848 0.218526
H98   H     H_    0.851716 0.453306 0.829572 0.214602
H99   H     H_    0.541899 0.098976 0.855109 0.270812
H100  H     H_    0.510747 0.102334 0.771031 0.257699
H101  H     H_    0.861188 0.936000 0.447484 0.132636
H102  H     H_    0.537193 0.151168 0.807341 0.253905
H103  H     H_    0.459950 0.099405 0.877624 0.218274
H104  H     H_    0.453764 0.148294 0.829249 0.214660
H105  H     H_    0.935777 0.220297 0.448299 0.131985
H106  H     H_    0.064133 0.861187 0.447920 0.132532
H107  H     H_    0.861183 0.063995 0.552527 0.132704
H108  H     H_    0.063770 0.138814 0.553280 0.132889
H109  H     H_    0.138813 0.936014 0.552568 0.132649
H110  H     H_    0.935867 0.861188 0.552083 0.132529
H111  H     H_    0.638815 0.563966 0.947354 0.132665
H112  H     H_    0.435877 0.638813 0.947914 0.132550
H113  H     H_    0.361185 0.436069 0.947273 0.132691
H114  H     H_    0.564190 0.361188 0.948102 0.132480
H115  H     H_    0.361184 0.563929 0.052741 0.132700
H116  H     H_    0.779709 0.935555 0.449037 0.131959
H117  H     H_    0.564125 0.638811 0.052086 0.132543
H118  H     H_    0.638814 0.436032 0.052631 0.132655
H119  H     H_    0.435811 0.361188 0.051897 0.132487
H120  H     H_    0.294957 0.093985 0.632372 0.252077
H121  H     H_    0.242232 0.086199 0.587826 0.264021
H122  H     H_    0.245749 0.085112 0.686385 0.248982
H123  H     H_    0.237914 0.009291 0.636718 0.212956
H124  H     H_    0.287218 0.014998 0.684276 0.206369
H125  H     H_    0.905629 0.295039 0.631615 0.252121
H126  H     H_    0.913493 0.242318 0.587080 0.264036
H127  H     H_    0.064570 0.779706 0.449463 0.131952
H128  H     H_    0.914282 0.245802 0.685648 0.248992
H129  H     H_    0.990232 0.237894 0.636618 0.213001
H130  H     H_    0.984449 0.287195 0.684151 0.206356
H131  H     H_    0.705035 0.906049 0.632448 0.252080
H132  H     H_    0.757764 0.913825 0.587901 0.264023
H133  H     H_    0.754238 0.914940 0.686457 0.248996
H134  H     H_    0.762073 0.990746 0.636734 0.212963
H135  H     H_    0.712765 0.985048 0.684292 0.206383
H136  H     H_    0.093678 0.705125 0.632978 0.252042
H137  H     H_    0.085930 0.757869 0.588466 0.264033
H138  H     H_    0.779704 0.064438 0.550975 0.131972
H139  H     H_    0.084603 0.754286 0.687013 0.248983
H140  H     H_    0.008889 0.762051 0.636824 0.212910
H141  H     H_    0.014556 0.712740 0.684389 0.206385
H142  H     H_    0.705050 0.093946 0.367559 0.252081
H143  H     H_    0.757776 0.086166 0.412103 0.264031
H144  H     H_    0.754254 0.085051 0.313548 0.248990
H145  H     H_    0.762083 0.009245 0.363274 0.212961
H146  H     H_    0.712779 0.014945 0.315715 0.206381
H147  H     H_    0.094403 0.295043 0.368440 0.252107
H148  H     H_    0.086534 0.242322 0.412973 0.264014
H149  H     H_    0.064231 0.220292 0.551708 0.131977
H150  H     H_    0.085767 0.245804 0.314399 0.248974
H151  H     H_    0.009801 0.237891 0.363388 0.212987
H152  H     H_    0.015592 0.287192 0.315852 0.206337
H153  H     H_    0.294974 0.906012 0.367621 0.252076
H154  H     H_    0.242246 0.913794 0.412166 0.264014
H155  H     H_    0.245768 0.914881 0.313607 0.248988
H156  H     H_    0.237924 0.990702 0.363272 0.212958
H157  H     H_    0.287232 0.984998 0.315716 0.206370
H158  H     H_    0.906318 0.705122 0.367029 0.252039
H159  H     H_    0.914068 0.757869 0.411530 0.264037
H160  H     H_    0.220292 0.935569 0.551015 0.131959
H161  H     H_    0.915393 0.754278 0.312984 0.248982
H162  H     H_    0.991107 0.762052 0.363181 0.212908
H163  H     H_    0.985443 0.712741 0.315612 0.206383
H164  H     H_    0.794959 0.594030 0.132291 0.252070
H165  H     H_    0.742236 0.586233 0.087741 0.264010
H166  H     H_    0.745746 0.585176 0.186304 0.248982
H167  H     H_    0.737910 0.509340 0.136703 0.212957
H168  H     H_    0.787213 0.515058 0.184260 0.206361
H169  H     H_    0.406304 0.794884 0.132944 0.252055
H170  H     H_    0.414051 0.742147 0.088416 0.264034
H171  H     H_    0.935428 0.779707 0.550542 0.131950
H172  H     H_    0.415359 0.745710 0.186961 0.248989
H173  H     H_    0.491079 0.737944 0.136814 0.212924
H174  H     H_    0.485410 0.787255 0.184375 0.206399
H175  H     H_    0.205008 0.405924 0.132188 0.252096
H176  H     H_    0.257737 0.413724 0.087652 0.264025
H177  H     H_    0.254221 0.414739 0.186209 0.248998
H178  H     H_    0.262082 0.490589 0.136701 0.212981
H179  H     H_    0.212775 0.484867 0.184248 0.206378
H180  H     H_    0.593592 0.205122 0.133142 0.252031
H181  H     H_    0.585878 0.257862 0.088610 0.264011
H182  H     H_    0.720294 0.564411 0.948903 0.131958
H183  H     H_    0.584487 0.254290 0.187155 0.248975
H184  H     H_    0.508802 0.262053 0.136837 0.212903
H185  H     H_    0.514438 0.212741 0.184409 0.206382
H186  H     H_    0.205022 0.594081 0.867828 0.252096
H187  H     H_    0.257745 0.586276 0.912373 0.264029
H188  H     H_    0.254240 0.585263 0.813815 0.249004
H189  H     H_    0.262094 0.509413 0.863322 0.212986
H190  H     H_    0.212792 0.515137 0.815768 0.206381
H191  H     H_    0.593701 0.794885 0.867066 0.252052
H192  H     H_    0.585955 0.742146 0.911590 0.264030
O1    O     O_R   0.434530 0.036970 0.500000 -0.631332
O2    O     O_R   0.463030 0.934530 0.000000 -0.631307
O3    O     O_R   0.065470 0.463030 0.000000 -0.631341
O4    O     O_R   0.536970 0.065470 0.000000 -0.631299
O5    O     O_R   0.065470 0.536970 0.000000 -0.631343
O6    O     O_R   0.536970 0.934530 0.000000 -0.631309
O7    O     O_R   0.934530 0.463030 0.000000 -0.631336
O8    O     O_R   0.463030 0.065470 0.000000 -0.631297
O9    O     O_R   0.500010 0.036970 0.392670 -0.626976
O10   O     O_R   0.963030 0.500010 0.392670 -0.626961
O11   O     O_R   0.499990 0.963030 0.392670 -0.626982
O12   O     O_R   0.963030 0.434530 0.500000 -0.631361
O13   O     O_R   0.036970 0.499990 0.392670 -0.627004
O14   O     O_R   0.499990 0.036970 0.607330 -0.626977
O15   O     O_R   0.036970 0.500010 0.607330 -0.626957
O16   O     O_R   0.500010 0.963030 0.607330 -0.626981
O17   O     O_R   0.963030 0.499990 0.607330 -0.627009
O18   O     O_R   0.000010 0.536970 0.892670 -0.626982
O19   O     O_R   0.463030 0.000010 0.892670 -0.626989
O20   O     O_R   0.999990 0.463030 0.892670 -0.626981
O21   O     O_R   0.536970 0.999990 0.892670 -0.626993
O22   O     O_R   0.999990 0.536970 0.107330 -0.626977
O23   O     O_R   0.565470 0.963030 0.500000 -0.631331
O24   O     O_R   0.536970 0.000010 0.107330 -0.626989
O25   O     O_R   0.000010 0.463030 0.107330 -0.626988
O26   O     O_R   0.463030 0.999990 0.107330 -0.626994
O27   O     O_R   0.999990 0.934550 0.439420 -0.619234
O28   O     O_R   0.065450 0.999990 0.439420 -0.619252
O29   O     O_R   0.000010 0.065450 0.439420 -0.619321
O30   O     O_R   0.934550 0.000010 0.439420 -0.619284
O31   O     O_R   0.000010 0.934550 0.560580 -0.619235
O32   O     O_R   0.934550 0.999990 0.560580 -0.619249
O33   O     O_R   0.999990 0.065450 0.560580 -0.619320
O34   O     O_R   0.036970 0.565470 0.500000 -0.631312
O35   O     O_R   0.065450 0.000010 0.560580 -0.619288
O36   O     O_R   0.499990 0.434550 0.939420 -0.619228
O37   O     O_R   0.565450 0.499990 0.939420 -0.619267
O38   O     O_R   0.500010 0.565450 0.939420 -0.619238
O39   O     O_R   0.434550 0.500010 0.939420 -0.619276
O40   O     O_R   0.500010 0.434550 0.060580 -0.619226
O41   O     O_R   0.434550 0.499990 0.060580 -0.619273
O42   O     O_R   0.499990 0.565450 0.060580 -0.619241
O43   O     O_R   0.565450 0.500010 0.060580 -0.619271
O44   O     O_R   0.565470 0.036970 0.500000 -0.631330
O45   O     O_R   0.036970 0.434530 0.500000 -0.631371
O46   O     O_R   0.434530 0.963030 0.500000 -0.631334
O47   O     O_R   0.963030 0.565470 0.500000 -0.631310
O48   O     O_R   0.934530 0.536970 0.000000 -0.631338
Zn1   Zn    Zn3+2 0.500000 0.049360 0.500000 0.930009
Zn2   Zn    Zn3+2 0.000000 1.000000 0.580910 0.954657
Zn3   Zn    Zn3+2 0.500000 0.500000 0.919090 0.954714
Zn4   Zn    Zn3+2 0.500000 0.500000 0.080910 0.954714
Zn5   Zn    Zn3+2 0.950640 0.500000 0.500000 0.929999
Zn6   Zn    Zn3+2 0.500000 0.950640 0.500000 0.930006
Zn7   Zn    Zn3+2 0.049360 0.500000 0.500000 0.929993
Zn8   Zn    Zn3+2 0.000000 0.549360 0.000000 0.929998
Zn9   Zn    Zn3+2 0.450640 0.000000 0.000000 0.930002
Zn10  Zn    Zn3+2 0.000000 0.450640 0.000000 0.929996
Zn11  Zn    Zn3+2 0.549360 0.000000 0.000000 0.930002
Zn12  Zn    Zn3+2 0.000000 1.000000 0.419090 0.954657

loop_
_geom_bond_atom_site_label_1
_geom_bond_atom_site_label_2
_ccdc_geom_bond_type
C104  H100  S    
C36   H120  S    
O8    Zn9   S    
C10   C184  A    
C4    C177  A    
C64   H191  S    
O2    Zn9   S    
C103  H104  S    
C145  O4    A    
C12   C23   A    
C109  H57   S    
C69   H14   S    
C30   C138  S    
C68   C119  A    
C155  O27   A    
C34   H123  S    
C6    C179  A    
C151  O18   A    
C153  O25   A    
C64   H3    S    
C148  O14   A    
C62   H186  S    
C132  C155  S    
C115  H107  S    
C120  C133  A    
C52   H168  S    
C100  H98   S    
C28   C116  S    
C136  C159  S    
C24   C127  A    
C35   C115  A    
C53   H166  S    
C72   C191  S    
C55   H172  S    
C110  C171  A    
C77   H34   S    
C70   H21   S    
C107  C124  A    
O4    Zn11  S    
C45   C47   S    
C163  O41   A    
O26   Zn9   S    
O16   Zn6   S    
C161  O43   A    
C48   H156  S    
C158  O30   A    
C159  O36   A    
C5    C18   A    
C56   C184  S    
C26   C173  A    
C74   H31   S    
C111  C182  A    
C63   H5    S    
C46   C117  A    
O42   Zn4   S    
C59   H185  S    
C131  C158  S    
C43   C44   S    
C4    C78   S    
C37   C38   S    
C140  O23   A    
C49   H154  S    
C79   C120  A    
C84   H52   S    
C112  H90   S    
C97   H83   S    
C50   H163  S    
O11   Zn6   S    
C99   H89   S    
C87   H64   S    
C41   C176  S    
O21   Zn11  S    
C71   H19   S    
C76   H38   S    
O43   Zn4   S    
C125  H117  S    
C175  C192  A    
C106  H24   S    
C70   C190  S    
C16   C25   A    
O44   Zn1   S    
C6    C83   S    
C124  C135  A    
C162  O38   A    
C135  C163  S    
C72   C73   S    
C57   H160  S    
C129  C156  S    
C28   C175  A    
C88   H61   S    
O18   Zn8   S    
C72   H26   S    
C148  O16   A    
C101  C122  A    
C81   H48   S    
C46   H149  S    
C140  O44   A    
C143  O6    A    
C14   C187  A    
C48   H157  S    
C55   H170  S    
C92   H76   S    
C3    C176  A    
O9    Zn1   S    
O45   Zn7   S    
C77   H36   S    
C98   C99   S    
C31   C187  A    
C118  C129  A    
C54   C183  S    
C17   C137  S    
C67   C69   S    
O20   Zn10  S    
C66   H8    S    
C110  C128  A    
C57   C118  A    
C8    C181  A    
C163  O39   A    
C46   C105  A    
C24   C114  A    
C86   H55   S    
C157  O33   A    
C13   H116  S    
C70   H20   S    
C162  O42   A    
C27   C178  A    
C87   H65   S    
C94   H81   S    
C95   H80   S    
C26   C179  A    
O19   Zn9   S    
C130  C157  S    
C144  O5    A    
C33   C189  A    
C21   C142  S    
C1    C57   A    
O27   Zn12  S    
C78   C80   S    
C139  O45   A    
O14   Zn1   S    
C11   C25   A    
C151  O20   A    
C102  H96   S    
O10   Zn5   S    
C97   H85   S    
C147  C165  S    
C101  C160  A    
C153  O22   A    
C71   H17   S    
C107  H35   S    
C153  C170  S    
C89   H71   S    
C89   C91   S    
C120  H111  S    
C91   H69   S    
C145  O8    A    
C137  O46   A    
C80   H40   S    
O24   Zn11  S    
C27   C174  A    
C100  C102  S    
C56   H179  S    
C14   C98   S    
C88   H63   S    
C113  H101  S    
C154  O26   A    
C51   H158  S    
C73   H25   S    
C39   C175  S    
C40   H132  S    
C39   C40   S    
C141  O47   A    
C43   H146  S    
C61   H189  S    
O40   Zn4   S    
C146  C164  S    
C109  C138  A    
C51   H161  S    
C3    C76   S    
C137  O1    A    
C122  H113  S    
C83   C84   S    
C78   H42   S    
C82   H47   S    
C83   H53   S    
O32   Zn2   S    
C42   H139  S    
C66   H6    S    
C45   C178  S    
C147  O10   A    
C58   H176  S    
C45   H151  S    
C85   H59   S    
C63   C187  S    
C29   C127  S    
C41   H141  S    
C146  O11   A    
C90   C121  A    
C164  C172  T    
C152  O21   A    
C2    H105  S    
C103  C104  S    
C74   H32   S    
C159  O40   A    
C95   H78   S    
O48   Zn8   S    
C6    C17   A    
C54   C55   S    
C63   H4    S    
C20   C141  S    
C12   C96   S    
C64   H192  S    
C58   H177  S    
C142  O48   A    
C98   H93   S    
C103  H103  S    
C17   C190  A    
C15   C188  A    
C174  C191  A    
O12   Zn5   S    
C38   H125  S    
C14   C22   A    
O34   Zn7   S    
C34   H124  S    
C1    C26   S    
C62   H187  S    
C56   C58   S    
C7    C180  A    
C59   C185  S    
C34   C36   S    
C119  H110  S    
C61   C62   S    
C5    C178  A    
C126  H118  S    
C91   H67   S    
C40   H133  S    
C63   C64   S    
O3    Zn10  S    
C109  C126  A    
C59   C60   S    
C69   H12   S    
O38   Zn3   S    
C112  C130  A    
C67   H16   S    
C54   H173  S    
C125  C134  A    
C87   C88   S    
C77   H33   S    
C82   H44   S    
C148  C166  S    
C41   C42   S    
O29   Zn12  S    
C111  H79   S    
C15   C100  S    
C37   H130  S    
C42   H136  S    
C107  C160  A    
C60   H181  S    
C147  O13   A    
C52   C53   S    
C2    C112  A    
C128  H119  S    
O23   Zn6   S    
C123  H114  S    
C24   H127  S    
C128  C136  A    
C31   C149  S    
C98   H92   S    
C93   H73   S    
C104  H102  S    
C82   H45   S    
O17   Zn5   S    
C173  C190  A    
C108  C149  A    
C156  O28   A    
C62   H188  S    
C81   H49   S    
C42   H137  S    
C37   C174  S    
C111  C129  A    
C44   H143  S    
C65   H10   S    
C75   H30   S    
C49   H153  S    
C146  O9    A    
C139  O12   A    
C70   C71   S    
C121  C134  A    
C28   C177  A    
C150  O17   A    
O47   Zn5   S    
C93   H72   S    
C104  H99   S    
O28   Zn12  S    
C65   C188  S    
C10   C92   S    
O41   Zn4   S    
C39   H134  S    
C18   C191  A    
C121  H112  S    
C52   C181  S    
C9    C89   S    
C167  C168  T    
C56   H178  S    
C88   H62   S    
C85   C86   S    
C118  H109  S    
C51   H159  S    
C30   C188  A    
C52   H167  S    
C100  H97   S    
C9    C183  A    
C5    C81   S    
O5    Zn8   S    
C90   H2    S    
C12   C186  A    
O35   Zn2   S    
C50   C51   S    
C35   C116  A    
C182  H1    S    
C68   C127  A    
O36   Zn3   S    
C55   H169  S    
C11   C94   S    
C48   C49   S    
C108  H46   S    
C47   H148  S    
C30   C181  A    
C23   C144  S    
C29   C176  A    
C33   C171  S    
C60   H183  S    
C165  C170  T    
C43   C177  S    
C86   H56   S    
C96   H87   S    
C80   H41   S    
C119  C132  A    
C94   H82   S    
O22   Zn8   S    
C1    C182  A    
C93   H74   S    
C47   H147  S    
C32   C186  A    
C141  O34   A    
C34   C173  S    
C152  C169  S    
C102  H94   S    
C7    C85   S    
C75   H28   S    
C49   H155  S    
C150  C167  S    
C92   C93   S    
C84   H51   S    
C38   H128  S    
C94   C95   S    
C97   H84   S    
C122  C135  A    
C50   H162  S    
C13   C116  A    
C155  O31   A    
C47   H150  S    
C79   C138  A    
C7    C20   A    
C76   H37   S    
C114  H106  S    
C144  O3    A    
C73   H23   S    
C33   C185  A    
C89   H70   S    
C86   H58   S    
O39   Zn3   S    
C106  C171  A    
O46   Zn6   S    
C81   C82   S    
C150  O15   A    
C115  C131  A    
C110  H68   S    
C117  H108  S    
C59   H184  S    
C91   H66   S    
C43   H145  S    
C9    C22   A    
C60   H180  S    
O25   Zn10  S    
C27   C105  S    
C151  C168  S    
C133  C161  S    
C157  O29   A    
C16   C103  S    
C4    C19   A    
C36   H121  S    
C126  C133  A    
C78   H43   S    
C29   C180  A    
C106  C123  A    
C108  C125  A    
C66   H7    S    
C19   C192  A    
C44   H142  S    
C41   H140  S    
C92   H75   S    
C90   C149  A    
C95   H77   S    
C74   C75   S    
C3    C20   A    
C76   C77   S    
O30   Zn12  S    
C39   H135  S    
C19   C140  S    
O1    Zn1   S    
O7    Zn10  S    
C161  O37   A    
C134  C162  S    
O13   Zn7   S    
C152  O19   A    
O15   Zn7   S    
C102  H95   S    
C22   C143  S    
C50   C180  S    
C35   H138  S    
C99   H88   S    
C44   H144  S    
C71   H18   S    
C96   C97   S    
C154  O24   A    
C8    C21   A    
C154  C172  S    
C117  C130  A    
C143  O2    A    
C101  H13   S    
C166  C169  T    
C74   C192  S    
C69   H11   S    
O37   Zn3   S    
C80   H39   S    
C79   H182  S    
C67   H15   S    
C54   H174  S    
C72   H27   S    
C113  C131  A    
C31   C183  A    
C11   C185  A    
C114  C132  A    
O6    Zn11  S    
C32   C184  A    
C156  O35   A    
C53   H165  S    
C40   H131  S    
C37   H129  S    
C84   H50   S    
C67   C189  S    
C61   H190  S    
C68   H171  S    
C10   C23   A    
C2    C105  A    
C36   H122  S    
C123  C136  A    
C8    C87   S    
C96   H86   S    
C158  O32   A    
C83   H54   S    
C61   C186  S    
C53   H164  S    
C18   C139  S    
C73   H22   S    
C142  O7    A    
C58   H175  S    
C15   C21   A    
C45   H152  S    
C65   H9    S    
C75   H29   S    
C85   H60   S    
C65   C66   S    
C38   H126  S    
C124  H115  S    
C25   C145  S    
O31   Zn2   S    
O33   Zn2   S    
C16   C189  A    
C48   C179  S    
C13   C113  A    
C32   C160  S    
C99   H91   S    
