data_mof_unit_48467.cif
_audit_creation_date              2012-12-11T18:13:14-0500
_audit_creation_method            fapswitch 2.2
_symmetry_space_group_name_H-M    P1
_symmetry_Int_Tables_number       1
_space_group_crystal_system       triclinic
_cell_length_a                    8.352829
_cell_length_b                    12.727986
_cell_length_c                    18.802258
_cell_angle_alpha                 99.675221
_cell_angle_beta                  90.98402
_cell_angle_gamma                 99.098437
_cell_volume                      1943.76433822

loop_
_atom_site_label
_atom_site_type_symbol
_atom_type_description
_atom_site_fract_x
_atom_site_fract_y
_atom_site_fract_z
_atom_type_partial_charge
Ba1   Ba    Ba6+2 0.852780 0.548340 0.465070 1.647399
Ba2   Ba    Ba6+2 0.337060 0.451750 0.534940 1.661129
C1    C     C_3   0.622401 0.898175 0.238418 -0.397324
C2    C     C_3   0.602976 0.802361 0.277822 0.328817
C3    C     C_3   0.467052 0.247078 0.309374 0.721560
C4    C     C_3   0.577436 0.253145 0.245784 -0.339905
C5    C     C_3   0.034785 0.237957 0.731766 0.299876
C6    C     C_3   0.011860 0.204374 0.805377 -0.365344
C7    C     C_3   0.469783 0.198878 0.761156 0.711734
C8    C     C_3   0.469502 0.170669 0.837598 -0.391238
C9    C     C_R   0.995625 0.451221 0.047320 0.004219
C10   C     C_R   0.892598 0.401445 0.094863 0.035193
C11   C     C_R   0.730337 0.359991 0.072549 -0.083633
C12   C     C_3   0.108740 0.757385 0.270864 0.344643
C13   C     C_R   0.670679 0.368002 0.004137 -0.096858
C14   C     C_R   0.773616 0.414019 0.955487 0.029074
C15   C     C_R   0.936740 0.455577 0.976813 0.015193
C16   C     C_R   0.716237 0.416659 0.885465 -0.109260
C17   C     C_R   0.821618 0.452308 0.833556 -0.042839
C18   C     C_R   0.983526 0.500394 0.855818 -0.012129
C19   C     C_R   0.040154 0.502004 0.927888 -0.004341
C20   C     C_R   0.770862 0.440972 0.760043 0.042894
C21   C     C_R   0.878104 0.480975 0.711016 -0.297012
C22   C     C_R   0.031848 0.539180 0.733071 0.040602
C23   C     C_3   0.119693 0.783151 0.194866 -0.393823
C24   C     C_R   0.087429 0.548696 0.806787 -0.056773
C25   C     C_R   0.157453 0.495204 0.069808 -0.009519
C26   C     C_R   0.215787 0.491844 0.140838 -0.002026
C27   C     C_R   0.110174 0.443506 0.189702 -0.047889
C28   C     C_R   0.952142 0.394450 0.164025 -0.038676
C29   C     C_R   0.242807 0.603808 0.833474 -0.044452
C30   C     C_R   0.302356 0.599318 0.903327 0.031570
C31   C     C_R   0.200885 0.548103 0.950774 0.006704
C32   C     C_R   0.259904 0.544209 0.021481 0.014826
C33   C     C_R   0.463151 0.644376 0.926346 -0.081579
C34   C     C_3   0.231994 0.794276 0.629147 0.274861
C35   C     C_R   0.522679 0.638304 0.995381 -0.096407
C36   C     C_R   0.421747 0.589077 0.043556 0.032613
C37   C     C_R   0.379198 0.537582 0.162841 -0.043838
C38   C     C_R   0.480593 0.584331 0.113220 -0.110359
C39   C     C_R   0.436196 0.533554 0.233550 -0.002938
C40   C     C_R   0.332881 0.480911 0.278683 -0.229668
C41   C     C_R   0.168084 0.444253 0.261842 0.056893
C42   C     C_R   0.759371 0.184346 0.533748 -0.245079
C43   C     C_R   0.417535 0.811861 0.482109 0.147124
C44   C     C_R   0.396753 0.987085 0.454498 -0.165038
C45   C     C_3   0.226823 0.914320 0.648233 -0.380887
C46   C     C_R   0.329720 0.879964 0.452631 -0.015036
C47   C     C_R   0.573802 0.850059 0.513821 0.018126
C48   C     C_R   0.640821 0.961309 0.519012 -0.106550
C49   C     C_R   0.549231 0.030442 0.489507 -0.057830
C50   C     C_R   0.611693 0.141675 0.496331 0.078047
C51   C     C_R   0.855171 0.116879 0.558395 -0.011353
C52   C     C_R   0.795417 0.006367 0.552575 -0.089996
C53   C     C_3   0.953574 0.217050 0.385554 0.317381
C54   C     C_3   0.888892 0.096386 0.368295 -0.426302
C55   C     C_3   0.734623 0.703545 0.680147 0.312219
C56   C     C_3   0.760780 0.739763 0.761415 -0.394797
H1    H     H_    0.640947 0.831041 0.335740 0.043811
H2    H     H_    0.298773 0.948658 0.699298 0.104574
H3    H     H_    0.277998 0.955925 0.604468 0.089964
H4    H     H_    0.099485 0.927678 0.655452 0.138855
H5    H     H_    0.860111 0.259753 0.412924 -0.006944
H6    H     H_    0.063460 0.230184 0.421660 0.088105
H7    H     H_    0.764160 0.082751 0.344125 0.123150
H8    H     H_    0.887665 0.059971 0.417550 0.099164
H9    H     H_    0.965854 0.053969 0.329874 0.137565
H10   H     H_    0.848371 0.681025 0.657629 0.009809
H11   H     H_    0.636163 0.632592 0.669500 0.085185
H12   H     H_    0.551697 0.959545 0.264913 0.086945
H13   H     H_    0.864422 0.807404 0.773389 0.122281
H14   H     H_    0.787168 0.672260 0.787570 0.064325
H15   H     H_    0.649802 0.767286 0.784342 0.116090
H16   H     H_    0.472822 0.766495 0.272643 -0.025694
H17   H     H_    0.576585 0.871303 0.181399 0.112032
H18   H     H_    0.483081 0.330223 0.340023 0.004404
H19   H     H_    0.542299 0.185366 0.200293 0.076044
H20   H     H_    0.573638 0.329878 0.225780 0.059945
H21   H     H_    0.703153 0.250352 0.263696 0.118524
H22   H     H_    0.752322 0.934725 0.239162 0.129748
H23   H     H_    0.237771 0.834623 0.189496 0.099780
H24   H     H_    0.124987 0.313359 0.737868 0.086899
H25   H     H_    0.916877 0.254799 0.712219 0.027311
H26   H     H_    0.127368 0.187264 0.826688 0.115739
H27   H     H_    0.919567 0.130444 0.801193 0.122231
H28   H     H_    0.370846 0.142280 0.727890 0.052138
H29   H     H_    0.425966 0.083071 0.835415 0.058791
H30   H     H_    0.388787 0.215923 0.872638 0.091837
H31   H     H_    0.992518 0.703641 0.274274 0.127652
H32   H     H_    0.593727 0.190812 0.863306 0.117262
H33   H     H_    0.648688 0.321721 0.107982 0.065386
H34   H     H_    0.544505 0.336065 0.988763 0.070787
H35   H     H_    0.836089 0.473761 0.655362 0.057555
H36   H     H_    0.589293 0.388970 0.872073 0.105914
H37   H     H_    0.873455 0.350884 0.197556 0.092964
H38   H     H_    0.320669 0.649309 0.800300 0.113457
H39   H     H_    0.543853 0.683151 0.890576 0.069374
H40   H     H_    0.647812 0.672783 0.011257 0.072471
H41   H     H_    0.606812 0.616038 0.127611 0.114752
H42   H     H_    0.209512 0.713834 0.281058 -0.049087
H43   H     H_    0.381887 0.470104 0.329291 -0.016668
H44   H     H_    0.324980 0.035648 0.429915 0.119460
H45   H     H_    0.870243 0.958206 0.575789 0.103476
H46   H     H_    0.806121 0.269689 0.538647 0.050598
H47   H     H_    0.109883 0.707207 0.155038 0.087517
H48   H     H_    0.019412 0.826458 0.183207 0.134576
H49   H     H_    0.358728 0.782910 0.619179 0.049142
H50   H     H_    0.150358 0.761573 0.580581 0.105638
O1    O     O_2   0.873090 0.425890 0.325140 -0.478456
O2    O     O_3   0.691866 0.789316 0.650305 -0.649490
O3    O     O_3   0.115457 0.853823 0.320544 -0.631429
O4    O     O_2   0.316610 0.574140 0.674900 -0.454728
O5    O     O_3   0.067290 0.565720 0.585630 -0.488561
O6    O     O_3   0.530210 0.372990 0.631200 -0.452190
O7    O     O_3   0.181467 0.746158 0.687949 -0.649252
O8    O     O_3   0.611340 0.366290 0.463630 -0.495212
O9    O     O_3   0.108550 0.314140 0.595200 -0.484108
O10   O     O_2   0.191945 0.121017 0.553441 -0.483310
O11   O     O_3   0.090760 0.155034 0.684454 -0.615052
O12   O     O_3   0.122420 0.434370 0.414380 -0.517341
O13   O     O_3   0.578370 0.633800 0.536380 -0.481591
O14   O     O_2   0.341510 0.231850 0.465510 -0.466981
O15   O     O_3   0.515474 0.175429 0.351832 -0.698194
O16   O     O_2   0.486058 0.499294 0.750754 -0.497973
O17   O     O_3   0.425802 0.302912 0.765319 -0.613307
O18   O     O_3   0.659500 0.627100 0.368810 -0.497550
O19   O     O_2   0.771594 0.539526 0.244861 -0.497725
O20   O     O_3   0.991470 0.253700 0.320924 -0.604834
O21   O     O_3   0.700500 0.728567 0.246290 -0.603438
O22   O     O_2   0.848200 0.768190 0.534530 -0.478147
O23   O     O_3   0.081160 0.685950 0.404810 -0.480345
O24   O     O_2   0.992391 0.878350 0.447575 -0.481534
P1    P     P_3+3 0.041040 0.394770 0.336330 0.991816
P2    P     P_3+3 0.672880 0.754030 0.556100 0.987375
P3    P     P_3+3 0.128190 0.825576 0.408305 0.979823
P4    P     P_3+3 0.148670 0.605320 0.663680 0.981986
P5    P     P_3+3 0.061526 0.175563 0.595861 0.947533
P6    P     P_3+3 0.638590 0.604263 0.273814 0.930255
P7    P     P_3+3 0.522192 0.229208 0.444382 0.928064
P8    P     P_3+3 0.558153 0.396206 0.725822 1.008427
O25   O     O_3   0.302119 0.217083 0.284519 -0.675264
C57   C     C_3   0.257268 0.103978 0.263120 0.241486
H51   H     H_    0.243633 0.063899 0.311173 0.075030
H52   H     H_    0.343982 0.066979 0.226813 0.000987
H53   H     H_    0.138351 0.087669 0.232839 0.055660
H54   H     H_    0.971461 0.269731 0.843960 0.087574
O26   O     O_3   0.622435 0.189768 0.731028 -0.696870
C58   C     C_3   0.630287 0.080099 0.704540 0.045568
H55   H     H_    0.756708 0.072294 0.691763 0.089034
H56   H     H_    0.552335 0.051370 0.654558 0.051152
H57   H     H_    0.596543 0.026928 0.744944 0.044839
O27   O     O_3   0.343695 0.708085 0.484729 -0.686404
C59   C     C_3   0.373398 0.641459 0.420750 0.520696
H58   H     H_    0.444735 0.580449 0.431520 0.084474
H59   H     H_    0.409510 0.684296 0.375153 -0.255715
H60   H     H_    0.265531 0.588080 0.400298 0.056388

loop_
_geom_bond_atom_site_label_1
_geom_bond_atom_site_label_2
_ccdc_geom_bond_type
C5    H25   S    
C53   C54   S    
C20   P8    S    
C34   H50   S    
C39   C40   A    
C46   P3    S    
C17   C18   A    
C58   H57   S    
C47   P2    S    
O3    P3    S    
C45   H4    S    
C42   H46   S    
C23   H47   S    
C5    C6    S    
C37   C39   A    
C51   C52   A    
C44   H44   S    
Ba2   O4    S    
C35   C36   A    
C51   P5    S    
C26   C27   A    
C33   C35   A    
C22   C24   A    
O14   P7    D    
C6    H27   S    
O23   P3    S    
C3    C4    S    
Ba2   O5    S    
C56   H13   S    
C4    H20   S    
C19   C31   A    
O7    P4    S    
C29   H38   S    
O15   P7    S    
C50   P7    S    
C34   C45   S    
O12   P1    S    
C41   P1    S    
Ba1   O1    S    
C45   H2    S    
Ba2   O8    S    
C42   C51   A    
O18   P6    S    
O21   P6    S    
O26   C58   S    
C14   C15   A    
O5    P4    S    
C53   H5    S    
C21   C22   A    
O19   P6    D    
C9    C25   A    
O13   P2    S    
C59   H59   S    
O10   P5    D    
C1    H17   S    
C7    C8    S    
C2    H16   S    
Ba2   P4    S    
O8    P7    S    
C22   P4    S    
C13   H34   S    
C24   C29   A    
O17   P8    S    
C32   C36   A    
C11   H33   S    
C34   H49   S    
C23   H23   S    
C57   H53   S    
O22   P2    D    
O25   C57   S    
Ba1   O5    S    
O4    P4    D    
Ba1   P1    S    
C1    H22   S    
C38   H41   S    
C35   H40   S    
Ba2   O9    S    
C23   H48   S    
C48   C49   A    
C55   C56   S    
Ba2   O14   S    
C25   C32   A    
C12   O3    S    
C44   C46   A    
C8    H29   S    
O1    P1    D    
C49   C50   A    
O11   P5    S    
C30   C33   A    
C5    O11   S    
C52   H45   S    
C1    H12   S    
C58   H55   S    
Ba1   O22   S    
C37   C38   A    
Ba2   O12   S    
C16   C17   A    
C4    H19   S    
C43   C46   A    
C26   C37   A    
C44   C49   A    
C7    O26   S    
C7    O17   S    
C21   H35   S    
Ba1   O12   S    
C12   H31   S    
C28   H37   S    
C7    H28   S    
C54   H7    S    
C3    O25   S    
C55   O2    S    
C43   C47   A    
C8    H30   S    
C53   H6    S    
C17   C20   A    
C31   C32   A    
C48   C52   A    
C10   C11   A    
C59   H60   S    
C39   P6    S    
Ba1   O8    S    
O6    P8    S    
C11   C13   A    
Ba1   O18   S    
C16   H36   S    
C57   H52   S    
O2    P2    S    
C40   C41   A    
C55   H10   S    
C1    C2    S    
C40   H43   S    
Ba1   P2    S    
Ba2   O13   S    
C6    H54   S    
C9    C15   A    
C10   C28   A    
C18   C19   A    
C6    H26   S    
O16   P8    D    
C29   C30   A    
O9    P5    S    
C58   H56   S    
Ba1   O23   S    
C42   C50   A    
C45   H3    S    
C9    C10   A    
C12   H42   S    
C2    O21   S    
C54   H9    S    
C3    O15   S    
C43   O27   S    
C30   C31   A    
C3    H18   S    
O20   P1    S    
C36   C38   A    
Ba2   O6    S    
C56   H14   S    
C4    H21   S    
C18   C24   A    
O24   P3    D    
C54   H8    S    
Ba1   Ba2   S    
C2    H1    S    
C12   C23   S    
Ba1   O13   S    
C27   C28   A    
C5    H24   S    
C53   O20   S    
C8    H32   S    
C14   C16   A    
C47   C48   A    
C25   C26   A    
C57   H51   S    
C20   C21   A    
O27   C59   S    
C55   H11   S    
C59   H58   S    
C33   H39   S    
C34   O7    S    
C27   C41   A    
C13   C14   A    
C56   H15   S    
C15   C19   A    
