data_mof_unit_48619.cif
_audit_creation_date              2012-12-11T15:41:08-0500
_audit_creation_method            fapswitch 2.2
_symmetry_space_group_name_H-M    P1
_symmetry_Int_Tables_number       1
_space_group_crystal_system       triclinic
_cell_length_a                    19.725405
_cell_length_b                    11.736687
_cell_length_c                    18.84008
_cell_angle_alpha                 90.092042
_cell_angle_beta                  90.703726
_cell_angle_gamma                 89.827929
_cell_volume                      4361.32993098

loop_
_atom_site_label
_atom_site_type_symbol
_atom_type_description
_atom_site_fract_x
_atom_site_fract_y
_atom_site_fract_z
_atom_type_partial_charge
C1    C     C_R   0.725201 0.960106 0.854706 0.562061
C2    C     C_R   0.275715 0.963666 0.143829 0.557527
C3    C     C_R   0.225759 0.459205 0.854364 0.557129
C4    C     C_R   0.775771 0.463658 0.143747 0.561518
C5    C     C_R   0.701344 0.458207 0.031882 -0.059167
C6    C     C_R   0.300940 0.457340 0.963500 -0.099850
C7    C     C_R   0.201008 0.957567 0.032221 -0.049025
C8    C     C_R   0.798211 0.961551 0.964395 -0.116726
C9    C     C_R   0.694991 0.452127 0.957827 -0.056026
C10   C     C_R   0.309022 0.447134 0.037936 -0.085857
C11   C     C_R   0.194842 0.951083 0.958094 -0.053382
C12   C     C_R   0.806604 0.950082 0.038425 -0.091391
C13   C     C_R   0.814920 0.408436 0.952251 -0.126731
C14   C     C_R   0.191290 0.394761 0.043639 -0.077696
C15   C     C_R   0.314975 0.910314 0.952510 -0.137242
C16   C     C_R   0.689287 0.896283 0.044661 -0.079351
C17   C     C_R   0.817923 0.398511 0.026746 0.245010
C18   C     C_R   0.187549 0.383433 0.969853 0.333843
C19   C     C_R   0.317967 0.899718 0.026989 0.249812
C20   C     C_R   0.684881 0.886345 0.970491 0.343741
C21   C     C_3   0.657375 0.559939 0.035918 0.492793
C22   C     C_3   0.319856 0.579339 0.965419 0.530818
C23   C     C_3   0.156937 0.059235 0.035715 0.494635
C24   C     C_3   0.815390 0.085032 0.967430 0.543329
C25   C     C_3   0.657752 0.565931 0.955388 0.603890
C26   C     C_3   0.333829 0.568865 0.044678 0.583519
C27   C     C_3   0.158304 0.065252 0.955188 0.609508
C28   C     C_3   0.831399 0.071273 0.046498 0.575891
C29   C     C_R   0.751866 0.424001 0.917628 -0.047878
C30   C     C_R   0.253159 0.410334 0.077517 0.004105
C31   C     C_R   0.251695 0.923259 0.918019 -0.048196
C32   C     C_R   0.751428 0.911838 0.078204 0.010059
C33   C     C_R   0.483220 0.172633 0.429831 -0.064493
C34   C     C_R   0.501174 0.162379 0.576572 -0.051391
C35   C     C_R   0.985972 0.672825 0.429379 -0.070892
C36   C     C_R   0.003912 0.661736 0.575647 -0.045745
C37   C     C_R   0.480835 0.272474 0.468484 0.051965
C38   C     C_R   0.493639 0.264419 0.540289 -0.063901
C39   C     C_R   0.979634 0.772538 0.469084 0.049858
C40   C     C_R   0.994887 0.763821 0.540406 -0.039523
C41   C     C_R   0.511284 0.062448 0.535898 0.282171
C42   C     C_R   0.498771 0.069326 0.462767 0.240638
C43   C     C_R   0.018125 0.563600 0.534272 0.295959
C44   C     C_R   0.007549 0.570605 0.461038 0.249657
C45   C     C_R   0.529542 0.179971 0.848097 0.544719
C46   C     C_R   0.438422 0.183050 0.144229 0.567394
C47   C     C_R   0.029234 0.679767 0.847621 0.544097
C48   C     C_R   0.942844 0.682321 0.143415 0.563856
C49   C     C_3   0.533027 0.363037 0.457714 0.129291
C50   C     C_3   0.553320 0.338807 0.532408 0.168763
C51   C     C_3   0.029625 0.867651 0.458876 0.121890
C52   C     C_3   0.055103 0.837003 0.530543 0.156238
C53   C     C_R   0.741318 0.418785 0.420486 -0.104704
C54   C     C_R   0.239185 0.442854 0.570783 0.003907
C55   C     C_R   0.239102 0.916092 0.420061 -0.104586
C56   C     C_R   0.738013 0.943484 0.568556 -0.018629
C57   C     C_R   0.766885 0.329744 0.455354 -0.074119
C58   C     C_R   0.186606 0.405827 0.528396 0.038077
C59   C     C_R   0.263158 0.826094 0.455580 -0.081355
C60   C     C_R   0.684266 0.914088 0.524868 0.031410
C61   C     C_R   0.762103 0.312289 0.526583 0.069314
C62   C     C_R   0.193185 0.389173 0.455767 -0.023115
C63   C     C_R   0.259659 0.811550 0.527266 0.088899
C64   C     C_R   0.692267 0.899736 0.452220 -0.017986
C65   C     C_R   0.685661 0.468633 0.534842 0.317522
C66   C     C_R   0.313178 0.443721 0.467283 0.337546
C67   C     C_R   0.184692 0.969777 0.534930 0.309853
C68   C     C_R   0.811570 0.949213 0.465184 0.346133
C69   C     C_R   0.689269 0.471606 0.458596 -0.055612
C70   C     C_R   0.303559 0.450851 0.541061 -0.069363
C71   C     C_R   0.186590 0.969068 0.458489 -0.076791
C72   C     C_R   0.802250 0.951323 0.538996 -0.073757
C73   C     C_3   0.819322 0.251328 0.440395 0.244525
C74   C     C_3   0.158276 0.290394 0.537454 0.296343
C75   C     C_3   0.314697 0.745679 0.442636 0.232228
C76   C     C_3   0.650130 0.801772 0.528637 0.272471
C77   C     C_3   0.831474 0.263038 0.521454 0.527489
C78   C     C_3   0.156894 0.276057 0.458243 0.488243
C79   C     C_3   0.328722 0.761897 0.523127 0.529491
C80   C     C_3   0.648233 0.795011 0.449029 0.498190
C81   C     C_R   0.731796 0.389906 0.570814 -0.005767
C82   C     C_R   0.256179 0.405714 0.423968 -0.005590
C83   C     C_R   0.230058 0.889832 0.571225 -0.004468
C84   C     C_R   0.755101 0.913512 0.420958 -0.014350
C85   C     C_R   0.738989 0.364173 0.850573 0.547968
C86   C     C_R   0.262592 0.360197 0.147638 0.555966
C87   C     C_R   0.238956 0.863897 0.850727 0.546080
C88   C     C_R   0.762229 0.860803 0.147926 0.555594
C89   C     C_R   0.724842 0.963808 0.643553 0.556628
C90   C     C_R   0.270537 0.957691 0.352168 0.541248
C91   C     C_R   0.225238 0.463760 0.645795 0.575039
C92   C     C_R   0.771139 0.458860 0.352329 0.534301
C93   C     C_R   0.531229 0.175451 0.646304 0.594420
C94   C     C_R   0.464340 0.177869 0.356309 0.572255
C95   C     C_R   0.032001 0.675444 0.645940 0.590317
C96   C     C_R   0.964676 0.677801 0.356383 0.568336
C97   C     C_R   0.735866 0.357061 0.645696 0.539526
C98   C     C_R   0.263066 0.356776 0.353831 0.550736
C99   C     C_R   0.235920 0.858106 0.646085 0.534215
C100  C     C_R   0.762665 0.859093 0.352739 0.536998
C101  C     C_2   0.491147 0.183496 0.914527 -0.099328
C102  C     C_2   0.441517 0.181941 0.066102 -0.099273
C103  C     C_2   0.991745 0.682963 0.914172 -0.098399
C104  C     C_2   0.949380 0.681715 0.065689 -0.093955
C105  C     C_2   0.473600 0.099238 0.031042 -0.161123
C106  C     C_2   0.477865 0.091452 0.952642 -0.161526
C107  C     C_2   0.976533 0.595698 0.029164 -0.165144
C108  C     C_2   0.975258 0.591128 0.950639 -0.168590
C109  C     C_R   0.762448 0.434148 0.068000 0.048976
C110  C     C_R   0.242408 0.419389 0.927697 0.046785
C111  C     C_R   0.262339 0.934434 0.068179 0.052274
C112  C     C_R   0.740262 0.922248 0.928608 0.054629
Cr1   Cr    Cr6+3 0.769260 0.163750 0.750730 1.055582
Cr2   Cr    Cr6+3 0.230740 0.163750 0.249270 0.987483
Cr3   Cr    Cr6+3 0.269260 0.663750 0.750730 1.047169
Cr4   Cr    Cr6+3 0.730740 0.663750 0.249270 1.000198
Cr5   Cr    Cr6+3 0.612640 0.009910 0.748780 1.021927
Cr6   Cr    Cr6+3 0.387360 0.009910 0.251220 0.970767
Cr7   Cr    Cr6+3 0.112640 0.509910 0.748780 1.021956
Cr8   Cr    Cr6+3 0.887360 0.509910 0.251220 0.969037
Cr9   Cr    Cr6+3 0.614190 0.322400 0.747710 0.971807
Cr10  Cr    Cr6+3 0.385810 0.322400 0.252290 0.950533
Cr11  Cr    Cr6+3 0.114190 0.822400 0.747710 0.967943
Cr12  Cr    Cr6+3 0.885810 0.822400 0.252290 0.949194
H1    H     H_    0.501790 0.037405 0.061814 0.117431
H2    H     H_    0.483581 0.009057 0.927482 0.127534
H3    H     H_    0.004522 0.530094 0.057293 0.105753
H4    H     H_    0.974683 0.509751 0.923806 0.115527
H5    H     H_    0.570119 0.344596 0.415073 0.090028
H6    H     H_    0.546443 0.407829 0.570861 0.229566
H7    H     H_    0.063544 0.856853 0.412376 0.090057
H8    H     H_    0.053954 0.904874 0.570257 0.229016
H9    H     H_    0.646335 0.496604 0.428191 0.123312
H10   H     H_    0.347050 0.464085 0.575648 0.161106
H11   H     H_    0.143658 0.001001 0.429297 0.120962
H12   H     H_    0.845896 0.960515 0.574064 0.166803
H13   H     H_    0.861936 0.274570 0.407067 0.085476
H14   H     H_    0.106789 0.286945 0.557412 0.167503
H15   H     H_    0.355160 0.768401 0.406090 0.083169
H16   H     H_    0.598743 0.798756 0.549418 0.174810
H17   H     H_    0.416114 0.250157 0.037464 0.093060
H18   H     H_    0.484746 0.266951 0.939007 0.103560
H19   H     H_    0.926588 0.753024 0.037901 0.086934
H20   H     H_    0.989939 0.765152 0.940514 0.101515
H21   H     H_    0.857125 0.376065 0.922044 0.167874
H22   H     H_    0.147306 0.379143 0.075683 0.091032
H23   H     H_    0.357409 0.879141 0.922198 0.161030
H24   H     H_    0.645876 0.880074 0.077456 0.083720
O1    O     O_R   0.784290 0.290360 0.830540 -0.471370
O2    O     O_R   0.215710 0.290360 0.169460 -0.512548
O3    O     O_R   0.284290 0.790360 0.830540 -0.483110
O4    O     O_R   0.715710 0.790360 0.169460 -0.519715
O5    O     O_R   0.554690 0.080440 0.673480 -0.490798
O6    O     O_R   0.445310 0.080440 0.326520 -0.479216
O7    O     O_R   0.054690 0.580440 0.673480 -0.488964
O8    O     O_R   0.945310 0.580440 0.326520 -0.485663
O9    O     O_R   0.543980 0.282110 0.666770 -0.523060
O10   O     O_R   0.456020 0.282110 0.333230 -0.520771
O11   O     O_R   0.043980 0.782110 0.666770 -0.533323
O12   O     O_R   0.956020 0.782110 0.333230 -0.531846
O13   O     O_R   0.679070 0.374030 0.674430 -0.506346
O14   O     O_R   0.320930 0.374030 0.325570 -0.527219
O15   O     O_R   0.179070 0.874030 0.674430 -0.521606
O16   O     O_R   0.820930 0.874030 0.325570 -0.530987
O17   O     O_3   0.665360 0.165350 0.749070 -0.264029
O18   O     O_3   0.334640 0.165350 0.250930 -0.286952
O19   O     O_3   0.165360 0.665350 0.749070 -0.262692
O20   O     O_3   0.834640 0.665350 0.250930 -0.284387
O21   O     O_R   0.762610 0.041070 0.825230 -0.474154
O22   O     O_R   0.237390 0.041070 0.174770 -0.480480
O23   O     O_R   0.262610 0.541070 0.825230 -0.487144
O24   O     O_R   0.737390 0.541070 0.174770 -0.478308
O25   O     O_R   0.667390 0.924160 0.829970 -0.487179
O26   O     O_R   0.332610 0.924160 0.170030 -0.519254
O27   O     O_R   0.167390 0.424160 0.829970 -0.490687
O28   O     O_R   0.832610 0.424160 0.170030 -0.520673
O29   O     O_R   0.553980 0.081420 0.821780 -0.495787
O30   O     O_R   0.446020 0.081420 0.178220 -0.522942
O31   O     O_R   0.053980 0.581420 0.821780 -0.500356
O32   O     O_R   0.946020 0.581420 0.178220 -0.517390
O33   O     O_R   0.543210 0.283170 0.826740 -0.571039
O34   O     O_R   0.456790 0.283170 0.173260 -0.549373
O35   O     O_R   0.043210 0.783170 0.826740 -0.569541
O36   O     O_R   0.956790 0.783170 0.173260 -0.547740
O37   O     O_R   0.678350 0.375000 0.822720 -0.542218
O38   O     O_R   0.321650 0.375000 0.177280 -0.564188
O39   O     O_R   0.178350 0.875000 0.822720 -0.540104
O40   O     O_R   0.821650 0.875000 0.177280 -0.557037
O41   O     O_R   0.785060 0.289300 0.670580 -0.523344
O42   O     O_R   0.214940 0.289300 0.329420 -0.551308
O43   O     O_R   0.285060 0.789300 0.670580 -0.507720
O44   O     O_R   0.714940 0.789300 0.329420 -0.519676
O45   O     O_R   0.763330 0.040090 0.676940 -0.506341
O46   O     O_R   0.236670 0.040090 0.323060 -0.514606
O47   O     O_R   0.263330 0.540090 0.676940 -0.505068
O48   O     O_R   0.736670 0.540090 0.323060 -0.491566
O49   O     O_R   0.668160 0.923110 0.670000 -0.514651
O50   O     O_R   0.331840 0.923110 0.330000 -0.565727
O51   O     O_R   0.168160 0.423110 0.670000 -0.511566
O52   O     O_R   0.831840 0.423110 0.330000 -0.575301
O53   O     O_3   0.002013 0.977226 0.463182 -0.676913
H25   H     H_    0.040080 0.032029 0.463824 0.347101
O54   O     O_3   0.114365 0.768009 0.530207 -0.707730
H26   H     H_    0.134904 0.773178 0.482637 0.297946
O55   O     O_3   0.506099 0.472843 0.453048 -0.686263
H27   H     H_    0.543511 0.527691 0.460565 0.339494
O56   O     O_3   0.613710 0.273436 0.539814 -0.694405
H28   H     H_    0.629582 0.248190 0.492424 0.299872
O57   O     O_3   0.630571 0.530067 0.562848 -0.557669
C113  C     C_3   0.630469 0.563289 0.635503 -0.019765
H29   H     H_    0.682475 0.572371 0.658639 0.135050
H30   H     H_    0.595901 0.509486 0.666942 0.123286
H31   H     H_    0.605416 0.647855 0.639864 0.124047
O58   O     O_3   0.379893 0.470356 0.445988 -0.476302
C114  C     C_3   0.391967 0.530901 0.381001 0.064204
H32   H     H_    0.347710 0.555655 0.347584 0.121288
H33   H     H_    0.425680 0.477760 0.347137 0.179322
H34   H     H_    0.421428 0.610036 0.391794 0.109436
O59   O     O_3   0.133207 0.040605 0.562607 -0.557867
C115  C     C_3   0.128874 0.061850 0.636597 -0.025288
H35   H     H_    0.179383 0.069427 0.663305 0.149738
H36   H     H_    0.093539 0.002432 0.662708 0.128216
H37   H     H_    0.103531 0.145087 0.644786 0.113410
O60   O     O_3   0.879367 0.974660 0.446029 -0.463894
C116  C     C_3   0.894881 0.028941 0.379214 0.061563
H38   H     H_    0.852855 0.054350 0.343465 0.120986
H39   H     H_    0.929530 0.971539 0.349011 0.175222
H40   H     H_    0.926274 0.106424 0.389534 0.115023
O61   O     O_3   0.786108 0.149788 0.418355 -0.571050
C117  C     C_3   0.730114 0.162707 0.369516 -0.148371
H41   H     H_    0.732766 0.239504 0.334975 0.111047
H42   H     H_    0.682525 0.163806 0.400793 0.131431
H43   H     H_    0.726322 0.088862 0.333492 0.107525
O62   O     O_3   0.200581 0.220328 0.581399 -0.573827
C118  C     C_3   0.270106 0.204472 0.567375 -0.101785
H44   H     H_    0.301189 0.252780 0.606303 0.083840
H45   H     H_    0.286515 0.222111 0.512772 0.155923
H46   H     H_    0.281269 0.116085 0.580608 0.116337
O63   O     O_3   0.281495 0.641379 0.426070 -0.572578
C119  C     C_3   0.219238 0.644627 0.385075 -0.142563
H47   H     H_    0.209293 0.724012 0.354360 0.100668
H48   H     H_    0.176303 0.626135 0.421890 0.161979
H49   H     H_    0.218565 0.576007 0.344387 0.108278
O64   O     O_3   0.690011 0.718278 0.564861 -0.564268
C120  C     C_3   0.760776 0.706335 0.554147 -0.093087
H50   H     H_    0.789643 0.751830 0.596235 0.082003
H51   H     H_    0.778111 0.725308 0.499847 0.147380
H52   H     H_    0.774088 0.618140 0.566125 0.108546
O65   O     O_3   0.838430 0.159430 0.555633 -0.643792
H53   H     H_    0.861734 0.172240 0.601877 0.351080
O66   O     O_3   0.196643 0.184278 0.438147 -0.692382
H54   H     H_    0.174129 0.152874 0.395801 0.363508
O67   O     O_3   0.335480 0.661098 0.560729 -0.643233
H55   H     H_    0.369250 0.672517 0.599503 0.343781
O68   O     O_3   0.676873 0.692132 0.428091 -0.659165
H56   H     H_    0.644171 0.657753 0.393561 0.336611
O69   O     O_3   0.885037 0.339927 0.540750 -0.643907
C121  C     C_3   0.865069 0.454259 0.556219 -0.192797
H57   H     H_    0.846608 0.463477 0.611128 0.123540
H58   H     H_    0.832486 0.491748 0.514427 0.086410
H59   H     H_    0.906459 0.512012 0.553667 0.101477
O70   O     O_3   0.088859 0.273784 0.429392 -0.580916
C122  C     C_3   0.084862 0.300536 0.355291 -0.033671
H60   H     H_    0.107184 0.234892 0.320978 0.112715
H61   H     H_    0.102939 0.389929 0.344092 0.179311
H62   H     H_    0.032782 0.291062 0.334041 0.075816
O71   O     O_3   0.382396 0.839590 0.539397 -0.656278
C123  C     C_3   0.362019 0.952551 0.556277 -0.191784
H63   H     H_    0.345641 0.959404 0.612039 0.122887
H64   H     H_    0.328640 0.990112 0.515035 0.096281
H65   H     H_    0.401778 0.011843 0.553339 0.105753
O72   O     O_3   0.584235 0.815427 0.416079 -0.573041
C124  C     C_3   0.589360 0.845815 0.342042 -0.026707
H66   H     H_    0.602157 0.771433 0.308347 0.108884
H67   H     H_    0.621487 0.923061 0.334082 0.140234
H68   H     H_    0.540459 0.870115 0.317778 0.123365
O73   O     O_3   0.859168 0.314837 0.055358 -0.497825
C125  C     C_3   0.926708 0.347893 0.057324 -0.068671
H69   H     H_    0.933158 0.415650 0.097056 0.152340
H70   H     H_    0.944187 0.369930 0.003911 0.086445
H71   H     H_    0.958111 0.275978 0.076975 0.174012
O74   O     O_3   0.133367 0.328303 0.937392 -0.496790
C126  C     C_3   0.071313 0.363874 0.963708 -0.080379
H72   H     H_    0.072409 0.456693 0.973483 0.105392
H73   H     H_    0.059357 0.316265 0.012570 0.115118
H74   H     H_    0.032040 0.343470 0.923137 0.159601
O75   O     O_3   0.359573 0.816473 0.055729 -0.499357
C127  C     C_3   0.427288 0.848943 0.057356 -0.073602
H75   H     H_    0.435940 0.908871 0.101394 0.152540
H76   H     H_    0.442997 0.880866 0.005545 0.077338
H77   H     H_    0.458998 0.773857 0.070249 0.175039
O76   O     O_3   0.630352 0.833830 0.936193 -0.499151
C128  C     C_3   0.568747 0.842330 0.973196 -0.078639
H78   H     H_    0.562843 0.929345 0.996246 0.068578
H79   H     H_    0.565751 0.775432 0.015483 0.151346
H80   H     H_    0.527405 0.826605 0.934092 0.162480
O77   O     O_3   0.186095 0.153201 0.068234 -0.639109
H81   H     H_    0.146863 0.197902 0.085229 0.347661
O78   O     O_3   0.755276 0.147654 0.952286 -0.650831
H82   H     H_    0.760147 0.224508 0.976778 0.356444
O79   O     O_3   0.687353 0.653468 0.067862 -0.638515
H83   H     H_    0.648684 0.697732 0.086425 0.344675
O80   O     O_3   0.262262 0.645167 0.948203 -0.655849
H84   H     H_    0.272162 0.722096 0.968053 0.365587
O81   O     O_3   0.593354 0.533120 0.064259 -0.735593
H85   H     H_    0.601030 0.483433 0.106480 0.308875
O82   O     O_3   0.376968 0.607088 0.924749 -0.645795
H86   H     H_    0.376410 0.557831 0.881445 0.308166
O83   O     O_3   0.092833 0.031242 0.063211 -0.736277
H87   H     H_    0.100800 0.995669 0.110498 0.308994
O84   O     O_3   0.870798 0.118529 0.925206 -0.620999
H88   H     H_    0.884994 0.050023 0.895797 0.289393
O85   O     O_3   0.589605 0.582405 0.931219 -0.543417
C129  C     C_3   0.560453 0.486400 0.899750 -0.078075
H89   H     H_    0.571953 0.407273 0.929804 0.144875
H90   H     H_    0.575632 0.482862 0.843440 0.150112
H91   H     H_    0.504576 0.496962 0.900116 0.154808
O86   O     O_3   0.404375 0.592852 0.056645 -0.534871
C130  C     C_3   0.441422 0.505332 0.091133 -0.117524
H92   H     H_    0.410035 0.446856 0.121251 0.158114
H93   H     H_    0.476469 0.545597 0.130665 0.141556
H94   H     H_    0.470952 0.455827 0.051001 0.176961
O87   O     O_3   0.090634 0.082974 0.929951 -0.535054
C131  C     C_3   0.061100 0.987162 0.898536 -0.078420
H95   H     H_    0.073003 0.907699 0.928019 0.144618
H96   H     H_    0.075554 0.984123 0.841978 0.151564
H97   H     H_    0.005274 0.997444 0.899833 0.135511
O88   O     O_3   0.902595 0.093773 0.057735 -0.539892
C132  C     C_3   0.941473 0.000280 0.084323 -0.113639
H98   H     H_    0.909980 0.932464 0.107168 0.154120
H99   H     H_    0.976310 0.031541 0.128914 0.144478
H100  H     H_    0.973392 0.963551 0.039791 0.177307
O89   O     O_3   0.701932 0.651107 0.929428 -0.520111
C133  C     C_3   0.697192 0.659404 0.854442 -0.050940
H101  H     H_    0.646752 0.691596 0.836696 0.187287
H102  H     H_    0.707620 0.578401 0.827165 0.078792
H103  H     H_    0.736069 0.720080 0.836110 0.118654
O90   O     O_3   0.289340 0.639441 0.084583 -0.545775
C134  C     C_3   0.309499 0.651560 0.156524 -0.051207
H104  H     H_    0.363107 0.678772 0.163387 0.167845
H105  H     H_    0.299640 0.573889 0.187131 0.098360
H106  H     H_    0.277661 0.719200 0.180579 0.143177
O91   O     O_3   0.203724 0.149064 0.929683 -0.518598
C135  C     C_3   0.199614 0.158405 0.854617 -0.047086
H107  H     H_    0.149264 0.190348 0.836399 0.187794
H108  H     H_    0.210694 0.077977 0.826985 0.078432
H109  H     H_    0.238425 0.219850 0.837003 0.118440
O92   O     O_3   0.788091 0.139920 0.089228 -0.549334
C136  C     C_3   0.811871 0.151613 0.160204 -0.049757
H110  H     H_    0.864224 0.186787 0.163939 0.176733
H111  H     H_    0.809000 0.071198 0.189835 0.102344
H112  H     H_    0.777962 0.212491 0.187878 0.132074
O93   O     O_3   0.542379 0.964131 0.561833 -0.546936
C137  C     C_3   0.505395 0.902769 0.613892 -0.070809
H113  H     H_    0.464882 0.951800 0.640833 0.112568
H114  H     H_    0.540936 0.876519 0.656822 0.141121
H115  H     H_    0.487469 0.820495 0.592303 0.156584
O94   O     O_3   0.510359 0.978465 0.420355 -0.528778
C138  C     C_3   0.455919 0.902322 0.423413 0.000432
H116  H     H_    0.449692 0.857993 0.372072 0.111755
H117  H     H_    0.406740 0.945406 0.431353 0.145249
H118  H     H_    0.468841 0.834942 0.462123 0.218861
O95   O     O_3   0.052663 0.469160 0.560558 -0.537422
C139  C     C_3   0.013227 0.399973 0.605876 -0.067233
H119  H     H_    0.972102 0.444628 0.634224 0.118877
H120  H     H_    0.046448 0.366734 0.648916 0.132523
H121  H     H_    0.995904 0.323376 0.577038 0.175226
O96   O     O_3   0.018186 0.476854 0.419710 -0.550438
C140  C     C_3   0.959063 0.410217 0.420414 -0.032735
H122  H     H_    0.946328 0.381827 0.366106 0.136300
H123  H     H_    0.912378 0.457595 0.434279 0.133328
H124  H     H_    0.968395 0.333461 0.453110 0.207185

loop_
_geom_bond_atom_site_label_1
_geom_bond_atom_site_label_2
_ccdc_geom_bond_type
Cr2   O42   S    
C55   C59   A    
C6    C110  A    
C98   O42   A    
C53   C69   A    
C43   O95   S    
O89   C133  S    
O74   C126  S    
C16   C20   A    
C41   O93   S    
C116  H40   S    
O64   C120  S    
C64   C84   A    
Cr11  O35   S    
Cr12  O20   S    
O72   C124  S    
C56   C72   A    
C102  H17   S    
C74   O62   S    
C140  H124  S    
Cr3   O43   S    
Cr4   O44   S    
C120  H50   S    
C82   C98   S    
Cr7   O31   S    
O96   C140  S    
C98   O14   A    
Cr5   O29   S    
C2    C111  S    
C31   C87   S    
C45   O33   A    
O87   C131  S    
C52   H8    S    
C127  H77   S    
C122  H60   S    
C47   O35   A    
C48   O36   A    
C51   H7    S    
C129  H89   S    
O79   H83   S    
C60   C76   S    
C80   O72   S    
C114  H32   S    
O61   C117  S    
C66   C82   A    
Cr11  O15   S    
C10   C30   A    
O80   H84   S    
C54   C70   A    
C11   C27   S    
C68   C72   A    
C89   O45   A    
C79   O67   S    
O95   C139  S    
C24   O84   S    
C117  H42   S    
C25   O89   S    
C123  H64   S    
Cr5   O5    S    
Cr2   O2    S    
Cr7   O19   S    
Cr8   O20   S    
Cr5   O25   S    
C122  H61   S    
Cr2   O46   S    
C92   O48   A    
C17   C109  A    
C57   C61   A    
C19   C111  A    
C7    C111  A    
C59   C63   A    
C105  H1    S    
C60   C64   A    
C52   O54   S    
C93   O5    A    
C107  H3    S    
C133  H103  S    
C66   C70   A    
Cr11  O11   S    
C131  H97   S    
Cr12  O12   S    
O92   C136  S    
C22   C26   S    
C54   C91   S    
C5    C21   S    
C120  H52   S    
Cr3   O3    S    
C138  H116  S    
C70   H10   S    
C73   C77   S    
Cr4   O20   S    
C75   C79   S    
C104  C107  D    
C55   C71   A    
C39   C51   S    
C4    C109  S    
C130  H93   S    
C67   C83   A    
C136  H110  S    
C13   H21   S    
C33   C94   S    
C124  H68   S    
C73   O61   S    
C28   O92   S    
C96   O8    A    
C35   C96   S    
C1    O25   A    
O65   H53   S    
C73   H13   S    
C95   O11   A    
C33   C42   A    
Cr12  O36   S    
C55   C90   S    
C86   O2    A    
C1    C112  S    
O67   H55   S    
Cr10  O38   S    
C3    C110  S    
C32   C88   S    
C42   O94   S    
C139  H119  S    
O69   C121  S    
C57   C73   S    
C61   C77   S    
C107  C108  S    
C29   C85   S    
C97   O41   A    
C26   O86   S    
C77   O69   S    
O73   C125  S    
C126  H74   S    
C78   O70   S    
C68   O60   S    
C119  H48   S    
C115  H35   S    
C116  H38   S    
C85   O37   A    
C20   O76   S    
C114  H34   S    
C39   C40   A    
Cr12  O40   S    
C133  H101  S    
C131  H95   S    
C87   O39   A    
C127  H76   S    
C5    C9    A    
C128  H78   S    
C101  H18   S    
C8    C12   A    
O57   C113  S    
C104  H19   S    
C108  H4    S    
C99   O15   A    
Cr6   O30   S    
C56   C89   S    
C136  H112  S    
C113  H30   S    
C74   C78   S    
C118  H46   S    
Cr6   O50   S    
C48   O32   A    
C58   C74   S    
C101  C106  D    
C21   C25   S    
C4    O24   A    
C96   O12   A    
C62   C78   S    
C24   C28   S    
O88   C132  S    
O71   C123  S    
C15   C31   A    
O70   C122  S    
C16   C32   A    
C113  H31   S    
Cr9   O17   S    
C97   O13   A    
Cr10  O14   S    
C139  H121  S    
C13   C17   A    
C46   O34   A    
C67   O59   S    
C121  H57   S    
C75   H15   S    
C36   C95   S    
C7    C23   S    
C119  H47   S    
C124  H67   S    
Cr6   O6    S    
C138  H118  S    
Cr4   O48   S    
C134  H106  S    
C135  H107  S    
Cr6   O26   S    
C131  H96   S    
C137  H113  S    
C126  H72   S    
C125  H69   S    
C25   O85   S    
C92   O52   A    
C115  H37   S    
C17   O73   S    
C140  H123  S    
C58   C62   A    
C41   C42   A    
C75   O63   S    
O63   C119  S    
O54   H26   S    
O60   C116  S    
O93   C137  S    
C9    C25   S    
O66   H54   S    
C15   C19   A    
C74   H14   S    
C12   C28   S    
Cr7   O51   S    
C44   O96   S    
C13   C29   A    
C128  H80   S    
C8    C112  A    
Cr1   O17   S    
C129  H90   S    
C6    C22   S    
Cr8   O8    S    
Cr4   O24   S    
C102  C105  D    
C132  H98   S    
C14   C18   A    
Cr7   O27   S    
C20   C112  A    
Cr8   O28   S    
Cr5   O17   S    
C99   O43   A    
C125  H71   S    
Cr7   O7    S    
C118  H44   S    
C8    C24   S    
C129  H91   S    
C62   C82   A    
C94   O10   A    
C83   C99   S    
C78   O66   S    
C64   C80   S    
C34   C41   A    
C47   C103  S    
O56   H28   S    
C68   C84   A    
C76   C80   S    
C100  O44   A    
Cr3   O23   S    
O59   C115  S    
C24   O78   S    
C53   C57   A    
Cr1   O21   S    
O83   H87   S    
C119  H49   S    
C33   C37   A    
O82   H86   S    
C63   C83   A    
C22   O82   S    
C84   C100  S    
C66   O58   S    
C7    C11   A    
O78   H82   S    
C37   C49   S    
C65   C81   A    
C134  H104  S    
C90   O46   A    
C135  H109  S    
C100  O16   A    
C45   C101  S    
C2    O22   A    
C38   C50   S    
C3    O27   A    
C49   O55   S    
C86   O38   A    
C120  H51   S    
C77   O65   S    
O62   C118  S    
C89   O49   A    
Cr9   O33   S    
Cr3   O47   S    
Cr1   O45   S    
C18   C110  A    
C6    C10   A    
Cr1   O41   S    
C105  C106  S    
C106  H2    S    
C22   O80   S    
Cr8   O32   S    
C51   C52   S    
C15   H23   S    
O85   C129  S    
C5    C109  A    
C65   C69   A    
Cr8   O52   S    
C139  H120  S    
C67   C71   A    
C117  H41   S    
C130  H92   S    
C56   C60   A    
C123  H63   S    
C26   O90   S    
O81   H85   S    
C4    O28   A    
C36   C43   A    
C61   C81   A    
C51   O53   S    
Cr12  O16   S    
C122  H62   S    
O91   C135  S    
Cr10  O18   S    
C80   O68   S    
C126  H73   S    
O77   H81   S    
C46   O30   A    
C35   C39   A    
C34   C93   S    
C43   C44   A    
C103  H20   S    
C115  H36   S    
C63   C79   S    
O55   H27   S    
C27   O91   S    
C46   C102  S    
C37   C38   A    
O76   C128  S    
C76   O64   S    
C114  H33   S    
C71   H11   S    
C133  H102  S    
C72   H12   S    
C48   C104  S    
C91   O47   A    
C117  H43   S    
C47   O31   A    
C50   H6    S    
C116  H39   S    
O75   C127  S    
C79   O71   S    
C103  C108  D    
C23   C27   S    
C30   C86   S    
C65   O57   S    
C23   O77   S    
C45   O29   A    
Cr11  O19   S    
C50   O56   S    
C10   C26   S    
C95   O7    A    
C130  H94   S    
Cr9   O13   S    
C136  H111  S    
C87   O3    A    
C12   C32   A    
C118  H45   S    
C14   C30   A    
Cr2   O18   S    
C76   H16   S    
Cr10  O10   S    
C27   O87   S    
Cr1   O1    S    
C36   C40   A    
O58   C114  S    
O84   H88   S    
C40   C52   S    
C49   H5    S    
Cr6   O18   S    
Cr9   O37   S    
C121  H58   S    
O86   C130  S    
C18   O74   S    
C123  H65   S    
C88   O40   A    
C94   O6    A    
C19   O75   S    
C53   C92   S    
C21   O81   S    
C124  H66   S    
C132  H99   S    
C138  H117  S    
C93   O9    A    
C35   C44   A    
C134  H105  S    
C135  H108  S    
C49   C50   S    
C137  H114  S    
C132  H100  S    
C125  H70   S    
C121  H59   S    
Cr3   O19   S    
O68   H56   S    
C59   C75   S    
Cr4   O4    S    
Cr5   O49   S    
C140  H122  S    
C54   C58   A    
Cr2   O22   S    
C69   H9    S    
C34   C38   A    
C88   O4    A    
C90   O50   A    
C9    C29   A    
C137  H115  S    
C14   H22   S    
C16   H24   S    
C127  H75   S    
C91   O51   A    
C128  H79   S    
C2    O26   A    
C3    O23   A    
C28   O88   S    
C81   C97   S    
C1    O21   A    
C23   O83   S    
C21   O79   S    
C113  H29   S    
Cr11  O39   S    
O94   C138  S    
C85   O1    A    
C11   C31   A    
Cr10  O34   S    
O53   H25   S    
O90   C134  S    
Cr9   O9    S    
