data_mof_unit_36610.cif
_audit_creation_date              2012-10-26T19:08:22-0400
_audit_creation_method            fapswitch 2.2
_symmetry_space_group_name_H-M    P1
_symmetry_Int_Tables_number       1
_space_group_crystal_system       triclinic
_cell_length_a                    14.771253
_cell_length_b                    14.795852
_cell_length_c                    19.355085
_cell_angle_alpha                 75.898174
_cell_angle_beta                  103.41323
_cell_angle_gamma                 115.033458
_cell_volume                      3677.04877274

loop_
_atom_site_label
_atom_site_type_symbol
_atom_type_description
_atom_site_fract_x
_atom_site_fract_y
_atom_site_fract_z
_atom_type_partial_charge
C1    C     C_R   0.880414 0.312516 0.510769 0.538219
C2    C     C_R   0.290752 0.821734 0.486245 -0.131695
C3    C     C_R   0.638861 0.080626 0.500091 0.034116
C4    C     C_R   0.359902 0.922731 0.484442 0.033445
C5    C     C_R   0.676274 0.008330 0.496347 0.050950
C6    C     C_R   0.321652 0.997196 0.480985 0.052157
C7    C     C_R   0.532597 0.053359 0.492829 0.032624
C8    C     C_R   0.465769 0.951292 0.487698 0.033194
C9    C     C_R   0.506876 0.881648 0.484836 -0.134565
C10   C     C_R   0.490814 0.125277 0.488355 -0.136265
C11   C     C_R   0.609877 0.910045 0.488646 -0.132885
C12   C     C_R   0.119604 0.687575 0.488625 0.539189
C13   C     C_R   0.387437 0.097523 0.482096 -0.132423
C14   C     C_R   0.716368 0.676422 0.387675 -0.144826
C15   C     C_R   0.298772 0.346443 0.628281 -0.144243
C16   C     C_R   0.000435 0.500390 0.632502 0.538022
C17   C     C_R   0.000200 0.500200 0.367469 0.537497
C18   C     C_R   0.787788 0.634855 0.394970 0.166651
C19   C     C_R   0.207511 0.358029 0.600460 0.162931
C20   C     C_R   0.723160 0.520186 0.498314 0.020216
C21   C     C_R   0.290357 0.500356 0.515988 0.021212
C22   C     C_R   0.640440 0.552209 0.486320 -0.004058
C23   C     C_R   0.812676 0.205848 0.510901 -0.003791
C24   C     C_R   0.382427 0.482737 0.538045 -0.004461
C25   C     C_R   0.640932 0.633533 0.430457 0.022004
C26   C     C_R   0.384257 0.404907 0.596318 0.023117
C27   C     C_R   0.556408 0.506087 0.525864 0.028541
C28   C     C_R   0.471705 0.536936 0.504135 0.030599
C29   C     C_R   0.478877 0.620031 0.448878 -0.140741
C30   C     C_R   0.553486 0.429491 0.585655 -0.141475
C31   C     C_R   0.562906 0.668544 0.413914 -0.136370
C32   C     C_R   0.469614 0.381202 0.620776 -0.128914
C33   C     C_R   0.082085 0.492871 0.760870 -0.139490
C34   C     C_R   0.187233 0.794976 0.483373 -0.005755
C35   C     C_R   0.964390 0.560479 0.235663 -0.141385
C36   C     C_R   0.080930 0.489339 0.833284 -0.119940
C37   C     C_R   0.963334 0.557514 0.164199 -0.115103
C38   C     C_R   0.998973 0.494493 0.854674 0.034703
C39   C     C_R   0.000729 0.494134 0.147213 0.034552
C40   C     C_R   0.918120 0.503122 0.802362 -0.119344
C41   C     C_R   0.039981 0.434182 0.203190 -0.120043
C42   C     C_R   0.918666 0.505295 0.730041 -0.133960
C43   C     C_R   0.039766 0.436318 0.274915 -0.129286
C44   C     C_R   0.000492 0.499719 0.708687 0.008936
C45   C     C_R   0.780088 0.035449 0.499170 -0.130417
C46   C     C_R   0.000764 0.498731 0.291737 0.014370
C47   C     C_R   0.999236 0.491977 0.071324 0.342159
C48   C     C_R   0.998440 0.492455 0.931004 0.342422
C49   C     C_3   0.115733 0.267530 0.625691 -0.217444
C50   C     C_3   0.072859 0.281613 0.685111 -0.381399
C51   C     C_3   0.836966 0.661655 0.328320 -0.223803
C52   C     C_3   0.943108 0.745031 0.332212 -0.395365
C53   C     C_R   0.217603 0.970469 0.477014 -0.131962
C54   C     C_R   0.847645 0.134129 0.504926 -0.138847
C55   C     C_R   0.150771 0.869955 0.478195 -0.140803
C56   C     C_R   0.709541 0.177949 0.510654 -0.129011
Cu1   Cu    Cu3+1 0.081740 0.475680 0.518680 0.927283
Cu2   Cu    Cu3+1 0.918260 0.524320 0.481320 0.930921
H1    H     H_    0.147346 0.491118 0.745792 0.127568
H2    H     H_    0.615309 0.405317 0.606822 0.090441
H3    H     H_    0.144912 0.484094 0.872344 0.135352
H4    H     H_    0.934820 0.606397 0.122232 0.134888
H5    H     H_    0.853846 0.507106 0.817366 0.134679
H6    H     H_    0.069578 0.384754 0.191581 0.132948
H7    H     H_    0.854702 0.510697 0.690995 0.124408
H8    H     H_    0.069095 0.388366 0.317194 0.126357
H9    H     H_    0.637779 0.854412 0.485388 0.116642
H10   H     H_    0.358839 0.155191 0.478758 0.111140
H11   H     H_    0.315609 0.761441 0.491922 0.117134
H12   H     H_    0.939414 0.613450 0.246353 0.106536
H13   H     H_    0.686621 0.234111 0.518838 0.114256
H14   H     H_    0.071160 0.850740 0.476933 0.124345
H15   H     H_    0.926413 0.154549 0.502596 0.111266
H16   H     H_    0.808740 0.980864 0.494974 0.105684
H17   H     H_    0.188079 0.027260 0.474089 0.103513
H18   H     H_    0.461570 0.804705 0.477517 0.099642
H19   H     H_    0.535561 0.204765 0.487608 0.106944
H20   H     H_    0.131495 0.339515 0.716271 0.148504
H21   H     H_    0.006115 0.300972 0.662713 0.179063
H22   H     H_    0.046128 0.209383 0.723164 0.115948
H23   H     H_    0.564768 0.731888 0.371088 0.110124
H24   H     H_    0.058954 0.237398 0.580566 0.157415
H25   H     H_    0.137130 0.201413 0.648893 0.090060
H26   H     H_    0.954080 0.795002 0.370484 0.148986
H27   H     H_    0.001568 0.712864 0.346894 0.177488
H28   H     H_    0.954407 0.792563 0.278318 0.112069
H29   H     H_    0.829227 0.592747 0.311561 0.165091
H30   H     H_    0.791074 0.690384 0.281174 0.095354
H31   H     H_    0.470174 0.321585 0.666215 0.110480
H32   H     H_    0.284764 0.560674 0.473286 0.118754
H33   H     H_    0.730240 0.461784 0.542268 0.114793
H34   H     H_    0.713834 0.737160 0.343478 0.093295
H35   H     H_    0.301340 0.285441 0.672228 0.093830
H36   H     H_    0.420460 0.649483 0.431366 0.088133
N1    N     N_R   0.936745 0.526213 0.949784 -0.231899
N2    N     N_R   0.060439 0.457421 0.052659 -0.231238
N3    N     N_R   0.937366 0.526247 0.018567 -0.232302
N4    N     N_R   0.060256 0.457955 0.983754 -0.232142
N5    N     N_R   0.795420 0.560800 0.453240 -0.219763
N6    N     N_R   0.204580 0.439200 0.546760 -0.220533
O1    O     O_R   0.977910 0.338110 0.524620 -0.515905
O2    O     O_R   0.022090 0.661890 0.475380 -0.500336
O3    O     O_R   0.839850 0.379180 0.493080 -0.503313
O4    O     O_R   0.160150 0.620820 0.506920 -0.508861
O5    O     O_R   0.069040 0.479450 0.615630 -0.499241
O6    O     O_R   0.930960 0.520550 0.384370 -0.508677
O7    O     O_R   0.930990 0.520520 0.584090 -0.506400
O8    O     O_R   0.069010 0.479480 0.415910 -0.502481

loop_
_geom_bond_atom_site_label_1
_geom_bond_atom_site_label_2
_ccdc_geom_bond_type
C25   C31   A    
C7    C10   A    
Cu1   O5    S    
C26   C32   A    
C48   N1    A    
C14   C18   A    
C4    C8    A    
C50   H21   S    
C37   H4    S    
C23   C56   A    
C39   C41   A    
C15   C19   A    
C40   H5    S    
C31   H23   S    
C28   C29   A    
C35   C37   A    
C24   C26   A    
C5    C11   A    
C3    C7    A    
C29   H36   S    
C33   C36   A    
Cu2   O7    S    
C52   H26   S    
C16   O7    A    
C35   H12   S    
C8    C9    A    
C22   C25   A    
C30   H2    S    
C42   H7    S    
C47   N2    A    
Cu2   O2    S    
C9    H18   S    
C30   C32   A    
C2    H11   S    
C16   C44   S    
C38   C48   S    
C55   H14   S    
C2    C34   A    
C40   C42   A    
C34   C55   A    
C33   H1    S    
C27   C30   A    
C41   C43   A    
C53   H17   S    
C42   C44   A    
C50   H20   S    
C10   H19   S    
C11   H9    S    
C18   C51   S    
C21   H32   S    
C53   C55   A    
C20   H33   S    
C51   C52   S    
C7    C8    A    
C17   C46   S    
C4    C6    A    
C17   O8    A    
C51   H29   S    
C21   N6    A    
C15   C26   A    
Cu1   N6    S    
C5    C45   A    
N2    N4    A    
C45   H16   S    
Cu2   O6    S    
C49   H24   S    
C2    C4    A    
C12   O2    A    
C54   H15   S    
C3    C56   A    
C19   C49   S    
C32   H31   S    
C56   H13   S    
C9    C11   A    
C14   H34   S    
C16   O5    A    
C20   C22   A    
C45   C54   A    
C1    C23   S    
C22   C27   A    
C18   N5    A    
C6    C53   A    
C12   C34   S    
C36   H3    S    
C1    O1    A    
Cu1   O1    S    
C23   C54   A    
C39   C47   S    
Cu1   O4    S    
C1    O3    A    
C52   H27   S    
C33   C44   A    
Cu2   N5    S    
C24   C28   A    
C3    C5    A    
C10   C13   A    
C50   H22   S    
C51   H30   S    
C15   H35   S    
C19   N6    A    
N1    N3    A    
C12   O4    A    
C48   N4    A    
C47   N3    A    
C49   H25   S    
C52   H28   S    
C37   C39   A    
C17   O6    A    
C6    C13   A    
C38   C40   A    
Cu1   Cu2   S    
C20   N5    A    
C43   H8    S    
C36   C38   A    
C14   C25   A    
C43   C46   A    
Cu1   O8    S    
C29   C31   A    
C49   C50   S    
C21   C24   A    
C27   C28   A    
Cu2   O3    S    
C41   H6    S    
C35   C46   A    
C13   H10   S    
