data_mof_unit_25962.cif
_audit_creation_date              2012-12-10T20:03:08-0500
_audit_creation_method            fapswitch 2.2
_symmetry_space_group_name_H-M    P1
_symmetry_Int_Tables_number       1
_space_group_crystal_system       triclinic
_cell_length_a                    8.565239
_cell_length_b                    19.378481
_cell_length_c                    18.599928
_cell_angle_alpha                 89.708415
_cell_angle_beta                  98.19968
_cell_angle_gamma                 93.465952
_cell_volume                      3050.07119962

loop_
_atom_site_label
_atom_site_type_symbol
_atom_type_description
_atom_site_fract_x
_atom_site_fract_y
_atom_site_fract_z
_atom_type_partial_charge
C1    C     C_R   0.500780 0.365616 0.500201 0.930374
C2    C     C_R   0.499152 0.634384 0.499797 0.930042
C3    C     C_R   0.640897 0.966794 0.525465 0.159486
C4    C     C_R   0.358399 0.033192 0.474582 0.159552
C5    C     C_R   0.643051 0.039403 0.523740 0.144393
C6    C     C_R   0.356234 0.960583 0.476329 0.144523
C7    C     C_R   0.501976 0.071576 0.498494 0.016547
C8    C     C_R   0.497321 0.928411 0.501553 0.016542
C9    C     C_R   0.621153 0.534970 0.734916 0.161370
C10   C     C_R   0.379348 0.464680 0.265094 0.174373
C11   C     C_R   0.627354 0.532046 0.812049 0.306146
C12   C     C_R   0.372613 0.467906 0.187935 0.289876
C13   C     C_R   0.500156 0.501197 0.842189 0.055522
C14   C     C_R   0.498279 0.499988 0.157679 -0.029458
C15   C     C_R   0.373868 0.468955 0.796320 0.304781
C16   C     C_R   0.624109 0.532610 0.203501 0.283709
C17   C     C_R   0.380105 0.464818 0.720110 0.144726
C18   C     C_R   0.618971 0.535856 0.279848 0.150016
C19   C     C_R   0.551060 0.444811 0.964639 0.444924
C20   C     C_R   0.439202 0.557561 0.033886 0.447586
C21   C     C_R   0.556558 0.445026 0.041651 0.048414
C22   C     C_R   0.442947 0.558623 0.957987 0.054858
C23   C     C_R   0.201217 0.499094 0.481159 0.953668
C24   C     C_R   0.798787 0.500986 0.518835 0.954055
C25   C     C_R   0.496807 0.500729 0.076441 0.071641
C26   C     C_R   0.499408 0.502273 0.923126 0.098633
C27   C     C_2   0.035998 0.495446 0.471260 -0.364571
C28   C     C_2   0.964009 0.504795 0.528704 -0.364705
C29   C     C_R   0.542433 0.748445 0.440472 0.383621
C30   C     C_R   0.456898 0.251582 0.559468 0.384477
C31   C     C_R   0.540720 0.820345 0.441761 -0.289718
C32   C     C_R   0.458452 0.179677 0.558193 -0.289843
C33   C     C_R   0.494622 0.853448 0.500689 0.072045
C34   C     C_R   0.504702 0.146540 0.499321 0.072320
C35   C     C_R   0.447630 0.816280 0.558818 -0.294283
C36   C     C_R   0.551958 0.183679 0.441227 -0.294787
C37   C     C_R   0.446179 0.744215 0.558799 0.380800
C38   C     C_R   0.553600 0.255748 0.441242 0.380621
C39   C     C_R   0.495807 0.709962 0.499587 -0.145214
C40   C     C_R   0.503884 0.290034 0.500407 -0.145487
H1    H     H_    0.974046 0.483439 0.417250 0.178433
H2    H     H_    0.025957 0.516875 0.582689 0.177945
H3    H     H_    0.576792 0.850858 0.397279 0.153079
H4    H     H_    0.422155 0.149186 0.602643 0.152924
H5    H     H_    0.411452 0.843641 0.603791 0.150035
H6    H     H_    0.588230 0.156292 0.396293 0.149777
N1    N     N_R   0.500020 0.499980 0.689440 -0.108553
N2    N     N_R   0.499980 0.500020 0.310560 -0.108953
O1    O     O_R   0.500010 0.398180 0.560840 -0.579872
O2    O     O_R   0.499990 0.601820 0.439160 -0.582110
O3    O     O_R   0.499930 0.398180 0.439210 -0.580839
O4    O     O_R   0.500070 0.601820 0.560790 -0.581163
O5    O     O_R   0.271780 0.500000 0.546590 -0.618304
O6    O     O_R   0.728220 0.500000 0.453410 -0.617926
O7    O     O_R   0.271710 0.499990 0.424960 -0.637101
O8    O     O_R   0.728290 0.500010 0.575040 -0.635186
Zn1   Zn    Zn3+2 0.500050 0.500000 0.581210 0.977626
Zn2   Zn    Zn3+2 0.499950 0.500000 0.418790 0.974604
O9    O     O_3   0.249638 0.439594 0.828369 -0.739327
H7    H     H_    0.153101 0.435168 0.792216 0.345085
O10   O     O_3   0.746694 0.563273 0.171270 -0.736768
H8    H     H_    0.843978 0.567422 0.206990 0.344897
C41   C     C_3   0.257023 0.417953 0.675538 -0.726680
H9    H     H_    0.286909 0.405153 0.622343 0.305336
H10   H     H_    0.244808 0.367591 0.703606 0.240318
H11   H     H_    0.141395 0.441705 0.668318 0.186452
C42   C     C_3   0.742333 0.582503 0.324557 -0.733341
H12   H     H_    0.713266 0.594830 0.378008 0.305891
H13   H     H_    0.858050 0.558821 0.331185 0.187916
H14   H     H_    0.753993 0.633133 0.296948 0.238853
O11   O     O_3   0.595720 0.389160 0.928003 -0.731550
H15   H     H_    0.560464 0.346287 0.951738 0.346750
O12   O     O_3   0.379205 0.613727 0.064079 -0.732165
H16   H     H_    0.374658 0.606262 0.116332 0.344880
C43   C     C_3   0.631330 0.387755 0.087717 -0.812029
H17   H     H_    0.716622 0.410197 0.133378 0.247823
H18   H     H_    0.538281 0.355426 0.110079 0.251824
H19   H     H_    0.700462 0.354289 0.057722 0.247541
C44   C     C_3   0.382291 0.620699 0.915539 -0.687111
H20   H     H_    0.453062 0.668080 0.936632 0.259359
H21   H     H_    0.388490 0.617350 0.856596 0.198629
H22   H     H_    0.256728 0.626182 0.922009 0.255081
O13   O     O_3   0.591322 0.715306 0.382760 -0.766533
H23   H     H_    0.619879 0.749978 0.346686 0.336342
O14   O     O_3   0.407808 0.284758 0.617110 -0.763548
H24   H     H_    0.379008 0.250103 0.653150 0.337091
O15   O     O_3   0.394564 0.706654 0.615236 -0.742498
H25   H     H_    0.364295 0.738751 0.651540 0.331359
O16   O     O_3   0.605499 0.293281 0.384854 -0.741169
H26   H     H_    0.635808 0.261163 0.348580 0.331411
C45   C     C_3   0.791010 0.930964 0.552975 -0.885051
H27   H     H_    0.833625 0.946673 0.610060 0.244942
H28   H     H_    0.776640 0.873826 0.552870 0.248142
H29   H     H_    0.883216 0.945247 0.518325 0.239218
C46   C     C_3   0.208309 0.069022 0.447036 -0.885566
H30   H     H_    0.222721 0.126160 0.447072 0.248072
H31   H     H_    0.165673 0.053260 0.389968 0.244872
H32   H     H_    0.116104 0.054794 0.481703 0.239303
C47   C     C_3   0.793205 0.084142 0.548695 -0.869807
H33   H     H_    0.825101 0.116252 0.502773 0.240887
H34   H     H_    0.773349 0.118649 0.593572 0.249018
H35   H     H_    0.897671 0.055137 0.568962 0.241521
C48   C     C_3   0.206067 0.915842 0.451408 -0.869959
H36   H     H_    0.225845 0.881360 0.406497 0.248828
H37   H     H_    0.174280 0.883706 0.497332 0.240888
H38   H     H_    0.101561 0.944848 0.431206 0.241602
C49   C     C_3   0.748166 0.578786 0.704981 -0.784108
H39   H     H_    0.711968 0.596543 0.649643 0.281793
H40   H     H_    0.776599 0.627225 0.737101 0.221740
H41   H     H_    0.856528 0.549735 0.706909 0.212932
C50   C     C_3   0.253066 0.420378 0.295007 -0.785914
H42   H     H_    0.288250 0.403548 0.350726 0.282447
H43   H     H_    0.143367 0.448647 0.292080 0.208726
H44   H     H_    0.227340 0.371481 0.263470 0.223105
O17   O     O_3   0.753267 0.560793 0.859496 -0.734119
H45   H     H_    0.850446 0.561066 0.836417 0.351763
O18   O     O_3   0.247243 0.438687 0.140493 -0.741641
H46   H     H_    0.150268 0.437244 0.163786 0.350254

loop_
_geom_bond_atom_site_label_1
_geom_bond_atom_site_label_2
_ccdc_geom_bond_type
C38   C40   A    
O15   H25   S    
C41   H10   S    
O12   H16   S    
C19   O11   S    
C46   H30   S    
C46   H32   S    
O14   H24   S    
C38   O16   S    
C31   H3    S    
O13   H23   S    
C49   H41   S    
C35   C37   A    
C22   C44   S    
C29   O13   S    
N1    Zn1   S    
C20   C25   A    
C24   O6    A    
O17   H45   S    
O1    Zn1   S    
O8    Zn1   S    
C3    C45   S    
C28   H2    S    
C19   C26   A    
C2    O2    A    
C1    C40   S    
C2    C39   S    
C48   H37   S    
C5    C47   S    
C49   H39   S    
C31   C33   A    
C36   H6    S    
C23   C27   S    
C48   H38   S    
C11   O17   S    
C41   H11   S    
O9    H7    S    
C49   H40   S    
C4    C7    A    
C10   C12   A    
C23   O5    A    
C37   C39   A    
C42   H12   S    
O2    Zn2   S    
C24   C28   S    
C44   H20   S    
C4    C6    A    
C3    C8    A    
C45   H27   S    
C5    C7    A    
O5    Zn1   S    
C6    C8    A    
C18   C42   S    
C41   H9    S    
C42   H13   S    
C32   C34   A    
C43   H17   S    
C45   H28   S    
C4    C46   S    
C43   H18   S    
C27   H1    S    
C47   H33   S    
C29   C39   A    
C32   H4    S    
C30   C40   A    
C10   C50   S    
C50   H43   S    
O3    Zn2   S    
C6    C48   S    
C30   O14   S    
N2    Zn2   S    
C1    O3    A    
C2    O4    A    
C47   H34   S    
C12   C14   A    
C9    N1    A    
C9    C11   A    
C10   N2    A    
C7    C34   S    
C14   C16   A    
C13   C26   S    
C24   O8    A    
C16   O10   S    
C35   H5    S    
C48   H36   S    
C44   H21   S    
O6    Zn2   S    
C15   C17   A    
C21   C25   A    
C50   H42   S    
C19   C21   A    
C15   O9    S    
C37   O15   S    
C17   N1    A    
C20   C22   A    
C3    C5    A    
C18   N2    A    
C44   H22   S    
C46   H31   S    
C23   O7    A    
C9    C49   S    
C21   C43   S    
C42   H14   S    
C13   C15   A    
O11   H15   S    
C29   C31   A    
O18   H46   S    
C17   C41   S    
C45   H29   S    
C30   C32   A    
C11   C13   A    
C36   C38   A    
C33   C35   A    
C20   O12   S    
C50   H44   S    
C34   C36   A    
C8    C33   S    
C14   C25   S    
O10   H8    S    
C43   H19   S    
O4    Zn1   S    
C12   O18   S    
C47   H35   S    
C16   C18   A    
C22   C26   A    
O7    Zn2   S    
C27   C28   D    
O16   H26   S    
C1    O1    A    
