data_mof_unit_18954.cif
_audit_creation_date              2012-12-11T14:04:12-0500
_audit_creation_method            fapswitch 2.2
_symmetry_space_group_name_H-M    P1
_symmetry_Int_Tables_number       1
_space_group_crystal_system       triclinic
_cell_length_a                    18.897242
_cell_length_b                    10.993187
_cell_length_c                    18.741457
_cell_angle_alpha                 89.676127
_cell_angle_beta                  89.771391
_cell_angle_gamma                 90.011195
_cell_volume                      3893.27414313

loop_
_atom_site_label
_atom_site_type_symbol
_atom_type_description
_atom_site_fract_x
_atom_site_fract_y
_atom_site_fract_z
_atom_type_partial_charge
C1    C     C_R   0.226982 0.513720 0.637628 0.567271
C2    C     C_R   0.772299 0.511243 0.362252 0.569223
C3    C     C_R   0.726981 0.013722 0.637628 0.567272
C4    C     C_R   0.272299 0.011243 0.362252 0.569223
C5    C     C_2   0.301287 0.877546 0.544312 -0.166450
C6    C     C_2   0.693478 0.889353 0.453282 -0.169506
C7    C     C_2   0.801287 0.377546 0.544312 -0.166449
C8    C     C_2   0.193478 0.389353 0.453282 -0.169507
C9    C     C_R   0.008689 0.657696 0.423590 -0.033595
C10   C     C_R   0.996297 0.667165 0.573422 -0.039410
C11   C     C_R   0.508689 0.157696 0.423589 -0.033595
C12   C     C_R   0.496297 0.167165 0.573422 -0.039410
C13   C     C_R   0.038430 0.873788 0.419822 -0.075588
C14   C     C_R   0.008436 0.892760 0.565050 -0.069035
C15   C     C_R   0.538430 0.373789 0.419822 -0.075587
C16   C     C_R   0.508436 0.392760 0.565050 -0.069036
C17   C     C_R   0.047020 0.984496 0.454156 -0.127607
C18   C     C_R   0.030227 0.994823 0.526209 -0.127019
C19   C     C_R   0.547020 0.484496 0.454157 -0.127607
C20   C     C_R   0.530227 0.494822 0.526209 -0.127019
C21   C     C_R   0.006732 0.776455 0.533128 0.009369
C22   C     C_R   0.016848 0.769617 0.458268 0.009178
C23   C     C_R   0.506732 0.276455 0.533128 0.009369
C24   C     C_R   0.516848 0.269617 0.458268 0.009178
C25   C     C_R   0.986382 0.556388 0.536686 0.009526
C26   C     C_R   0.006692 0.549595 0.464923 0.017367
C27   C     C_R   0.486382 0.056388 0.536686 0.009526
C28   C     C_R   0.506693 0.049595 0.464923 0.017368
C29   C     C_R   0.963320 0.448784 0.571554 -0.074349
C30   C     C_R   0.021052 0.433819 0.435586 -0.085743
C31   C     C_R   0.463321 0.948784 0.571554 -0.074350
C32   C     C_R   0.521053 0.933819 0.435585 -0.085742
C33   C     C_R   0.973418 0.335440 0.540308 -0.141552
C34   C     C_R   0.004233 0.327996 0.473077 -0.152441
C35   C     C_R   0.473419 0.835440 0.540308 -0.141553
C36   C     C_R   0.504234 0.827996 0.473077 -0.152441
C37   C     C_2   0.257858 0.936878 0.913763 -0.102807
C38   C     C_2   0.761335 0.897165 0.070955 -0.102982
C39   C     C_2   0.757859 0.436879 0.913763 -0.102809
C40   C     C_2   0.261335 0.397164 0.070955 -0.102981
C41   C     C_2   0.272278 0.987878 0.066432 -0.099408
C42   C     C_2   0.752301 0.895091 0.914651 -0.108444
C43   C     C_2   0.772276 0.487873 0.066433 -0.099409
C44   C     C_2   0.252300 0.395091 0.914651 -0.108445
C45   C     C_R   0.228616 0.878274 0.649798 0.553559
C46   C     C_R   0.771232 0.878433 0.350132 0.555580
C47   C     C_R   0.728616 0.378274 0.649798 0.553559
C48   C     C_R   0.271233 0.378433 0.350132 0.555581
C49   C     C_2   0.236413 0.059658 0.021281 -0.162479
C50   C     C_2   0.812063 0.913341 0.950460 -0.154225
C51   C     C_2   0.736415 0.559656 0.021281 -0.162487
C52   C     C_2   0.312063 0.413340 0.950460 -0.154224
C53   C     C_2   0.221020 0.023300 0.947820 -0.152392
C54   C     C_2   0.817001 0.887854 0.026249 -0.152465
C55   C     C_2   0.721020 0.523298 0.947821 -0.152395
C56   C     C_2   0.317001 0.387852 0.026249 -0.152464
C57   C     C_2   0.043845 0.655011 0.933175 -0.095469
C58   C     C_2   0.017451 0.664241 0.087160 -0.108977
C59   C     C_2   0.543847 0.155012 0.933175 -0.095472
C60   C     C_2   0.517451 0.164241 0.087160 -0.108977
C61   C     C_2   0.041091 0.565027 0.053121 -0.154838
C62   C     C_2   0.065281 0.568427 0.978709 -0.166364
C63   C     C_2   0.541090 0.065025 0.053120 -0.154839
C64   C     C_2   0.565278 0.068424 0.978708 -0.166366
C65   C     C_R   0.027347 0.656060 0.645893 0.534241
C66   C     C_R   0.973833 0.654016 0.352989 0.526503
C67   C     C_R   0.527347 0.156059 0.645893 0.534242
C68   C     C_R   0.473833 0.154016 0.352989 0.526503
C69   C     C_R   0.239485 0.462735 0.849528 0.557352
C70   C     C_R   0.775904 0.518541 0.141363 0.573333
C71   C     C_R   0.739485 0.962735 0.849528 0.557353
C72   C     C_R   0.275905 0.018542 0.141363 0.573335
C73   C     C_R   0.228714 0.876439 0.851557 0.550018
C74   C     C_R   0.773906 0.870738 0.145417 0.546273
C75   C     C_R   0.728714 0.376439 0.851557 0.550019
C76   C     C_R   0.273906 0.370738 0.145417 0.546273
C77   C     C_R   0.062188 0.647542 0.858285 0.572820
C78   C     C_R   0.973011 0.652725 0.150485 0.541545
C79   C     C_R   0.562189 0.147542 0.858285 0.572822
C80   C     C_R   0.473011 0.152724 0.150485 0.541544
C81   C     C_2   0.256139 0.937121 0.586685 -0.109813
C82   C     C_2   0.743196 0.940705 0.411956 -0.110444
C83   C     C_2   0.756139 0.437122 0.586685 -0.109812
C84   C     C_2   0.243196 0.440705 0.411956 -0.110445
C85   C     C_2   0.261078 0.967167 0.433863 -0.112320
C86   C     C_2   0.736500 0.972745 0.564972 -0.112215
C87   C     C_2   0.761078 0.467168 0.433863 -0.112320
C88   C     C_2   0.236500 0.472741 0.564973 -0.112214
C89   C     C_2   0.313724 0.918077 0.471364 -0.162840
C90   C     C_2   0.682102 0.931390 0.526372 -0.163500
C91   C     C_2   0.813724 0.418077 0.471364 -0.162840
C92   C     C_2   0.182102 0.431390 0.526372 -0.163501
Cr1   Cr    Cr6+3 0.113970 0.508630 0.747920 1.013395
Cr2   Cr    Cr6+3 0.886030 0.508630 0.252080 1.018921
Cr3   Cr    Cr6+3 0.613970 0.008630 0.747920 1.013394
Cr4   Cr    Cr6+3 0.386030 0.008630 0.252080 1.018921
Cr5   Cr    Cr6+3 0.269200 0.666740 0.749850 1.008362
Cr6   Cr    Cr6+3 0.730800 0.666740 0.250150 1.004265
Cr7   Cr    Cr6+3 0.769200 0.166740 0.749850 1.008361
Cr8   Cr    Cr6+3 0.230800 0.166740 0.250150 1.004264
Cr9   Cr    Cr6+3 0.112300 0.820070 0.749800 1.010573
Cr10  Cr    Cr6+3 0.887700 0.820070 0.250200 1.016511
Cr11  Cr    Cr6+3 0.612300 0.320070 0.749800 1.010573
Cr12  Cr    Cr6+3 0.387700 0.320070 0.250200 1.016511
H1    H     H_    0.364704 0.900706 0.446853 0.178557
H2    H     H_    0.630068 0.920176 0.550222 0.174838
H3    H     H_    0.864704 0.400704 0.446853 0.178557
H4    H     H_    0.130067 0.420182 0.550220 0.174838
H5    H     H_    0.173780 0.062067 0.923922 0.152723
H6    H     H_    0.869832 0.869660 0.046496 0.152940
H7    H     H_    0.673779 0.562063 0.923924 0.152725
H8    H     H_    0.369832 0.369656 0.046496 0.152939
H9    H     H_    0.297578 0.904344 0.049460 0.110621
H10   H     H_    0.708757 0.843899 0.938115 0.090976
H11   H     H_    0.797566 0.404330 0.049462 0.110626
H12   H     H_    0.208757 0.343899 0.938115 0.090976
H13   H     H_    0.037199 0.475746 0.077973 0.154130
H14   H     H_    0.095416 0.491164 0.959193 0.131594
H15   H     H_    0.537196 0.975744 0.077972 0.154131
H16   H     H_    0.595409 0.991157 0.959191 0.131598
H17   H     H_    0.025031 0.754752 0.065029 0.102959
H18   H     H_    0.012100 0.731794 0.950301 0.104433
H19   H     H_    0.525032 0.254751 0.065030 0.102958
H20   H     H_    0.512108 0.231800 0.950302 0.104433
H21   H     H_    0.325818 0.792883 0.561187 0.149469
H22   H     H_    0.664583 0.809462 0.435890 0.144414
H23   H     H_    0.825817 0.292882 0.561187 0.149468
H24   H     H_    0.164582 0.309464 0.435889 0.144415
H25   H     H_    0.208490 0.977692 0.456745 0.117258
H26   H     H_    0.789596 0.977784 0.542648 0.113094
H27   H     H_    0.708490 0.477695 0.456745 0.117258
H28   H     H_    0.289597 0.477774 0.542650 0.113094
H29   H     H_    0.232410 0.022848 0.570323 0.110005
H30   H     H_    0.770173 0.023096 0.428539 0.113210
H31   H     H_    0.732411 0.522849 0.570323 0.110004
H32   H     H_    0.270175 0.523094 0.428541 0.113211
H33   H     H_    0.066566 0.062091 0.424404 0.108429
H34   H     H_    0.034954 0.081743 0.552428 0.108092
H35   H     H_    0.566566 0.562091 0.424404 0.108429
H36   H     H_    0.534954 0.581742 0.552428 0.108091
H37   H     H_    0.051934 0.868640 0.363706 0.131662
H38   H     H_    0.992506 0.906539 0.619848 0.137696
H39   H     H_    0.551934 0.368640 0.363706 0.131662
H40   H     H_    0.492505 0.406538 0.619848 0.137696
H41   H     H_    0.045130 0.424777 0.383350 0.138634
H42   H     H_    0.939075 0.451993 0.623989 0.138927
H43   H     H_    0.545130 0.924778 0.383349 0.138634
H44   H     H_    0.439075 0.951992 0.623988 0.138927
H45   H     H_    0.957503 0.253701 0.568479 0.106609
H46   H     H_    0.012841 0.240718 0.448768 0.109010
H47   H     H_    0.457503 0.753701 0.568479 0.106609
H48   H     H_    0.512841 0.740718 0.448767 0.109010
H49   H     H_    0.210559 0.141219 0.040992 0.140390
H50   H     H_    0.857252 0.957905 0.925561 0.156676
H51   H     H_    0.710566 0.641220 0.040990 0.140392
H52   H     H_    0.357252 0.457904 0.925562 0.156677
O1    O     O_R   0.043230 0.549300 0.667990 -0.523229
O2    O     O_R   0.956770 0.549300 0.332010 -0.530556
O3    O     O_R   0.543230 0.049300 0.667990 -0.523229
O4    O     O_R   0.456770 0.049300 0.332010 -0.530556
O5    O     O_R   0.262920 0.788600 0.824420 -0.498534
O6    O     O_R   0.737080 0.788600 0.175580 -0.519678
O7    O     O_R   0.762920 0.288600 0.824420 -0.498534
O8    O     O_R   0.237080 0.288600 0.175580 -0.519678
O9    O     O_R   0.167530 0.905110 0.830340 -0.520386
O10   O     O_R   0.832470 0.905110 0.169660 -0.506324
O11   O     O_R   0.667530 0.405110 0.830340 -0.520386
O12   O     O_R   0.332470 0.405110 0.169660 -0.506323
O13   O     O_R   0.054010 0.748440 0.822860 -0.497590
O14   O     O_R   0.945990 0.748440 0.177140 -0.505228
O15   O     O_R   0.554010 0.248440 0.822860 -0.497591
O16   O     O_R   0.445990 0.248440 0.177140 -0.505228
O17   O     O_3   0.165160 0.665150 0.749190 -0.278867
O18   O     O_3   0.834840 0.665150 0.250810 -0.280208
O19   O     O_3   0.665160 0.165150 0.749190 -0.278869
O20   O     O_3   0.334840 0.165150 0.250810 -0.280209
O21   O     O_R   0.178620 0.457600 0.674100 -0.488974
O22   O     O_R   0.821380 0.457600 0.325900 -0.482713
O23   O     O_R   0.678620 0.957600 0.674100 -0.488974
O24   O     O_R   0.321380 0.957600 0.325900 -0.482713
O25   O     O_R   0.284680 0.542100 0.669460 -0.519551
O26   O     O_R   0.715320 0.542100 0.330540 -0.519331
O27   O     O_R   0.784680 0.042100 0.669460 -0.519550
O28   O     O_R   0.215320 0.042100 0.330540 -0.519331
O29   O     O_R   0.262860 0.790390 0.676650 -0.514421
O30   O     O_R   0.737140 0.790390 0.323350 -0.513303
O31   O     O_R   0.762860 0.290390 0.676650 -0.514422
O32   O     O_R   0.237140 0.290390 0.323350 -0.513302
O33   O     O_R   0.167460 0.907030 0.670940 -0.510513
O34   O     O_R   0.832540 0.907030 0.329060 -0.503597
O35   O     O_R   0.667460 0.407030 0.670940 -0.510513
O36   O     O_R   0.332540 0.407030 0.329060 -0.503597
O37   O     O_R   0.053950 0.750220 0.675100 -0.501537
O38   O     O_R   0.946050 0.750220 0.324900 -0.495359
O39   O     O_R   0.553950 0.250220 0.675100 -0.501537
O40   O     O_R   0.446050 0.250220 0.324900 -0.495359
O41   O     O_R   0.043300 0.547370 0.827390 -0.504200
O42   O     O_R   0.956700 0.547370 0.172610 -0.520080
O43   O     O_R   0.543300 0.047370 0.827390 -0.504200
O44   O     O_R   0.456700 0.047370 0.172610 -0.520081
O45   O     O_R   0.178690 0.455820 0.821860 -0.515394
O46   O     O_R   0.821310 0.455820 0.178140 -0.487282
O47   O     O_R   0.678690 0.955820 0.821860 -0.515394
O48   O     O_R   0.321310 0.955820 0.178140 -0.487283
O49   O     O_R   0.284750 0.540170 0.828860 -0.506233
O50   O     O_R   0.715250 0.540170 0.171140 -0.498718
O51   O     O_R   0.784750 0.040170 0.828860 -0.506233
O52   O     O_R   0.215250 0.040170 0.171140 -0.498719
H53   H     H_    0.307515 0.902572 0.934561 0.107046
H54   H     H_    0.707865 0.914421 0.052528 0.086508
H55   H     H_    0.807517 0.402577 0.934560 0.107049
H56   H     H_    0.207865 0.414423 0.052528 0.086506

loop_
_geom_bond_atom_site_label_1
_geom_bond_atom_site_label_2
_ccdc_geom_bond_type
C70   O46   A    
C7    C83   D    
C14   H38   S    
Cr10  O14   S    
C6    C82   D    
C87   C91   D    
C14   C18   A    
Cr9   O17   S    
C35   C36   A    
C66   O2    A    
C43   C51   D    
Cr7   O31   S    
Cr8   O52   S    
C57   C62   D    
Cr12  O20   S    
C32   H43   S    
Cr11  O11   S    
C75   O11   A    
C12   C23   A    
C51   H51   S    
C59   C64   D    
C50   C54   S    
Cr11  O39   S    
C60   C63   D    
Cr3   O3    S    
C32   C36   A    
C14   C21   A    
C49   H49   S    
C16   H40   S    
C46   O34   A    
C48   O32   A    
Cr9   O33   S    
C2    O26   A    
Cr6   O18   S    
C9    C22   A    
Cr5   O29   S    
Cr3   O47   S    
C80   O44   A    
C29   C33   A    
C11   C24   A    
C78   O14   A    
C63   H15   S    
C54   H6    S    
C37   H53   S    
C75   O7    A    
Cr2   O22   S    
C79   O15   A    
C18   H34   S    
C3    O23   A    
C9    C66   S    
Cr3   O19   S    
C43   H11   S    
C57   H18   S    
C46   C82   S    
C52   C56   S    
C1    O21   A    
C92   H4    S    
C39   C55   D    
C88   C92   D    
Cr9   O37   S    
C40   C56   D    
C71   O47   A    
Cr8   O20   S    
C73   O5    A    
C23   C24   A    
Cr9   O13   S    
C8    C92   S    
C39   C75   S    
Cr1   O45   S    
Cr7   O27   S    
C72   O48   A    
C37   C53   D    
C44   C52   D    
C58   C61   D    
C71   O51   A    
Cr10  O10   S    
C21   C22   A    
C3    C86   S    
Cr11  O15   S    
Cr8   O32   S    
C61   C62   S    
C35   H47   S    
C4    O24   A    
C67   O39   A    
Cr10  O38   S    
C41   C49   D    
Cr6   O6    S    
C8    H24   S    
C9    C26   A    
Cr4   O48   S    
C65   O37   A    
C10   C21   A    
C25   C29   A    
C69   O45   A    
C12   C67   S    
C45   C81   S    
C79   O43   A    
C30   C34   A    
C12   C27   A    
C61   H13   S    
C57   C77   S    
C28   C32   A    
Cr5   O17   S    
C6    H22   S    
C72   O52   A    
C86   C90   D    
C59   C79   S    
C29   H42   S    
C74   O6    A    
Cr1   O21   S    
C86   H26   S    
C4    C85   S    
C51   C55   S    
C25   C26   A    
C6    C90   S    
C27   C31   A    
C46   O30   A    
C48   C84   S    
C48   O36   A    
Cr7   O51   S    
Cr2   O42   S    
C88   H28   S    
C81   H29   S    
C82   H30   S    
C60   H19   S    
C15   C19   A    
C42   H10   S    
Cr8   O8    S    
C15   H39   S    
C85   H25   S    
Cr12  O12   S    
C5    C81   D    
C38   C54   D    
C16   C20   A    
C7    C91   S    
Cr11  O19   S    
C17   C18   A    
Cr12  O40   S    
C39   H55   S    
C2    C87   S    
C68   O40   A    
C85   C89   D    
C38   H54   S    
Cr1   O1    S    
C90   H2    S    
C87   H27   S    
C42   C50   D    
C41   C72   S    
Cr2   O46   S    
C31   H44   S    
C50   H50   S    
C10   C25   A    
C65   O1    A    
C15   C24   A    
Cr4   O4    S    
C73   O9    A    
Cr2   O18   S    
C26   C30   A    
C16   C23   A    
Cr5   O5    S    
Cr7   O7    S    
C76   O8    A    
Cr11  O35   S    
C80   O16   A    
C47   O31   A    
C68   O4    A    
Cr12  O16   S    
C74   O10   A    
C11   C68   S    
C30   H41   S    
C38   C74   S    
C10   C65   S    
Cr3   O23   S    
C59   H20   S    
Cr4   O44   S    
C77   O13   A    
C37   C73   S    
C60   C80   S    
C58   H17   S    
C1    O25   A    
Cr4   O20   S    
C55   H7    S    
C8    C84   D    
C83   H31   S    
C13   H37   S    
C36   H48   S    
C41   H9    S    
C47   C83   S    
Cr2   O2    S    
C67   O3    A    
Cr5   O25   S    
Cr10  O18   S    
C70   O50   A    
Cr6   O26   S    
C43   C70   S    
C78   O42   A    
C40   H56   S    
C69   O49   A    
C64   H16   S    
C13   C17   A    
Cr5   O49   S    
C89   H1    S    
Cr4   O24   S    
C19   C20   A    
C17   H33   S    
Cr6   O30   S    
C33   H45   S    
Cr9   O9    S    
C45   O29   A    
C20   H36   S    
C3    O27   A    
C11   C28   A    
C1    C88   S    
C49   C53   S    
Cr1   O41   S    
Cr1   O17   S    
C42   C71   S    
Cr10  O34   S    
C33   C34   A    
C13   C22   A    
C76   O12   A    
C31   C35   A    
C34   H46   S    
C47   O35   A    
C52   H52   S    
Cr8   O28   S    
C62   H14   S    
C58   C78   S    
C63   C64   S    
C40   C76   S    
Cr7   O19   S    
C44   H12   S    
Cr3   O43   S    
C5    H21   S    
C27   C28   A    
C45   O33   A    
C44   C69   S    
Cr6   O50   S    
C53   H5    S    
C2    O22   A    
C7    H23   S    
C66   O38   A    
C77   O41   A    
C56   H8    S    
C19   H35   S    
C5    C89   S    
C4    O28   A    
C84   H32   S    
C91   H3    S    
Cr12  O36   S    
