data_mof_unit_9106.cif
_audit_creation_date              2012-12-10T17:30:19-0500
_audit_creation_method            fapswitch 2.2
_symmetry_space_group_name_H-M    P1
_symmetry_Int_Tables_number       1
_space_group_crystal_system       triclinic
_cell_length_a                    11.990469
_cell_length_b                    12.820637
_cell_length_c                    14.943871
_cell_angle_alpha                 90.283088
_cell_angle_beta                  86.110476
_cell_angle_gamma                 94.609497
_cell_volume                      2284.54854555

loop_
_atom_site_label
_atom_site_type_symbol
_atom_type_description
_atom_site_fract_x
_atom_site_fract_y
_atom_site_fract_z
_atom_type_partial_charge
C1    C     C_R   0.523416 0.700596 0.501155 0.870795
C2    C     C_R   0.376727 0.134486 0.444071 0.076330
C3    C     C_R   0.459989 0.866610 0.465405 -0.284697
C4    C     C_R   0.540014 0.133390 0.534590 -0.284694
C5    C     C_R   0.459280 0.973066 0.475101 0.144275
C6    C     C_R   0.540723 0.026934 0.524893 0.144274
C7    C     C_R   0.956309 0.430115 0.398006 -0.342876
C8    C     C_R   0.043691 0.569883 0.601994 -0.342863
C9    C     C_R   0.839638 0.433115 0.410113 0.030929
C10   C     C_R   0.160362 0.566884 0.589887 0.030928
C11   C     C_R   0.857207 0.526089 0.546734 -0.065810
C12   C     C_R   0.476583 0.299404 0.498844 0.870798
C13   C     C_R   0.142793 0.473910 0.453266 -0.065807
C14   C     C_R   0.974971 0.524288 0.537777 0.098695
C15   C     C_R   0.025029 0.475711 0.462224 0.098698
C16   C     C_R   0.499312 0.495415 0.672766 0.883903
C17   C     C_R   0.500688 0.504585 0.327233 0.883903
C18   C     C_R   0.438786 0.429401 0.191197 -0.301220
C19   C     C_R   0.561216 0.570597 0.808803 -0.301220
C20   C     C_R   0.501437 0.509655 0.231873 -0.083056
C21   C     C_R   0.498564 0.490344 0.768127 -0.083054
C22   C     C_R   0.563171 0.591119 0.182280 0.034510
C23   C     C_R   0.623395 0.657452 0.940528 -0.218267
C24   C     C_R   0.436831 0.408880 0.817720 0.034511
C25   C     C_R   0.563025 0.586992 0.087814 0.098321
C26   C     C_R   0.436978 0.413006 0.912186 0.098322
C27   C     C_R   0.500364 0.503035 0.046816 0.035482
C28   C     C_R   0.499639 0.496963 0.953183 0.035483
C29   C     C_R   0.438093 0.425017 0.099258 0.129659
C30   C     C_R   0.561910 0.574981 0.900742 0.129659
C31   C     C_R   0.623992 0.663703 0.032939 -0.233511
C32   C     C_R   0.376011 0.336295 0.967061 -0.233515
C33   C     C_3   0.624534 0.682657 0.229526 -0.429095
C34   C     C_R   0.376610 0.342546 0.059472 -0.218266
C35   C     C_3   0.557642 0.779907 0.230823 -0.361954
C36   C     C_3   0.626087 0.875579 0.265141 -0.868153
C37   C     C_3   0.375466 0.317343 0.770473 -0.429100
C38   C     C_3   0.442359 0.220093 0.769174 -0.361958
C39   C     C_3   0.373914 0.124421 0.734857 -0.868155
C40   C     C_3   0.291550 0.194958 0.398707 -0.381969
C41   C     C_3   0.218101 0.132112 0.333664 -0.377329
C42   C     C_3   0.140287 0.201990 0.289754 -0.906909
C43   C     C_3   0.708433 0.805039 0.601310 -0.381958
C44   C     C_3   0.781866 0.867884 0.666367 -0.377302
C45   C     C_R   0.460510 0.187268 0.494088 -0.100112
C46   C     C_3   0.859653 0.798000 0.710307 -0.906892
C47   C     C_R   0.539490 0.812731 0.505911 -0.100109
C48   C     C_R   0.622544 0.974263 0.564083 -0.216973
C49   C     C_R   0.377456 0.025736 0.435914 -0.216968
C50   C     C_R   0.623269 0.865512 0.555932 0.076329
H1    H     H_    0.391859 0.368736 0.231774 0.138614
H2    H     H_    0.396889 0.824783 0.427022 0.157866
H3    H     H_    0.684014 0.019069 0.601403 0.132033
H4    H     H_    0.315987 0.980930 0.398594 0.132031
H5    H     H_    0.182614 0.435320 0.396449 0.133437
H6    H     H_    0.817386 0.564679 0.603551 0.133438
H7    H     H_    0.213133 0.601419 0.639845 0.140354
H8    H     H_    0.786867 0.398580 0.360155 0.140354
H9    H     H_    0.655555 0.859737 0.332218 0.271215
H10   H     H_    0.699924 0.896486 0.217868 0.255712
H11   H     H_    0.573400 0.943009 0.270674 0.255140
H12   H     H_    0.608144 0.631262 0.768226 0.138614
H13   H     H_    0.532510 0.797495 0.162691 0.229805
H14   H     H_    0.479923 0.764744 0.275255 0.219280
H15   H     H_    0.639216 0.664635 0.299822 0.222734
H16   H     H_    0.710215 0.699454 0.197309 0.198825
H17   H     H_    0.300081 0.103511 0.782133 0.255712
H18   H     H_    0.344440 0.140263 0.667782 0.271215
H19   H     H_    0.426603 0.056991 0.729320 0.255141
H20   H     H_    0.520076 0.235257 0.724740 0.219282
H21   H     H_    0.467494 0.202506 0.837304 0.229807
H22   H     H_    0.289786 0.300543 0.802692 0.198827
H23   H     H_    0.992267 0.393525 0.338576 0.147763
H24   H     H_    0.360782 0.335365 0.700179 0.222735
H25   H     H_    0.081868 0.234038 0.341686 0.262458
H26   H     H_    0.189375 0.267483 0.253027 0.255199
H27   H     H_    0.090327 0.155378 0.241501 0.255045
H28   H     H_    0.272252 0.096904 0.280218 0.224522
H29   H     H_    0.165232 0.068997 0.370581 0.226204
H30   H     H_    0.235527 0.228585 0.451721 0.219913
H31   H     H_    0.338002 0.260329 0.360003 0.198515
H32   H     H_    0.810541 0.732535 0.747052 0.255193
H33   H     H_    0.918064 0.765915 0.658388 0.262446
H34   H     H_    0.007734 0.606472 0.661425 0.147750
H35   H     H_    0.909625 0.844618 0.758548 0.255039
H36   H     H_    0.834759 0.930989 0.629455 0.226194
H37   H     H_    0.727701 0.903103 0.719799 0.224517
H38   H     H_    0.661969 0.739668 0.640007 0.198514
H39   H     H_    0.764468 0.771411 0.548302 0.219896
H40   H     H_    0.672712 0.729587 0.059787 0.158948
H41   H     H_    0.327293 0.270410 0.940212 0.158948
H42   H     H_    0.670991 0.717695 0.899987 0.148187
H43   H     H_    0.329014 0.282302 0.100012 0.148192
H44   H     H_    0.603115 0.175217 0.572972 0.157867
N1    N     N_R   0.207800 0.519350 0.516680 -0.102946
N2    N     N_R   0.792200 0.480650 0.483320 -0.102945
O1    O     O_R   0.421700 0.658830 0.504450 -0.611130
O2    O     O_R   0.578300 0.341170 0.495550 -0.611131
O3    O     O_R   0.609310 0.646410 0.493750 -0.638518
O4    O     O_R   0.390690 0.353590 0.506250 -0.638520
O5    O     O_R   0.406180 0.506230 0.637500 -0.634683
O6    O     O_R   0.593820 0.493770 0.362500 -0.634682
O7    O     O_R   0.593800 0.493820 0.626800 -0.624349
O8    O     O_R   0.406200 0.506180 0.373200 -0.624351
Zn1   Zn    Zn3+2 0.374730 0.508290 0.507150 0.928878
Zn2   Zn    Zn3+2 0.625270 0.491710 0.492850 0.928880

loop_
_geom_bond_atom_site_label_1
_geom_bond_atom_site_label_2
_ccdc_geom_bond_type
C11   N2    A    
C25   C31   A    
C37   H24   S    
C38   H20   S    
C26   C32   A    
C16   C21   S    
C27   C29   A    
C39   H18   S    
C35   C36   S    
C34   H43   S    
C43   C44   S    
C36   H9    S    
C1    O3    A    
C33   H15   S    
C7    H23   S    
C26   C28   A    
O4    Zn1   S    
C43   H39   S    
C6    C48   A    
C13   N1    A    
C43   H38   S    
C19   C21   A    
C17   O8    A    
C24   C26   A    
C38   C39   S    
C11   C14   A    
C32   H41   S    
C19   H12   S    
C49   H4    S    
C17   C20   S    
C9    H8    S    
C41   C42   S    
C3    C47   A    
C22   C33   S    
N1    Zn1   S    
C46   H32   S    
C22   C25   A    
C18   H1    S    
C40   H30   S    
C35   H14   S    
C44   H37   S    
C12   O2    A    
C46   H35   S    
O1    Zn1   S    
C48   C50   A    
C42   H25   S    
C5    C49   A    
C44   H36   S    
O8    Zn1   S    
C44   C46   S    
C33   H16   S    
C47   C50   A    
C4    C45   A    
C2    C45   A    
O5    Zn1   S    
C48   H3    S    
C23   C30   A    
C10   H7    S    
C4    C6    A    
C1    O1    A    
C41   H28   S    
C1    C47   S    
C3    C5    A    
C29   C34   A    
C32   C34   A    
C17   O6    A    
C37   C38   S    
C2    C49   A    
C16   O7    A    
C14   C15   A    
C31   H40   S    
C24   C37   S    
C39   H19   S    
C18   C29   A    
C9    N2    A    
C4    H44   S    
C40   C41   S    
C20   C22   A    
C13   C15   A    
C37   H22   S    
C36   H11   S    
C7    C9    A    
O3    Zn2   S    
N2    Zn2   S    
C38   H21   S    
C8    C14   A    
C8    H34   S    
C39   H17   S    
C40   H31   S    
C12   C45   S    
C36   H10   S    
C41   H29   S    
C3    H2    S    
C43   C50   S    
C25   C27   A    
C42   H26   S    
O2    Zn2   S    
C28   C30   A    
C5    C6    A    
C10   N1    A    
C7    C15   A    
C33   C35   S    
O6    Zn2   S    
O7    Zn2   S    
C18   C20   A    
C12   O4    A    
C46   H33   S    
C2    C40   S    
C16   O5    A    
C42   H27   S    
C8    C10   A    
C21   C24   A    
C27   C28   A    
C23   H42   S    
C35   H13   S    
C19   C30   A    
C11   H6    S    
C23   C31   A    
C13   H5    S    
