data_mof_unit_62629.cif
_audit_creation_date              2013-03-05T16:00:20-0500
_audit_creation_method            fapswitch 2.2
_symmetry_space_group_name_H-M    P1
_symmetry_Int_Tables_number       1
_space_group_crystal_system       triclinic
_cell_length_a                    42.630937
_cell_length_b                    29.424871
_cell_length_c                    29.419618
_cell_angle_alpha                 90.000086
_cell_angle_beta                  133.883628
_cell_angle_gamma                 89.999386
_cell_volume                      26598.7149502

loop_
_atom_site_label
_atom_site_type_symbol
_atom_site_description
_atom_site_fract_x
_atom_site_fract_y
_atom_site_fract_z
_atom_type_partial_charge
O1    O     O_R   0.500410 0.561970 0.536310 -0.563018
O2    O     O_R   0.500410 0.438030 0.536310 -0.562822
O3    O     O_R   0.000410 0.061970 0.536310 -0.563014
O4    O     O_R   0.000410 0.938030 0.536310 -0.562820
O5    O     O_R   0.499540 0.561910 0.463710 -0.559731
O6    O     O_R   0.499540 0.438090 0.463710 -0.559776
O7    O     O_R   0.999540 0.061910 0.463710 -0.559754
O8    O     O_R   0.999540 0.938090 0.463710 -0.559765
C1    C     C_R   0.499980 0.585484 0.499999 0.826451
C2    C     C_R   0.499980 0.414516 0.499998 0.827164
C3    C     C_R   0.999980 0.085484 0.499999 0.826453
C4    C     C_R   0.999980 0.914516 0.499998 0.827177
O9    O     O_R   0.439190 0.500000 0.475090 -0.583605
O10   O     O_R   0.939190 0.000000 0.475090 -0.583588
O11   O     O_R   0.438320 0.500000 0.402480 -0.566097
O12   O     O_R   0.938320 0.000000 0.402480 -0.566139
C5    C     C_R   0.418283 0.499989 0.418490 0.859460
C6    C     C_R   0.918283 0.000012 0.418491 0.859480
Cu1   Cu    Cu3+1 0.500480 0.500000 0.542990 0.958039
Cu2   Cu    Cu3+1 0.000480 0.000000 0.542990 0.958055
Cu3   Cu    Cu3+1 0.499450 0.500000 0.457010 0.972530
Cu4   Cu    Cu3+1 0.999450 0.000000 0.457010 0.972489
O13   O     O_R   0.561610 0.500000 0.597520 -0.557703
O14   O     O_R   0.061610 0.000000 0.597520 -0.557702
O15   O     O_R   0.560740 0.500000 0.524910 -0.557740
O16   O     O_R   0.060740 0.000000 0.524910 -0.557741
C7    C     C_R   0.584599 0.500000 0.584475 0.809186
C8    C     C_R   0.084599 0.000000 0.584475 0.809188
C9    C     C_3   0.232794 0.538843 0.249848 0.370804
C10   C     C_3   0.232729 0.465226 0.256974 0.371663
C11   C     C_3   0.732728 0.038723 0.250038 0.371679
C12   C     C_3   0.732727 0.965047 0.256539 0.371727
C13   C     C_3   0.261291 0.534820 0.235833 0.389799
C14   C     C_3   0.261231 0.460861 0.243009 0.390265
C15   C     C_3   0.761291 0.035132 0.236106 0.390323
C16   C     C_3   0.761289 0.961115 0.242636 0.390436
C17   C     C_1   0.373332 0.499978 0.373931 -0.175880
C18   C     C_1   0.873332 0.000053 0.373940 -0.175825
C19   C     C_1   0.120433 0.499994 0.119801 -0.174241
C20   C     C_1   0.620432 0.999990 0.119689 -0.174087
C21   C     C_3   0.260850 0.504249 0.304576 -0.464444
C22   C     C_3   0.760786 0.003914 0.304488 -0.464999
C23   C     C_3   0.289198 0.499983 0.289711 -0.069519
C24   C     C_3   0.789199 0.000089 0.289694 -0.069822
C25   C     C_3   0.204579 0.499899 0.202965 -0.050711
C26   C     C_3   0.704577 0.999928 0.202810 -0.050981
C27   C     C_3   0.233307 0.495667 0.188854 -0.064742
C28   C     C_3   0.733365 0.996135 0.188768 -0.065289
C29   C     C_1   0.335136 0.499974 0.335862 0.081704
C30   C     C_1   0.835136 0.000083 0.335873 0.081552
C31   C     C_1   0.158622 0.499965 0.157453 0.082313
C32   C     C_1   0.658620 0.999965 0.157291 0.082298
H1    H     H_    0.273683 0.507670 0.352564 0.161965
H2    H     H_    0.773565 0.007013 0.352473 0.161951
C33   C     C_1   0.499960 0.636531 0.499950 -0.203327
C34   C     C_1   0.499959 0.363469 0.499948 -0.202544
C35   C     C_1   0.999960 0.136531 0.499950 -0.203268
C36   C     C_1   0.999959 0.863469 0.499948 -0.202593
C37   C     C_1   0.499948 0.678852 0.499931 0.004165
C38   C     C_1   0.499945 0.321147 0.499929 0.004718
C39   C     C_1   0.999948 0.178852 0.499931 0.004205
C40   C     C_1   0.999945 0.821148 0.499929 0.004692
C41   C     C_1   0.499941 0.729017 0.499928 0.005011
C42   C     C_1   0.499938 0.270982 0.499926 0.005331
C43   C     C_1   0.999941 0.229018 0.499928 0.005041
C44   C     C_1   0.999938 0.770982 0.499926 0.005316
C45   C     C_1   0.499940 0.771339 0.499936 0.004645
C46   C     C_1   0.499938 0.228661 0.499933 0.004846
C47   C     C_1   0.999940 0.271339 0.499936 0.004667
C48   C     C_1   0.999938 0.728661 0.499933 0.004838
C49   C     C_1   0.499945 0.821504 0.499952 0.003781
C50   C     C_1   0.499942 0.178496 0.499950 0.003905
C51   C     C_1   0.999945 0.321504 0.499952 0.003795
C52   C     C_1   0.999942 0.678496 0.499950 0.003902
C53   C     C_1   0.499950 0.863826 0.499967 -0.198389
C54   C     C_1   0.499948 0.136174 0.499966 -0.198314
C55   C     C_1   0.999950 0.363826 0.499967 -0.198379
C56   C     C_1   0.999949 0.636174 0.499966 -0.198314
C57   C     C_1   0.635088 0.500000 0.634715 -0.203027
C58   C     C_1   0.135088 0.000000 0.634715 -0.203027
C59   C     C_1   0.676568 0.500000 0.676180 0.013859
C60   C     C_1   0.176568 0.000000 0.676180 0.013860
C61   C     C_1   0.726139 0.500000 0.725825 0.002279
C62   C     C_1   0.226139 0.000001 0.725825 0.002280
C63   C     C_1   0.767620 0.500001 0.767394 0.002289
C64   C     C_1   0.267620 0.000001 0.767394 0.002291
C65   C     C_1   0.817192 0.500001 0.817081 0.013898
C66   C     C_1   0.317192 0.000001 0.817081 0.013900
C67   C     C_1   0.858672 0.500001 0.858656 -0.203262
C68   C     C_1   0.358672 0.000001 0.858656 -0.203259
O17   O     O_R   0.994560 0.535840 0.056620 -0.560401
O18   O     O_R   0.994560 0.464160 0.056620 -0.560453
O19   O     O_R   0.494560 0.035840 0.056620 -0.560386
O20   O     O_R   0.494560 0.964160 0.056620 -0.560437
C69   C     C_R   0.994845 0.500000 0.080450 0.829396
C70   C     C_R   0.494845 1.000000 0.080450 0.829436
O21   O     O_R   0.055010 0.535850 0.055100 -0.572981
O22   O     O_R   0.055010 0.464150 0.055100 -0.574560
O23   O     O_R   0.555010 0.035850 0.055100 -0.573013
O24   O     O_R   0.555010 0.964150 0.055100 -0.574488
C71   C     C_R   0.075487 0.500000 0.075449 0.857338
C72   C     C_R   0.575487 0.999999 0.075414 0.857329
Cu5   Cu    Cu3+1 0.993800 0.542460 0.993900 0.966997
Cu6   Cu    Cu3+1 0.993800 0.457540 0.993900 0.965677
Cu7   Cu    Cu3+1 0.493800 0.042460 0.993900 0.966979
Cu8   Cu    Cu3+1 0.493800 0.957540 0.993900 0.965750
O25   O     O_R   0.993040 0.535870 0.931160 -0.562126
O26   O     O_R   0.993040 0.464130 0.931160 -0.562343
O27   O     O_R   0.493040 0.035870 0.931160 -0.562149
O28   O     O_R   0.493040 0.964130 0.931160 -0.562352
O29   O     O_R   0.932590 0.535860 0.932690 -0.557531
O30   O     O_R   0.932590 0.464140 0.932690 -0.557558
O31   O     O_R   0.432590 0.035860 0.932690 -0.557532
O32   O     O_R   0.432590 0.964140 0.932690 -0.557558
C73   C     C_R   0.993233 0.500000 0.907799 0.822505
C74   C     C_R   0.493233 1.000000 0.907799 0.822442
C75   C     C_R   0.909163 0.500000 0.909248 0.809716
C76   C     C_R   0.409163 0.000000 0.909248 0.809713
O33   O     O_R   0.463790 0.000000 0.401850 -0.558434
O34   O     O_R   0.963790 0.500000 0.401850 -0.558435
O35   O     O_R   0.534640 0.000000 0.472710 -0.558361
O36   O     O_R   0.034640 0.500000 0.472710 -0.558358
C77   C     C_R   0.499094 1.000000 0.414040 0.815983
C78   C     C_R   0.999094 0.500000 0.414040 0.815981
O37   O     O_R   0.464530 0.938000 0.464560 -0.558730
O38   O     O_R   0.464530 0.062000 0.464560 -0.558671
O39   O     O_R   0.964530 0.438000 0.464560 -0.558724
O40   O     O_R   0.964530 0.562000 0.464560 -0.558675
O41   O     O_R   0.535390 0.937990 0.535420 -0.558302
O42   O     O_R   0.535390 0.062010 0.535420 -0.558324
O43   O     O_R   0.035390 0.437990 0.535420 -0.558302
O44   O     O_R   0.035390 0.562010 0.535420 -0.558320
C79   C     C_R   0.499957 0.914874 0.499984 0.815593
C80   C     C_R   0.499957 0.085126 0.499984 0.815616
C81   C     C_R   0.999957 0.414874 0.499984 0.815593
C82   C     C_R   0.999956 0.585126 0.499984 0.815613
Cu9   Cu    Cu3+1 0.458020 0.000000 0.458050 0.962004
Cu10  Cu    Cu3+1 0.958020 0.500000 0.458050 0.962013
Cu11  Cu    Cu3+1 0.541920 0.000000 0.541950 0.962705
Cu12  Cu    Cu3+1 0.041920 0.500000 0.541950 0.962720
O45   O     O_R   0.465290 0.000000 0.527290 -0.558531
O46   O     O_R   0.965290 0.500000 0.527290 -0.558531
O47   O     O_R   0.536150 1.000000 0.598150 -0.558337
O48   O     O_R   0.036150 0.500000 0.598150 -0.558333
C83   C     C_R   0.500752 0.000000 0.585889 0.815288
C84   C     C_R   0.000752 0.500000 0.585889 0.815288
C85   C     C_1   0.995600 0.500000 0.132242 -0.200722
C86   C     C_1   0.495600 1.000000 0.132242 -0.200754
C87   C     C_1   0.996237 0.499999 0.175196 0.006238
C88   C     C_1   0.496237 1.000000 0.175196 0.006226
C89   C     C_1   0.996987 0.499999 0.226102 0.006647
C90   C     C_1   0.496987 0.999999 0.226101 0.006639
C91   C     C_1   0.497599 0.999999 0.269030 0.005796
C92   C     C_1   0.997599 0.499999 0.269031 0.005803
C93   C     C_1   0.498273 1.000000 0.319861 0.004430
C94   C     C_1   0.998273 0.499999 0.319861 0.004434
C95   C     C_1   0.498748 1.000000 0.362655 -0.198058
C96   C     C_1   0.998748 0.500000 0.362655 -0.198054
C97   C     C_1   0.994242 0.500000 0.857746 -0.206026
C98   C     C_1   0.494242 1.000000 0.857746 -0.206006
C99   C     C_1   0.995403 0.500000 0.816588 0.002446
C100  C     C_1   0.495403 1.000000 0.816588 0.002440
C101  C     C_1   0.996934 0.500000 0.767957 0.004007
C102  C     C_1   0.496934 1.000000 0.767957 0.004001
C103  C     C_1   0.498224 1.000000 0.726932 0.004055
C104  C     C_1   0.998224 0.500000 0.726932 0.004061
C105  C     C_1   0.499620 1.000000 0.678161 0.003595
C106  C     C_1   0.999620 0.500000 0.678161 0.003602
C107  C     C_1   0.500489 1.000000 0.636701 -0.198846
C108  C     C_1   0.000489 0.500000 0.636701 -0.198839
O49   O     O_3   0.281285 0.570966 0.232278 -0.575968
C109  C     C_3   0.249699 0.597308 0.177796 0.087118
H3    H     H_    0.218156 0.599462 0.164704 0.167579
H4    H     H_    0.243837 0.582781 0.137615 0.160103
C110  C     C_3   0.266927 0.645397 0.189274 -0.788479
H5    H     H_    0.297662 0.644880 0.200279 0.256431
H6    H     H_    0.242593 0.666420 0.146481 0.201431
H7    H     H_    0.273238 0.660872 0.229413 0.245596
O50   O     O_3   0.281109 0.420733 0.246855 -0.576600
C111  C     C_3   0.249476 0.390737 0.197506 0.088396
H8    H     H_    0.244369 0.398152 0.155754 0.160176
H9    H     H_    0.217602 0.392768 0.183488 0.166688
C112  C     C_3   0.266062 0.342241 0.218473 -0.788550
H10   H     H_    0.271278 0.333694 0.260079 0.245227
H11   H     H_    0.241840 0.318300 0.179604 0.201488
H12   H     H_    0.297283 0.338430 0.231192 0.256540
O51   O     O_3   0.781218 0.071589 0.232906 -0.576271
C113  C     C_3   0.749627 0.097840 0.178315 0.088534
H13   H     H_    0.717726 0.099177 0.164283 0.166504
H14   H     H_    0.744567 0.083799 0.138598 0.160152
C114  C     C_3   0.766235 0.146292 0.190311 -0.788430
H15   H     H_    0.797484 0.146587 0.202723 0.256585
H16   H     H_    0.742047 0.167150 0.147271 0.201450
H17   H     H_    0.771407 0.161396 0.229680 0.245222
O52   O     O_3   0.781220 0.921157 0.246186 -0.576601
C115  C     C_3   0.749632 0.891302 0.196558 0.088455
H18   H     H_    0.744546 0.899073 0.154897 0.160152
H19   H     H_    0.717742 0.893121 0.182515 0.166762
C116  C     C_3   0.766264 0.842786 0.217110 -0.788569
H20   H     H_    0.771473 0.833892 0.258626 0.245268
H21   H     H_    0.742073 0.818960 0.178027 0.201481
H22   H     H_    0.797498 0.839190 0.229820 0.256520
O53   O     O_3   0.213924 0.579200 0.247640 -0.570920
C117  C     C_3   0.246274 0.605875 0.301188 0.088720
H23   H     H_    0.275375 0.610216 0.308253 0.170284
H24   H     H_    0.256343 0.590133 0.344034 0.147871
C118  C     C_3   0.227812 0.652775 0.292543 -0.786974
H25   H     H_    0.199112 0.649896 0.286487 0.257319
H26   H     H_    0.252910 0.674062 0.334616 0.199721
H27   H     H_    0.217801 0.669445 0.250263 0.247315
O54   O     O_3   0.213781 0.428891 0.262145 -0.570864
C119  C     C_3   0.246051 0.406791 0.320481 0.089322
H28   H     H_    0.256166 0.428635 0.359640 0.147634
H29   H     H_    0.275133 0.398083 0.328828 0.170704
C120  C     C_3   0.227449 0.362823 0.320743 -0.787203
H30   H     H_    0.217346 0.340172 0.282291 0.247348
H31   H     H_    0.252496 0.345179 0.366615 0.199720
H32   H     H_    0.198784 0.370234 0.313722 0.257210
O55   O     O_3   0.713789 0.078916 0.248067 -0.570529
C121  C     C_3   0.746050 0.105382 0.301931 0.089347
H33   H     H_    0.775178 0.110054 0.309131 0.170511
H34   H     H_    0.756090 0.089252 0.344568 0.147553
C122  C     C_3   0.727481 0.152113 0.293745 -0.787056
H35   H     H_    0.698771 0.148883 0.287616 0.257254
H36   H     H_    0.752520 0.173246 0.336046 0.199694
H37   H     H_    0.717456 0.169163 0.251655 0.247298
O56   O     O_3   0.713785 0.928461 0.261338 -0.570890
C123  C     C_3   0.746038 0.906171 0.319517 0.089358
H38   H     H_    0.756045 0.927749 0.358806 0.147644
H39   H     H_    0.775185 0.897728 0.327916 0.170666
C124  C     C_3   0.727476 0.861981 0.319336 -0.787209
H40   H     H_    0.717500 0.839582 0.280763 0.247312
H41   H     H_    0.752503 0.844194 0.365092 0.199726
H42   H     H_    0.698735 0.869116 0.312223 0.257228
C125  C     C_3   0.215169 0.490997 0.122703 -0.866645
H43   H     H_    0.242347 0.488655 0.125286 0.254788
H44   H     H_    0.194624 0.460105 0.099730 0.224707
H45   H     H_    0.194518 0.520791 0.093755 0.224715
C126  C     C_3   0.715321 0.991900 0.122632 -0.867274
H46   H     H_    0.742549 0.989721 0.125311 0.254647
H47   H     H_    0.694737 0.961061 0.099311 0.224940
H48   H     H_    0.694739 0.021801 0.093952 0.224653

loop_
_geom_bond_atom_site_label_1
_geom_bond_atom_site_label_2
_geom_bond_distance
_ccdc_geom_bond_type
C36   C40   1.245305 T    
C19   C31   1.173589 T    
O53   C117  1.409864 S    
O38   Cu9   1.835278 S    
C9    O53   1.410327 S    
C11   C22   1.545782 S    
C33   C37   1.245308 T    
C93   C95   1.245020 T    
C21   C23   1.549246 S    
Cu12  O48   1.832492 S    
O10   C6    1.228601 A    
C10   C25   1.536938 S    
C126  H46   1.109430 S    
O3    C3    1.262185 A    
C50   C54   1.245314 T    
O12   Cu4   1.889149 S    
C121  H34   1.112469 S    
C117  H24   1.112465 S    
C122  H37   1.110837 S    
C110  H6    1.110458 S    
C111  H8    1.110429 S    
O7    C3    1.262332 A    
Cu9   Cu11  2.577953 S    
Cu3   O15   1.892412 S    
Cu8   O32   1.890763 S    
C113  C114  1.520516 S    
C12   C16   1.534192 S    
O26   C73   1.262633 A    
Cu7   O31   1.890768 S    
C102  C103  1.245686 T    
Cu1   Cu3   2.499258 S    
O39   C81   1.283741 A    
C74   C98   1.502681 S    
O28   C74   1.262635 A    
C7    C57   1.551402 S    
C112  H12   1.110718 S    
C87   C89   1.475637 S    
C43   C47   1.245299 T    
O30   C75   1.277320 A    
C64   C66   1.523157 S    
O44   C82   1.283747 A    
C45   C49   1.476110 S    
C12   C26   1.536960 S    
C25   C31   1.412210 S    
O37   C79   1.283741 A    
C68   C76   1.551408 S    
C9    C13   1.534370 S    
C119  H28   1.112469 S    
C113  H14   1.110437 S    
C89   C92   1.245008 T    
O56   C123  1.409812 S    
O46   C84   1.282273 A    
C123  H38   1.112461 S    
O40   Cu10  1.835278 S    
O43   Cu12  1.835640 S    
Cu5   Cu6   2.498763 S    
O27   C74   1.262635 A    
O19   Cu7   1.833268 S    
Cu11  O47   1.832492 S    
C51   C55   1.245316 T    
O47   C83   1.285545 A    
O44   Cu12  1.835632 S    
Cu2   O14   1.889150 S    
C111  H9    1.114953 S    
C11   C26   1.536927 S    
C78   C96   1.501566 S    
C48   C52   1.476110 S    
C116  H22   1.110715 S    
O8    Cu4   1.832047 S    
C125  H43   1.109423 S    
C117  C118  1.520224 S    
C10   C21   1.545740 S    
C47   C51   1.476110 S    
C1    C33   1.502058 S    
O39   Cu10  1.835272 S    
O13   C7    1.276425 A    
C91   C93   1.475639 S    
C2    C34   1.502061 S    
C92   C94   1.475639 S    
C120  H31   1.110464 S    
C109  C110  1.520500 S    
C46   C50   1.476110 S    
C4    C36   1.502061 S    
C63   C65   1.523157 S    
C116  H20   1.110662 S    
C103  C105  1.476713 S    
C124  H42   1.110695 S    
C104  C106  1.476716 S    
C125  H44   1.108817 S    
C14   O50   1.411441 S    
O42   C80   1.283747 A    
C22   C24   1.549250 S    
C83   C107  1.502675 S    
O23   Cu7   1.890798 S    
O42   Cu11  1.835632 S    
C123  H39   1.114024 S    
C121  H33   1.114013 S    
C99   C101  1.476710 S    
C109  H4    1.110381 S    
C38   C42   1.476105 S    
C19   C71   1.381222 S    
C110  H7    1.110761 S    
C11   O55   1.410336 S    
C25   C27   1.546780 S    
C53   C79   1.502072 S    
C70   C86   1.501566 S    
C41   C45   1.245302 T    
O1    Cu1   1.833797 S    
O35   C77   1.284265 A    
C40   C44   1.476105 S    
C118  H25   1.110689 S    
O33   Cu9   1.832488 S    
O10   Cu2   1.892407 S    
C101  C104  1.245683 T    
C69   C85   1.501566 S    
C122  H35   1.110692 S    
O48   C84   1.285545 A    
Cu10  O46   1.835815 S    
C120  H32   1.110697 S    
O17   Cu5   1.833268 S    
C10   O54   1.410350 S    
C57   C59   1.274516 T    
C10   C14   1.534197 S    
C23   C29   1.411473 S    
O9    Cu1   1.892407 S    
O52   C115  1.411041 S    
C77   C95   1.501569 S    
O37   Cu9   1.835272 S    
C20   C32   1.173591 T    
O6    Cu3   1.832047 S    
O17   C69   1.261749 A    
O18   C69   1.261745 A    
C114  H15   1.110712 S    
C105  C107  1.245692 T    
C9    C25   1.536970 S    
C113  H13   1.114954 S    
O5    Cu3   1.832044 S    
C98   C100  1.245685 T    
Cu1   O13   1.889150 S    
C112  H10   1.110660 S    
C114  H16   1.110469 S    
O5    C1    1.262332 A    
C110  H5    1.110717 S    
C39   C43   1.476105 S    
C118  H27   1.110860 S    
C111  C112  1.520531 S    
C17   C29   1.173664 T    
O43   C81   1.283747 A    
O54   C119  1.409812 S    
O41   Cu11  1.835640 S    
C119  C120  1.520245 S    
O8    C4    1.262331 A    
C21   H1    1.109872 S    
O24   C72   1.228266 A    
O1    C1    1.262185 A    
O3    Cu2   1.833797 S    
C126  H47   1.108830 S    
C5    C17   1.381272 S    
C90   C91   1.245008 T    
O20   C70   1.261745 A    
C15   C24   1.537469 S    
O49   C109  1.410957 S    
O25   C73   1.262634 A    
O21   Cu5   1.890798 S    
O50   C111  1.411048 S    
Cu10  Cu12  2.577953 S    
O41   C79   1.283747 A    
C86   C88   1.245017 T    
C58   C60   1.274516 T    
C61   C63   1.274551 T    
C66   C68   1.274520 T    
C67   C75   1.551408 S    
O19   C70   1.261749 A    
C60   C62   1.523157 S    
C84   C108  1.502675 S    
C52   C56   1.245314 T    
C13   C27   1.541043 S    
C125  H45   1.108829 S    
C88   C90   1.475637 S    
C16   C24   1.537457 S    
O4    C4    1.262186 A    
Cu2   Cu4   2.499258 S    
O36   C78   1.284265 A    
C13   O49   1.411498 S    
C15   O51   1.411438 S    
C42   C46   1.245299 T    
Cu6   O26   1.833759 S    
C28   C126  1.522498 S    
C109  H3    1.114708 S    
C124  H41   1.110461 S    
Cu6   O30   1.890763 S    
Cu8   O28   1.833759 S    
C24   C30   1.411471 S    
O55   C121  1.409818 S    
C27   C125  1.522498 S    
Cu9   O45   1.835815 S    
O32   C76   1.277320 A    
C54   C80   1.502072 S    
C9    C21   1.545712 S    
O2    Cu1   1.833799 S    
C37   C41   1.476102 S    
C14   C23   1.537346 S    
O14   C8    1.276425 A    
C119  H29   1.114001 S    
C115  H18   1.110433 S    
C59   C61   1.523157 S    
C118  H26   1.110464 S    
C122  H36   1.110462 S    
C35   C39   1.245305 T    
C18   C30   1.173658 T    
Cu5   O29   1.890768 S    
O33   C77   1.282741 A    
O24   Cu8   1.890803 S    
O15   C7    1.278387 A    
O7    Cu4   1.832044 S    
C85   C87   1.245017 T    
Cu7   Cu8   2.498763 S    
O16   C8    1.278387 A    
O22   C71   1.228289 A    
O9    C5    1.228636 A    
O29   C75   1.277324 A    
C106  C108  1.245692 T    
O35   Cu11  1.835559 S    
O40   C82   1.283739 A    
C97   C99   1.245688 T    
C6    C18   1.381266 S    
C16   O52   1.411439 S    
O36   Cu12  1.835559 S    
O51   C113  1.411056 S    
C100  C102  1.476713 S    
C3    C35   1.502061 S    
C22   H2    1.109866 S    
C26   C32   1.412209 S    
C49   C53   1.245314 T    
C44   C48   1.245299 T    
Cu7   O27   1.833758 S    
O22   Cu6   1.890803 S    
C11   C15   1.534226 S    
C94   C96   1.245023 T    
O45   C83   1.282273 A    
C16   C28   1.541088 S    
C126  H48   1.108829 S    
O20   Cu8   1.833267 S    
C123  C124  1.520234 S    
C120  H30   1.110838 S    
C8    C58   1.551402 S    
C114  H17   1.110661 S    
C115  H19   1.114946 S    
C15   C28   1.541104 S    
O6    C2    1.262333 A    
O18   Cu6   1.833267 S    
C20   C72   1.381218 S    
O31   C76   1.277324 A    
O4    Cu2   1.833799 S    
C26   C28   1.546668 S    
C34   C38   1.245305 T    
O11   Cu3   1.889149 S    
O23   C72   1.228317 A    
O34   Cu10  1.832488 S    
C117  H23   1.114030 S    
O38   C80   1.283739 A    
C112  H11   1.110470 S    
O12   C6    1.228575 A    
Cu4   O16   1.892412 S    
C12   O56   1.410340 S    
C73   C97   1.502684 S    
C124  H40   1.110836 S    
C116  H21   1.110470 S    
C65   C67   1.274520 T    
C12   C22   1.545761 S    
C62   C64   1.274551 T    
Cu5   O25   1.833758 S    
C14   C27   1.541061 S    
C55   C81   1.502069 S    
O11   C5    1.228539 A    
C13   C23   1.537589 S    
C56   C82   1.502072 S    
C121  C122  1.520232 S    
O21   C71   1.228295 A    
O34   C78   1.282741 A    
C115  C116  1.520516 S    
O2    C2    1.262184 A    
