data_mof_unit_14466.cif
_audit_creation_date              2013-03-05T16:41:05-0500
_audit_creation_method            fapswitch 2.2
_symmetry_space_group_name_H-M    P1
_symmetry_Int_Tables_number       1
_space_group_crystal_system       triclinic
_cell_length_a                    8.571594
_cell_length_b                    10.540514
_cell_length_c                    9.95219
_cell_angle_alpha                 89.43061
_cell_angle_beta                  96.379573
_cell_angle_gamma                 92.586553
_cell_volume                      892.681065288

loop_
_atom_site_label
_atom_site_type_symbol
_atom_site_description
_atom_site_fract_x
_atom_site_fract_y
_atom_site_fract_z
_atom_type_partial_charge
O1    O     O_R   0.500020 0.316790 0.614690 -0.592410
O2    O     O_R   0.500000 0.316760 0.385350 -0.541277
C1    C     C_R   0.523523 0.262026 0.502410 0.947444
O3    O     O_R   0.271760 0.500010 0.587850 -0.555655
O4    O     O_R   0.271740 0.499970 0.358500 -0.626997
C2    C     C_R   0.202228 0.499310 0.466443 1.063352
Zn1   Zn    Zn3+2 0.500010 0.500020 0.653130 1.097085
Zn2   Zn    Zn3+2 0.499990 0.499980 0.346870 1.062015
O5    O     O_R   0.500000 0.683240 0.614650 -0.589525
O6    O     O_R   0.499980 0.683210 0.385310 -0.625271
O7    O     O_R   0.728260 0.500030 0.641500 -0.557811
O8    O     O_R   0.728240 0.499990 0.412150 -0.648953
C3    C     C_R   0.510461 0.740869 0.500582 0.945457
C4    C     C_R   0.797340 0.512231 0.532525 0.879873
C5    C     C_2   0.038047 0.489663 0.453407 -0.448064
H1    H     H_    0.983142 0.416580 0.385004 0.201338
C6    C     C_2   0.958713 0.550166 0.539111 0.169893
C7    C     C_R   0.598060 0.066565 0.628564 -0.006184
C8    C     C_R   0.581808 0.134620 0.507396 -0.242923
C9    C     C_R   0.614080 0.070570 0.389542 0.332549
C10   C     C_R   0.591924 0.938043 0.387265 -0.206524
H2    H     H_    0.598830 0.886781 0.294499 0.231036
C11   C     C_R   0.555940 0.873317 0.504615 -0.175394
C12   C     C_R   0.585340 0.936552 0.627631 0.096409
C13   C     C_3   0.505096 0.929981 0.754379 0.039404
C14   C     C_3   0.525846 0.074768 0.757158 0.035299
H3    H     H_    0.380517 0.894084 0.736081 0.147322
H4    H     H_    0.413393 0.121514 0.745480 0.135560
C15   C     C_R   0.363472 0.495249 0.058996 0.094213
N1    N     N_R   0.498950 0.499140 0.142680 -0.099938
C16   C     C_R   0.635485 0.519987 0.084430 0.022266
H5    H     H_    0.745585 0.534212 0.147940 0.154580
C17   C     C_R   0.635058 0.521560 0.941092 0.075783
H6    H     H_    0.743979 0.539993 0.898708 0.225919
N2    N     N_R   0.498950 0.499180 0.857030 -0.128179
C18   C     C_R   0.361678 0.495177 0.918104 0.102610
C19   C     C_3   0.213377 0.407296 0.907274 0.017061
C20   C     C_3   0.224787 0.406499 0.063445 0.005997
H7    H     H_    0.126082 0.452040 0.105440 0.167563
N3    N     N_R   0.073365 0.473975 0.854664 0.184219
O9    O     O_R   0.063264 0.593460 0.883048 -0.339453
O10   O     O_R   0.944327 0.406708 0.820699 -0.375964
C21   C     C_2   0.216595 0.281464 0.835122 0.992259
O11   O     O_2   0.223428 0.282004 0.713407 -0.623094
O12   O     O_R   0.184642 0.166475 0.900201 -0.682343
H8    H     H_    0.173311 0.091103 0.836834 0.360230
N4    N     N_R   0.263839 0.286370 0.131605 0.261501
O13   O     O_R   0.393300 0.231419 0.115734 -0.286486
O14   O     O_R   0.170002 0.235719 0.213344 -0.306735
N5    N     N_R   0.014326 0.668241 0.605326 0.237762
O15   O     O_R   0.919360 0.729484 0.671709 -0.296910
O16   O     O_R   0.141494 0.728949 0.575131 -0.401833
N6    N     N_R   0.671836 0.135788 0.276155 0.267754
O17   O     O_R   0.758824 0.239786 0.295091 -0.358453
O18   O     O_R   0.669729 0.077240 0.161552 -0.238221
N7    N     N_R   0.592787 0.866181 0.868293 0.271527
O19   O     O_R   0.722116 0.810270 0.854144 -0.287776
O20   O     O_R   0.534492 0.857502 0.983389 -0.337761
N8    N     N_R   0.639833 0.128205 0.864640 0.306654
O21   O     O_R   0.783748 0.091293 0.881248 -0.232364
O22   O     O_R   0.606387 0.230015 0.925964 -0.319438

loop_
_geom_bond_atom_site_label_1
_geom_bond_atom_site_label_2
_geom_bond_distance
_ccdc_geom_bond_type
C15   C20   1.483475 S    
C19   C21   1.517293 S    
O4    Zn2   1.972679 S    
N5    O16   1.301518 A    
C21   O11   1.219170 D    
C16   C17   1.426057 A    
C1    C8    1.452322 S    
C19   C20   1.546400 S    
C6    N5    1.450303 S    
C13   H3    1.112786 S    
C14   N8    1.464977 S    
C14   H4    1.096456 S    
N2    C18   1.381904 A    
C7    C14   1.487141 S    
C13   N7    1.464102 S    
Zn2   O8    1.991821 S    
N1    C16   1.370783 A    
C11   C12   1.392518 A    
Zn2   N1    2.031272 S    
C10   H2    1.082930 S    
C8    C9    1.418705 A    
N3    O10   1.300482 A    
N5    O15   1.300468 A    
C2    C5    1.398005 S    
N8    O21   1.302752 A    
N4    O14   1.300673 A    
N6    O17   1.300851 A    
C9    C10   1.401297 A    
Zn1   O7    1.972679 S    
C21   O12   1.399078 S    
C15   C18   1.400570 A    
C20   N4    1.465000 S    
C15   N1    1.351028 A    
O3    Zn1   1.991822 S    
C7    C12   1.369862 A    
C5    C6    1.332480 D    
Zn2   O6    1.972595 S    
C18   C19   1.533236 S    
C17   N2    1.370706 A    
N7    O20   1.300426 A    
C17   H6    1.075574 S    
C19   N3    1.462049 S    
O2    C1    1.294479 A    
N6    O18   1.300167 A    
C10   C11   1.403492 A    
O4    C2    1.284849 A    
O7    C4    1.294781 A    
N8    O22   1.298426 A    
N7    O19   1.300512 A    
C5    H1    1.088500 S    
O12   H8    1.013750 S    
C20   H7    1.113619 S    
C12   C13   1.501950 S    
C3    C11   1.432170 S    
O3    C2    1.286438 A    
C7    C8    1.393778 A    
Zn1   O5    1.965103 S    
O5    C3    1.292189 A    
N3    O9    1.302227 A    
C13   C14   1.528629 S    
O1    Zn1   1.972596 S    
Zn1   N2    2.030210 S    
C16   H5    1.081278 S    
O2    Zn2   1.965102 S    
N4    O13   1.300239 A    
O8    C4    1.281071 A    
C9    N6    1.438427 S    
O1    C1    1.302217 A    
O6    C3    1.295979 A    
C4    C6    1.417017 S    
