data_mof_unit_12867.cif
_audit_creation_date              2012-12-11T17:04:43-0500
_audit_creation_method            fapswitch 2.2
_symmetry_space_group_name_H-M    P1
_symmetry_Int_Tables_number       1
_space_group_crystal_system       triclinic
_cell_length_a                    17.46321
_cell_length_b                    24.391753
_cell_length_c                    15.123753
_cell_angle_alpha                 89.58726
_cell_angle_beta                  126.298224
_cell_angle_gamma                 90.258524
_cell_volume                      5191.84432662

loop_
_atom_site_label
_atom_site_type_symbol
_atom_type_description
_atom_site_fract_x
_atom_site_fract_y
_atom_site_fract_z
_atom_type_partial_charge
C1    C     C_R   0.808871 0.624394 0.905884 0.696608
C2    C     C_R   0.147535 0.652453 0.092476 0.683859
C3    C     C_R   0.311548 0.129365 0.907641 0.727966
C4    C     C_R   0.647727 0.152440 0.092519 0.694736
C5    C     C_R   0.815768 0.361511 0.002321 -0.041548
C6    C     C_R   0.121391 0.318488 0.003332 -0.002388
C7    C     C_R   0.316176 0.860832 0.002067 -0.039671
C8    C     C_R   0.619528 0.818530 0.998292 0.009040
C9    C     C_R   0.028778 0.502326 0.344367 -0.052340
C10   C     C_R   0.932503 0.505251 0.633956 0.102074
C11   C     C_R   0.515104 0.001749 0.336034 -0.041860
C12   C     C_R   0.432011 0.004216 0.632479 0.091559
C13   C     C_R   0.697140 0.499524 0.632806 -0.059481
C14   C     C_R   0.325281 0.501034 0.277218 -0.008639
C15   C     C_R   0.193431 0.001275 0.636535 -0.031729
C16   C     C_R   0.824824 0.000438 0.275061 -0.009385
C17   C     C_3   0.540691 0.448253 0.479869 -0.118650
C18   C     C_3   0.504824 0.468119 0.363882 -0.150599
C19   C     C_3   0.022837 0.966780 0.519959 -0.103969
C20   C     C_3   0.990908 0.949481 0.405017 -0.152333
C21   C     C_3   0.462308 0.481108 0.472641 -0.121859
C22   C     C_3   0.571000 0.519185 0.414386 -0.116950
C23   C     C_3   0.958109 0.017240 0.472277 -0.124714
C24   C     C_3   0.071424 0.984305 0.417907 -0.118289
C25   C     C_3   0.427497 0.501031 0.358119 0.145607
C26   C     C_3   0.604277 0.499146 0.528210 0.153219
C27   C     C_3   0.926508 0.000105 0.357842 0.145703
C28   C     C_3   0.101384 0.001549 0.531478 0.148982
C29   C     C_3   0.491106 0.551956 0.406090 -0.161124
C30   C     C_3   0.526153 0.531888 0.521061 -0.107596
C31   C     C_3   0.004444 0.035058 0.368230 -0.154273
C32   C     C_3   0.036995 0.052127 0.483963 -0.138401
C33   C     C_R   0.784464 0.300991 0.107051 -0.031378
C34   C     C_R   0.242986 0.249565 0.105029 0.130348
C35   C     C_R   0.285164 0.800198 0.106716 -0.024506
C36   C     C_R   0.642708 0.753472 0.897779 -0.005572
C37   C     C_R   0.749111 0.330357 0.010456 -0.105468
C38   C     C_R   0.153412 0.263101 0.011657 -0.217699
C39   C     C_R   0.249622 0.829654 0.010171 -0.108684
C40   C     C_R   0.644926 0.763721 0.989470 -0.175224
C41   C     C_R   0.653100 0.323261 0.921145 0.642651
C42   C     C_R   0.104272 0.225217 0.925070 0.704662
C43   C     C_R   0.153410 0.822931 0.921174 0.647862
C44   C     C_R   0.678063 0.722684 0.070353 0.639011
C45   C     C_R   0.903643 0.377448 0.092534 -0.205201
C46   C     C_R   0.059666 0.349253 0.910090 -0.195107
C47   C     C_R   0.404023 0.876678 0.092364 -0.216900
C48   C     C_R   0.556903 0.850096 0.907872 -0.259861
C49   C     C_R   0.102424 0.777310 0.920226 0.312927
C50   C     C_R   0.727201 0.677081 0.069006 0.351990
C51   C     C_R   0.602422 0.277393 0.920030 0.314931
C52   C     C_R   0.152789 0.179731 0.924148 0.390053
C53   C     C_R   0.150501 0.740083 0.009428 -0.059355
C54   C     C_R   0.739749 0.674166 0.985147 -0.183791
C55   C     C_R   0.650537 0.240250 0.009418 -0.057706
C56   C     C_R   0.251716 0.175111 0.008378 -0.172790
C57   C     C_R   0.236941 0.755760 0.105704 0.081396
C58   C     C_R   0.688189 0.709250 0.894381 0.177270
C59   C     C_R   0.736524 0.256317 0.105923 0.078336
C60   C     C_R   0.292005 0.207132 0.102384 0.126423
C61   C     C_3   0.326642 0.723966 0.183980 0.369213
C62   C     C_3   0.720205 0.742027 0.836752 0.436633
C63   C     C_3   0.826509 0.224973 0.185160 0.373599
C64   C     C_3   0.384428 0.238061 0.168876 0.310131
C65   C     C_3   0.879482 0.274409 0.186772 -0.501296
C66   C     C_3   0.330039 0.284645 0.172892 -0.506932
C67   C     C_3   0.379963 0.773179 0.185565 -0.497204
C68   C     C_3   0.670035 0.790725 0.841654 -0.582287
C69   C     C_R   0.001989 0.547111 0.555309 -0.289086
C70   C     C_R   0.030073 0.544949 0.488300 -0.329980
C71   C     C_R   0.448397 0.055964 0.510548 -0.314241
C72   C     C_R   0.480425 0.053292 0.446216 -0.288457
C73   C     C_R   0.934578 0.510418 0.541820 -0.060995
C74   C     C_R   0.995213 0.504097 0.410160 0.054946
C75   C     C_R   0.408837 0.009984 0.523907 -0.029230
C76   C     C_R   0.472617 0.004249 0.394315 0.057806
C77   C     C_R   0.892063 0.471465 0.458053 0.444451
C78   C     C_R   0.925433 0.466647 0.393278 0.322154
C79   C     C_R   0.380112 0.965373 0.452880 0.414549
C80   C     C_R   0.415826 0.961079 0.390049 0.302288
C81   C     C_3   0.028391 0.606660 0.477410 0.970559
C82   C     C_3   0.999970 0.608859 0.554357 1.008203
C83   C     C_3   0.435297 0.107871 0.392645 0.905296
C84   C     C_3   0.399781 0.110091 0.462538 1.037600
C85   C     C_R   0.031307 0.547320 0.291647 -0.121054
C86   C     C_R   0.949373 0.548737 0.699046 -0.206843
C87   C     C_R   0.525595 0.046704 0.288880 -0.150749
C88   C     C_R   0.451294 0.048191 0.698788 -0.209045
C89   C     C_R   0.744043 0.454576 0.696177 -0.011056
C90   C     C_R   0.269347 0.454928 0.250120 -0.117675
C91   C     C_R   0.242233 0.955495 0.696371 -0.029378
C92   C     C_R   0.768898 0.954684 0.249461 -0.105502
C93   C     C_R   0.034681 0.456162 0.296341 0.590597
C94   C     C_R   0.947472 0.457914 0.693318 0.508281
C95   C     C_R   0.527325 0.955824 0.291947 0.584377
C96   C     C_R   0.446439 0.957270 0.692991 0.493604
C97   C     C_R   0.744793 0.545289 0.692277 0.015262
C98   C     C_R   0.269701 0.546876 0.251055 -0.083547
C99   C     C_R   0.241626 0.046640 0.696727 -0.040724
C100  C     C_R   0.769616 0.046545 0.249120 -0.105246
C101  C     C_R   0.812630 0.373474 0.910282 0.796092
C102  C     C_R   0.147981 0.349719 0.092174 0.685822
C103  C     C_R   0.312811 0.873217 0.910077 0.787266
C104  C     C_R   0.649150 0.849014 0.089854 0.743476
C105  C     C_R   0.902064 0.628370 0.088538 -0.139793
C106  C     C_R   0.060406 0.652223 0.910181 -0.117294
C107  C     C_R   0.403712 0.126484 0.090463 -0.103750
C108  C     C_R   0.560542 0.152219 0.910237 -0.146791
C109  C     C_R   0.812290 0.640760 0.994662 -0.021387
C110  C     C_R   0.120589 0.683815 0.002524 0.029272
C111  C     C_R   0.316098 0.142553 0.999836 -0.034132
C112  C     C_R   0.620903 0.183832 0.002594 0.045081
H1    H     H_    0.561828 0.405601 0.511141 0.162635
H2    H     H_    0.493280 0.442212 0.296917 0.136244
H3    H     H_    0.031767 0.938959 0.583928 0.183993
H4    H     H_    0.970482 0.907470 0.370685 0.152795
H5    H     H_    0.469491 0.594500 0.374287 0.127473
H6    H     H_    0.536070 0.557937 0.587071 0.173970
H7    H     H_    0.994129 0.062759 0.303429 0.140126
H8    H     H_    0.056603 0.094308 0.517531 0.161043
H9    H     H_    0.339873 0.714780 0.264200 0.119458
H10   H     H_    0.798826 0.746354 0.884817 0.034228
H11   H     H_    0.839228 0.215947 0.265162 0.124180
H12   H     H_    0.438522 0.219157 0.250168 0.146782
H13   H     H_    0.919002 0.266688 0.151363 0.242425
H14   H     H_    0.327318 0.322398 0.129338 0.195133
H15   H     H_    0.418871 0.765357 0.149438 0.247194
H16   H     H_    0.607367 0.804843 0.760059 0.243019
H17   H     H_    0.921253 0.295234 0.267688 0.193440
H18   H     H_    0.350175 0.291531 0.256771 0.228773
H19   H     H_    0.422459 0.793729 0.266755 0.193273
H20   H     H_    0.719689 0.823799 0.895963 0.178249
H21   H     H_    0.928801 0.374301 0.176312 0.233635
H22   H     H_    0.018933 0.334726 0.826895 0.214184
H23   H     H_    0.429492 0.872653 0.176039 0.237399
H24   H     H_    0.511797 0.835804 0.824468 0.184967
H25   H     H_    0.042888 0.589498 0.316036 0.210097
H26   H     H_    0.935909 0.591560 0.676786 0.198624
H27   H     H_    0.537582 0.088410 0.316447 0.183950
H28   H     H_    0.436788 0.090860 0.674851 0.202901
H29   H     H_    0.732583 0.412789 0.667790 0.176549
H30   H     H_    0.292501 0.412719 0.265796 0.160763
H31   H     H_    0.229213 0.914088 0.665663 0.185453
H32   H     H_    0.791808 0.912517 0.266125 0.171174
H33   H     H_    0.733242 0.586488 0.659757 0.170373
H34   H     H_    0.292277 0.589200 0.266686 0.152748
H35   H     H_    0.229257 0.088311 0.666628 0.182116
H36   H     H_    0.792994 0.088748 0.264950 0.158388
H37   H     H_    0.929765 0.638140 0.171868 0.223752
H38   H     H_    0.018340 0.665482 0.825490 0.217423
H39   H     H_    0.431508 0.132957 0.174385 0.183133
H40   H     H_    0.518421 0.165470 0.825543 0.214523
H41   H     H_    0.416436 0.465586 0.495749 0.156835
H42   H     H_    0.618546 0.534556 0.393648 0.144175
H43   H     H_    0.910286 0.030685 0.493693 0.152872
H44   H     H_    0.121036 0.971001 0.399102 0.161332
N1    N     N_R   0.892620 0.603790 0.941770 -0.129064
N2    N     N_R   0.107380 0.603790 0.058230 -0.114052
N3    N     N_R   0.392620 0.103790 0.941770 -0.123038
N4    N     N_R   0.607380 0.103790 0.058230 -0.114721
N5    N     N_R   0.952270 0.397640 0.058010 -0.080550
N6    N     N_R   0.047730 0.397640 0.941990 -0.103575
N7    N     N_R   0.452270 0.897640 0.058010 -0.083180
N8    N     N_R   0.547730 0.897640 0.941990 -0.096163
N9    N     N_R   0.026310 0.529110 0.206760 -0.086317
N10   N     N_R   0.973690 0.529110 0.793240 -0.074860
N11   N     N_R   0.526310 0.029110 0.206760 -0.084029
N12   N     N_R   0.473690 0.029110 0.793240 -0.075686
N13   N     N_R   0.818570 0.472310 0.793020 -0.076966
N14   N     N_R   0.181430 0.472310 0.206980 -0.041917
N15   N     N_R   0.318570 0.972310 0.793020 -0.075215
N16   N     N_R   0.681430 0.972310 0.206980 -0.043857
N17   N     N_R   0.026930 0.472300 0.207330 -0.085512
N18   N     N_R   0.973070 0.472300 0.792670 -0.121238
N19   N     N_R   0.526930 0.972300 0.207330 -0.086891
N20   N     N_R   0.473070 0.972300 0.792670 -0.115627
N21   N     N_R   0.817960 0.529130 0.792460 -0.055595
N22   N     N_R   0.182040 0.529130 0.207540 -0.047405
N23   N     N_R   0.317960 0.029130 0.792460 -0.067159
N24   N     N_R   0.682040 0.029130 0.207540 -0.045027
N25   N     N_R   0.894850 0.397640 0.943830 -0.138429
N26   N     N_R   0.105150 0.397640 0.056170 -0.115147
N27   N     N_R   0.394850 0.897640 0.943830 -0.138715
N28   N     N_R   0.605150 0.897640 0.056170 -0.127100
N29   N     N_R   0.950040 0.603780 0.055950 -0.095237
N30   N     N_R   0.049960 0.603780 0.944050 -0.097565
N31   N     N_R   0.450040 0.103780 0.055950 -0.089853
N32   N     N_R   0.549960 0.103780 0.944050 -0.095596
Ni1   Ni    Ni4+2 0.934160 0.565860 0.869070 0.228706
Ni2   Ni    Ni4+2 0.065840 0.565860 0.130930 0.271374
Ni3   Ni    Ni4+2 0.434160 0.065860 0.869070 0.239992
Ni4   Ni    Ni4+2 0.565840 0.065860 0.130930 0.269354
Ni5   Ni    Ni4+2 0.067260 0.435560 0.132230 0.311059
Ni6   Ni    Ni4+2 0.932740 0.435560 0.867770 0.227917
Ni7   Ni    Ni4+2 0.567260 0.935560 0.132230 0.306885
Ni8   Ni    Ni4+2 0.432740 0.935560 0.867770 0.215599
F1    F     F_    0.731906 0.626287 0.800323 -0.696152
F2    F     F_    0.180703 0.672105 0.192940 -0.730069
F3    F     F_    0.243784 0.145398 0.803196 -0.691398
F4    F     F_    0.680943 0.172070 0.193008 -0.731241
F5    F     F_    0.611733 0.357757 0.833460 -0.646521
F6    F     F_    0.012084 0.233671 0.839416 -0.641613
F7    F     F_    0.112111 0.857524 0.833639 -0.654320
F8    F     F_    0.667781 0.728195 0.152016 -0.624797
O1    O     O_3   0.009773 0.766714 0.832305 -0.733769
H45   H     H_    0.986792 0.796545 0.777318 0.382186
O2    O     O_3   0.767755 0.637418 0.150342 -0.677291
H46   H     H_    0.753204 0.645569 0.203012 0.386611
O3    O     O_3   0.510025 0.266525 0.831790 -0.706660
H47   H     H_    0.486983 0.296306 0.776695 0.386278
O4    O     O_3   0.103168 0.143363 0.838278 -0.637562
H48   H     H_    0.139474 0.108633 0.860313 0.328603
O5    O     O_3   0.335574 0.678644 0.134131 -0.729864
H49   H     H_    0.395175 0.659952 0.192869 0.321614
O6    O     O_3   0.675398 0.724770 0.728381 -0.648261
H50   H     H_    0.702429 0.747709 0.698609 0.329297
O7    O     O_3   0.836555 0.179624 0.136295 -0.740191
H51   H     H_    0.895889 0.160998 0.195792 0.320590
O8    O     O_3   0.418125 0.251650 0.107264 -0.708242
H52   H     H_    0.479448 0.270808 0.158491 0.339162
O9    O     O_3   0.816570 0.441268 0.439042 -0.707702
H53   H     H_    0.775073 0.430410 0.360950 0.325711
O10   O     O_3   0.889320 0.427734 0.311812 -0.768979
H54   H     H_    0.871673 0.394732 0.334591 0.331025
O11   O     O_3   0.314738 0.929010 0.443079 -0.700568
H55   H     H_    0.277954 0.912534 0.369072 0.326335
O12   O     O_3   0.394858 0.916539 0.323391 -0.769442
H56   H     H_    0.386655 0.883826 0.356206 0.331931
F9    F     F_    0.957627 0.626335 0.373516 -0.689855
F10   F     F_    0.068805 0.630874 0.656201 -0.664130
F11   F     F_    0.363667 0.104015 0.281134 -0.727312
F12   F     F_    0.439915 0.151735 0.539315 -0.666102
O13   O     O_3   0.117571 0.630232 0.519659 -0.697734
H57   H     H_    0.167106 0.609414 0.586335 0.323466
O14   O     O_3   0.909729 0.632203 0.507556 -0.714061
H58   H     H_    0.861255 0.610563 0.442092 0.309240
O15   O     O_3   0.500849 0.149642 0.416510 -0.757645
H59   H     H_    0.558429 0.144603 0.493022 0.333251
O16   O     O_3   0.300118 0.108577 0.403571 -0.715729
H60   H     H_    0.275233 0.076192 0.354563 0.304296
O17   O     O_3   0.066578 0.405082 0.343699 -0.741415
H61   H     H_    0.078624 0.406034 0.416484 0.329537
O18   O     O_3   0.916896 0.406638 0.648807 -0.696875
H62   H     H_    0.905163 0.386125 0.696351 0.310832
O19   O     O_3   0.562509 0.905757 0.343104 -0.740360
H63   H     H_    0.574297 0.907650 0.415693 0.329961
O20   O     O_3   0.413496 0.906046 0.649654 -0.704379
H64   H     H_    0.398604 0.887328 0.696021 0.309106
F13   F     F_    0.744578 0.357789 0.806099 -0.669682
F14   F     F_    0.184833 0.330287 0.194331 -0.690258
F15   F     F_    0.244760 0.857786 0.805699 -0.668933
F16   F     F_    0.696533 0.830065 0.194155 -0.642382

loop_
_geom_bond_atom_site_label_1
_geom_bond_atom_site_label_2
_ccdc_geom_bond_type
C53   C110  S    
C58   C62   S    
C3    N3    A    
C83   O15   S    
C97   H33   S    
C106  H38   S    
C22   C29   S    
C5    C37   S    
C55   C112  S    
C62   O6    S    
C19   C23   S    
O16   H60   S    
C86   N10   A    
C72   C76   A    
N15   N23   A    
C34   C66   S    
C63   C65   S    
C81   C82   S    
C17   H1    S    
N29   Ni2   S    
C71   C75   A    
C40   C44   A    
O1    H45   S    
N11   Ni4   S    
C50   C54   A    
N12   Ni3   S    
C83   F11   S    
N14   N22   A    
N32   Ni3   S    
C103  N27   A    
C17   C26   S    
C56   C60   A    
N1    N29   A    
C38   C42   A    
C36   C58   A    
C11   C76   S    
N2    Ni2   S    
C22   H42   S    
N22   Ni2   S    
C10   C73   S    
C49   C53   A    
C89   N13   A    
C10   C94   A    
C105  N29   A    
O18   H62   S    
C107  N31   A    
C61   H9    S    
O17   H61   S    
N3    N31   A    
C68   H20   S    
C70   C81   S    
C45   N5    A    
C14   C90   A    
C95   N19   A    
C69   C82   S    
C9    C85   A    
C108  H40   S    
C52   C56   A    
C73   C77   A    
N30   Ni1   S    
C87   N11   A    
O12   H56   S    
C11   C87   A    
C88   N12   A    
N23   Ni3   S    
C70   C74   A    
C52   O4    S    
C3    F3    S    
O14   H58   S    
C6    C38   S    
C69   C73   A    
N7    Ni7   S    
C98   N22   A    
C18   C22   S    
C6    C46   A    
O13   H57   S    
C68   H16   S    
C56   C111  S    
C74   C78   A    
C78   O10   S    
C47   N7    A    
C50   O2    S    
N16   N24   A    
C16   C27   S    
C4    C112  A    
C80   O12   S    
C7    C103  A    
O19   H63   S    
C34   C60   A    
C18   H2    S    
C18   C25   S    
C61   O5    S    
C32   H8    S    
C92   H32   S    
N2    N30   A    
C28   C32   S    
N19   Ni7   S    
C105  C109  A    
C13   C97   A    
C108  N32   A    
C14   C98   A    
C91   H31   S    
C107  H39   S    
C25   C29   S    
C101  F13   S    
N10   N18   A    
N21   Ni1   S    
C12   C88   A    
C63   H11   S    
C27   C31   S    
O2    H46   S    
C102  N26   A    
O5    H49   S    
N3    Ni3   S    
C36   C40   A    
C87   H27   S    
N4    Ni4   S    
O10   H54   S    
O3    H47   S    
N24   Ni4   S    
C3    C111  A    
O8    H52   S    
C20   H4    S    
C53   C57   A    
C16   C100  A    
C1    C109  A    
C98   H34   S    
O7    H51   S    
C77   C78   A    
C29   H5    S    
C23   H43   S    
C33   C37   A    
C108  C112  A    
C54   C109  S    
C79   O11   S    
C34   C38   A    
C82   O14   S    
C35   C39   A    
C94   O18   S    
C8    C48   A    
O4    H48   S    
C99   N23   A    
C29   C30   S    
N8    N28   A    
C67   H15   S    
C46   H22   S    
O9    H53   S    
C61   C67   S    
C97   N21   A    
C83   C84   S    
C19   H3    S    
C2    N2    A    
C4    F4    S    
N6    Ni6   S    
C54   C58   A    
C17   C18   S    
C43   C49   A    
N5    Ni5   S    
N26   Ni5   S    
N20   Ni8   S    
C57   C61   S    
C19   C28   S    
C8    C104  A    
C31   H7    S    
N31   Ni4   S    
C90   H30   S    
C106  N30   A    
C67   H19   S    
C94   N18   A    
C77   O9    S    
C103  F15   S    
C104  N28   A    
C41   C51   A    
C49   O1    S    
C16   C92   A    
C23   C27   S    
N13   N21   A    
C43   F7    S    
C82   F10   S    
C92   N16   A    
C81   O13   S    
C13   C26   S    
C42   F6    S    
C84   O16   S    
C76   C80   A    
C9    C74   S    
N4    N32   A    
C41   F5    S    
N27   Ni8   S    
C100  N24   A    
C9    C93   A    
C62   H10   S    
C101  N25   A    
C55   C59   A    
C81   F9    S    
N11   N19   A    
C71   C84   S    
C106  C110  A    
C85   H25   S    
C11   C95   A    
C104  F16   S    
N12   N20   A    
C88   H28   S    
C21   C25   S    
C42   C52   A    
C2    C110  A    
C7    C39   S    
C96   O20   S    
C64   O8    S    
C13   C89   A    
C2    F2    S    
C107  C111  A    
C48   H24   S    
C31   C32   S    
C1    F1    S    
C33   C65   S    
C24   C28   S    
C15   C99   A    
N15   Ni8   S    
C96   N20   A    
N14   Ni5   S    
C65   H17   S    
O20   H64   S    
N8    Ni8   S    
N6    N26   A    
N13   Ni6   S    
C48   N8    A    
C20   C27   S    
C62   C68   S    
C51   O3    S    
N28   Ni7   S    
C105  H37   S    
C21   C30   S    
C22   C26   S    
C45   H21   S    
C5    C101  A    
C91   N15   A    
C60   C64   S    
N10   Ni1   S    
C85   N9    A    
C23   C32   S    
C63   O7    S    
C19   C20   S    
C1    N1    A    
C24   C31   S    
C99   H35   S    
C90   N14   A    
C66   H18   S    
C64   C66   S    
C64   H12   S    
C75   C79   A    
C95   O19   S    
N17   Ni5   S    
C10   C86   A    
C15   C28   S    
C4    N4    A    
C5    C45   A    
C100  H36   S    
C89   H29   S    
C93   N17   A    
C102  F14   S    
C59   C63   S    
C51   C55   A    
C47   H23   S    
C6    C102  A    
C14   C25   S    
C37   C41   A    
C69   C70   A    
C84   F12   S    
N7    N27   A    
N1    Ni1   S    
C72   C83   S    
N9    Ni2   S    
C35   C67   S    
C86   H26   S    
C15   C91   A    
C79   C80   A    
N18   Ni6   S    
C66   H14   S    
O6    H50   S    
C71   C72   A    
C39   C43   A    
C44   C50   A    
C33   C59   A    
C35   C57   A    
C46   N6    A    
C12   C75   S    
C30   H6    S    
C44   F8    S    
C21   H41   S    
C12   C96   A    
N16   Ni7   S    
C93   O17   S    
C8    C40   S    
N25   Ni6   S    
C65   H13   S    
O15   H59   S    
N9    N17   A    
C36   C68   S    
C20   C24   S    
N5    N25   A    
C24   H44   S    
C7    C47   A    
O11   H55   S    
C26   C30   S    
C17   C21   S    
