data_mof_unit_27422.cif
_audit_creation_date              2013-03-05T16:12:09-0500
_audit_creation_method            fapswitch 2.2
_symmetry_space_group_name_H-M    P1
_symmetry_Int_Tables_number       1
_space_group_crystal_system       triclinic
_cell_length_a                    10.723438
_cell_length_b                    9.406403
_cell_length_c                    27.837961
_cell_angle_alpha                 90.011964
_cell_angle_beta                  89.894099
_cell_angle_gamma                 90.022662
_cell_volume                      2807.98163703

loop_
_atom_site_label
_atom_site_type_symbol
_atom_site_description
_atom_site_fract_x
_atom_site_fract_y
_atom_site_fract_z
_atom_type_partial_charge
O1    O     O_R   0.317570 0.620260 0.500030 -0.596767
O2    O     O_R   0.317570 0.379740 0.500030 -0.600502
C1    C     C_R   0.259640 0.499766 0.500034 0.757924
O3    O     O_R   0.499900 0.620250 0.430280 -0.599423
O4    O     O_R   0.499900 0.379750 0.430280 -0.547513
C2    C     C_R   0.501441 0.499983 0.407476 0.831771
Cu1   Cu    Cu3+1 0.499860 0.642410 0.500020 0.892346
Cu2   Cu    Cu3+1 0.499860 0.357590 0.500020 0.920543
O5    O     O_R   0.682190 0.620260 0.500010 -0.597705
O6    O     O_R   0.682190 0.379740 0.500010 -0.599652
O7    O     O_R   0.499860 0.620280 0.569750 -0.597781
O8    O     O_R   0.499860 0.379720 0.569750 -0.546001
C3    C     C_R   0.740126 0.499810 0.500010 0.750841
C4    C     C_R   0.501093 0.499977 0.592538 0.831328
C5    C     C_R   0.395720 0.517847 0.178446 0.568931
O9    O     O_2   0.288987 0.521295 0.204152 -0.483150
N1    N     N_R   0.507217 0.511495 0.202106 -0.462035
C6    C     C_R   0.617769 0.506581 0.177762 0.542147
C7    C     C_R   0.545693 0.385477 0.277851 -0.185326
C8    C     C_R   0.546721 0.381326 0.328092 0.460267
C9    C     C_R   0.468716 0.624301 0.329772 -0.300481
C10   C     C_R   0.470241 0.628008 0.279763 -0.097407
C11   C     C_R   0.508058 0.508503 0.253642 0.279144
C12   C     C_R   0.505855 0.514131 0.101932 -0.115073
C13   C     C_R   0.392246 0.519309 0.127714 -0.132303
C14   C     C_R   0.279038 0.524992 0.102205 0.517348
C15   C     C_R   0.619176 0.507588 0.127419 0.005433
C16   C     C_R   0.505263 0.500918 0.354524 -0.148592
H1    H     H_    0.437427 0.717734 0.349071 0.170897
H2    H     H_    0.441338 0.723629 0.261215 0.157789
C17   C     C_R   0.504225 0.500737 0.645465 -0.148113
C18   C     C_R   0.392775 0.513817 0.974292 0.090913
C19   C     C_R   0.622756 0.517819 0.974475 -0.028431
C20   C     C_R   0.508267 0.515241 0.949079 0.068133
C21   C     C_R   0.281309 0.505305 0.947298 -0.206582
C22   C     C_R   0.283031 0.504111 0.897519 -0.147904
C23   C     C_R   0.395635 0.509355 0.872432 0.003276
C24   C     C_R   0.509033 0.514392 0.897923 -0.114801
C25   C     C_R   0.622718 0.518220 0.872146 -0.131259
C26   C     C_R   0.619212 0.517270 0.821415 0.567847
N2    N     N_R   0.507686 0.511621 0.797787 -0.462755
C27   C     C_R   0.397086 0.507828 0.822093 0.543721
C28   C     C_R   0.465834 0.626347 0.720329 -0.095029
C29   C     C_R   0.464547 0.622800 0.670313 -0.300880
C30   C     C_R   0.548100 0.382191 0.671765 0.461688
C31   C     C_R   0.547217 0.386294 0.722011 -0.190340
C32   C     C_R   0.506846 0.508125 0.746294 0.283424
O10   O     O_2   0.288792 0.501372 0.797529 -0.539638
C33   C     C_R   0.392159 0.519110 0.025380 -0.028315
C34   C     C_R   0.506617 0.515091 0.050774 0.068055
C35   C     C_R   0.622082 0.512337 0.025558 0.091104
C36   C     C_R   0.280311 0.529097 0.052089 -0.297270
H3    H     H_    0.431116 0.715257 0.651076 0.169340
H4    H     H_    0.434733 0.720960 0.738992 0.155523
H5    H     H_    0.194908 0.498426 0.878702 0.183532
H6    H     H_    0.190256 0.496642 0.963346 0.134311
H7    H     H_    0.190778 0.542820 0.035354 0.153750
O11   O     O_2   0.726167 0.501615 0.202297 -0.545996
C37   C     C_R   0.731707 0.501048 0.102322 -0.147549
H8    H     H_    0.574485 0.292762 0.257590 0.157704
H9    H     H_    0.819745 0.494259 0.121134 0.182149
C38   C     C_R   0.734703 0.526665 0.947775 -0.297455
C39   C     C_R   0.735965 0.522689 0.897657 0.518513
O12   O     O_2   0.725812 0.522640 0.795663 -0.486889
C40   C     C_R   0.733448 0.502331 0.052545 -0.206828
H10   H     H_    0.824343 0.539411 0.964524 0.153691
H11   H     H_    0.578519 0.294649 0.742219 0.153828
H12   H     H_    0.824402 0.492557 0.036489 0.133785
C41   C     C_3   0.071678 0.576981 0.545207 -0.376253
C42   C     C_3   0.071152 0.344096 0.500411 -0.372993
H13   H     H_    0.106156 0.688605 0.545929 0.161525
H14   H     H_    0.105415 0.285275 0.468269 0.161888
H15   H     H_    0.106268 0.523608 0.578286 0.156863
H16   H     H_    0.105105 0.286679 0.532833 0.161076
C43   C     C_3   0.927764 0.577178 0.545171 -0.375482
C44   C     C_3   0.928422 0.344158 0.500405 -0.379725
H17   H     H_    0.892749 0.524212 0.578277 0.146681
H18   H     H_    0.894046 0.286782 0.532828 0.155826
H19   H     H_    0.893567 0.688889 0.545801 0.161881
H20   H     H_    0.894434 0.285410 0.468243 0.156018
H21   H     H_    0.106581 0.686693 0.453308 0.161953
H22   H     H_    0.107108 0.520395 0.421696 0.157131
H23   H     H_    0.893941 0.686825 0.453330 0.161852
H24   H     H_    0.893563 0.520678 0.421677 0.146892
C45   C     C_3   0.072131 0.575093 0.454523 -0.375525
C46   C     C_3   0.121711 0.498995 0.500044 0.161049
C47   C     C_3   0.878055 0.499088 0.500030 0.163855
C48   C     C_3   0.928207 0.575188 0.454522 -0.376182
C49   C     C_3   0.628594 0.083756 0.502735 -0.188944
C50   C     C_3   0.628612 0.916380 0.502793 -0.187418
H25   H     H_    0.677489 0.122920 0.535367 0.145441
H26   H     H_    0.677379 0.877521 0.535505 0.140720
H27   H     H_    0.683148 0.122090 0.471266 0.140378
H28   H     H_    0.683378 0.877897 0.471393 0.139732
H29   H     H_    0.474614 0.120984 0.576970 0.201142
H30   H     H_    0.474926 0.879058 0.577004 0.151677
C51   C     C_3   0.431549 0.083800 0.543000 -0.186191
C52   C     C_3   0.431614 0.916128 0.543023 -0.189257
C53   C     C_3   0.439562 0.083579 0.457480 -0.186953
C54   C     C_3   0.439806 0.916217 0.457418 -0.190202
N3    N     N_3   0.500250 0.143650 0.501060 -0.122692
N4    N     N_3   0.500250 0.856350 0.501060 -0.114128
H31   H     H_    0.342142 0.123292 0.454708 0.136308
H32   H     H_    0.342510 0.876102 0.454524 0.138222
H33   H     H_    0.489003 0.120508 0.424755 0.203486
H34   H     H_    0.489703 0.879450 0.424686 0.152301
H35   H     H_    0.333845 0.123456 0.543175 0.133615
H36   H     H_    0.333948 0.876272 0.543236 0.136736
O13   O     O_3   0.587405 0.259765 0.648884 -0.587817
C55   C     C_3   0.717535 0.268139 0.642157 -0.321585
H37   H     H_    0.767500 0.274312 0.677128 0.178789
H38   H     H_    0.743124 0.360033 0.618955 0.144846
H39   H     H_    0.749222 0.170169 0.623617 0.171958
O14   O     O_3   0.849039 0.532555 0.873839 -0.531503
C56   C     C_3   0.909466 0.399495 0.876088 -0.239762
H40   H     H_    0.991602 0.402155 0.851852 0.205168
H41   H     H_    0.847947 0.311590 0.863487 0.158755
H42   H     H_    0.943685 0.377404 0.913024 0.125994
O15   O     O_3   0.166070 0.535873 0.126043 -0.532238
C57   C     C_3   0.104332 0.403565 0.123577 -0.235032
H43   H     H_    0.165366 0.314449 0.135492 0.159881
H44   H     H_    0.068647 0.383223 0.086731 0.124406
H45   H     H_    0.023122 0.406293 0.148266 0.204633
O16   O     O_3   0.583414 0.257745 0.350815 -0.589362
C58   C     C_3   0.713416 0.263424 0.358032 -0.322470
H46   H     H_    0.739912 0.355142 0.381149 0.145458
H47   H     H_    0.764567 0.267865 0.323222 0.180374
H48   H     H_    0.742756 0.165131 0.376902 0.171955

loop_
_geom_bond_atom_site_label_1
_geom_bond_atom_site_label_2
_geom_bond_distance
_ccdc_geom_bond_type
C53   H31   1.112414 S    
C47   C48   1.550507 S    
C50   H28   1.112721 S    
N2    C27   1.364814 A    
C21   C22   1.385861 A    
C12   C15   1.409655 A    
C4    C17   1.473838 S    
O14   C56   1.411089 S    
Cu1   Cu2   2.679131 S    
C30   C31   1.399288 A    
Cu1   O7    1.952314 S    
N1    C11   1.434981 S    
C22   C23   1.394667 A    
C23   C24   1.409834 A    
C44   H18   1.113861 S    
O4    C2    1.297141 A    
O7    C4    1.297494 A    
C30   O13   1.381524 S    
C5    C13   1.412925 A    
C5    O9    1.349113 S    
C51   C52   1.577191 S    
C54   H32   1.112391 S    
C52   H36   1.112266 S    
C5    N1    1.367441 A    
C35   C40   1.415229 A    
C23   C27   1.401458 A    
C41   H13   1.113216 S    
O5    C3    1.292376 A    
C55   H37   1.113593 S    
C50   N4    1.488461 S    
C39   O14   1.384005 S    
C29   H3    1.082967 S    
C6    O11   1.350133 S    
C2    C16   1.474603 S    
C7    C8    1.399224 A    
C19   C38   1.413193 A    
C56   H41   1.114562 S    
Cu1   N4    2.012611 S    
H30   C52   1.110881 S    
C42   H16   1.113747 S    
C58   H48   1.109416 S    
C41   H15   1.113184 S    
C49   H25   1.112325 S    
Cu2   N3    2.012626 S    
C57   H45   1.108710 S    
H21   C45   1.113223 S    
C40   H12   1.076084 S    
H23   C48   1.113201 S    
O1    Cu1   1.965766 S    
C9    C10   1.392658 A    
C1    C46   1.479080 S    
O3    Cu1   1.952533 S    
C57   H44   1.111961 S    
C19   C20   1.418052 A    
C12   C34   1.424176 A    
C53   H33   1.108989 S    
C37   H9    1.082361 S    
C17   C29   1.405980 A    
C38   H10   1.075798 S    
C18   C21   1.415300 A    
C44   H20   1.113840 S    
C14   O15   1.383989 S    
O3    C2    1.297200 A    
C25   C26   1.412833 A    
C8    C16   1.415405 A    
C34   C35   1.422435 A    
C13   C14   1.408586 A    
C45   C46   1.550507 S    
C9    H1    1.083047 S    
O1    C1    1.292275 A    
C18   C20   1.422472 A    
C7    C11   1.399262 A    
C28   C29   1.392833 A    
C38   C39   1.395703 A    
C14   C36   1.395705 A    
C28   H4    1.082863 S    
C50   H26   1.112826 S    
C53   C54   1.574279 S    
C44   C47   1.554448 S    
Cu2   O8    1.952227 S    
C56   H42   1.112042 S    
C3    C47   1.479091 S    
C54   N4    1.488862 S    
N1    C6    1.365236 A    
N2    C32   1.433870 S    
C27   O10   1.350084 S    
C12   C13   1.413674 A    
C43   H17   1.112365 S    
C55   H39   1.109266 S    
C43   C47   1.550671 S    
C26   N2    1.366965 A    
C53   N3    1.488949 S    
C9    C16   1.406077 A    
O8    C4    1.296883 A    
C42   C44   1.530555 S    
C58   H46   1.113290 S    
C42   C46   1.554477 S    
C57   H43   1.114636 S    
C45   C48   1.543364 S    
Cu1   O5    1.966356 S    
C31   C32   1.398814 A    
C10   H2    1.082898 S    
C49   N3    1.488159 S    
C21   H6    1.076062 S    
C20   C24   1.424105 A    
O2    Cu2   1.965930 S    
C6    C15   1.401548 A    
H24   C48   1.112578 S    
C33   C36   1.413154 A    
O6    C3    1.288808 A    
O4    Cu2   1.952620 S    
O15   C57   1.411162 S    
H29   C51   1.109602 S    
C7    H8    1.083227 S    
C19   C35   1.423000 A    
H22   C45   1.113179 S    
C25   C39   1.408554 A    
C54   H34   1.111029 S    
C26   O12   1.349132 S    
O2    C1    1.288849 A    
C31   H11   1.083228 S    
C22   H5    1.082599 S    
C15   C37   1.394624 A    
O13   C55   1.409787 S    
C37   C40   1.385836 A    
C24   C25   1.413907 A    
C43   H19   1.113211 S    
C41   C43   1.543259 S    
C49   H27   1.112554 S    
C55   H38   1.113116 S    
C18   C33   1.423041 A    
C8    O16   1.381249 S    
C36   H7    1.075761 S    
C52   N4    1.489751 S    
C51   H35   1.112276 S    
Cu2   O6    1.966192 S    
C33   C34   1.418063 A    
C17   C30   1.415220 A    
C58   H47   1.113423 S    
C10   C11   1.398480 A    
C42   H14   1.113764 S    
C49   C50   1.574406 S    
C28   C32   1.398015 A    
C51   N3    1.489831 S    
C41   C46   1.550512 S    
C56   H40   1.108782 S    
O16   C58   1.409835 S    
