data_mof_unit_64199.cif
_audit_creation_date              2012-12-10T20:00:29-0500
_audit_creation_method            fapswitch 2.2
_symmetry_space_group_name_H-M    P1
_symmetry_Int_Tables_number       1
_space_group_crystal_system       triclinic
_cell_length_a                    32.085383
_cell_length_b                    32.085393
_cell_length_c                    30.203759
_cell_angle_alpha                 89.999567
_cell_angle_beta                  90.000115
_cell_angle_gamma                 90.00003
_cell_volume                      31093.9279027

loop_
_atom_site_label
_atom_site_type_symbol
_atom_type_description
_atom_site_fract_x
_atom_site_fract_y
_atom_site_fract_z
_atom_type_partial_charge
C1    C     C_R   0.419322 1.000000 1.000000 0.859138
C2    C     C_R   1.000000 0.580678 1.000000 0.859155
C3    C     C_R   0.580678 0.000000 0.000000 0.859115
C4    C     C_R   1.000000 0.419322 0.000000 0.859223
C5    C     C_R   0.919322 0.500000 0.500000 0.859143
C6    C     C_R   0.500000 0.080679 0.500000 0.859110
C7    C     C_R   0.080679 0.500000 0.500000 0.859095
C8    C     C_R   0.500000 0.919321 0.500000 0.859106
C9    C     C_R   0.271777 0.975922 0.031100 0.482162
C10   C     C_R   0.975916 0.728222 0.031094 0.482170
C11   C     C_R   0.728223 0.024203 0.030989 0.482160
C12   C     C_R   0.023735 0.271777 0.031395 0.482162
C13   C     C_R   0.271777 0.024078 0.968900 0.482163
C14   C     C_R   0.976264 0.271777 0.968605 0.482164
C15   C     C_R   0.728223 0.975797 0.969010 0.482166
C16   C     C_R   0.024084 0.728223 0.968906 0.482169
C17   C     C_R   0.771777 0.475970 0.531141 0.482171
C18   C     C_R   0.475828 0.228223 0.531017 0.482172
C19   C     C_R   0.228223 0.524256 0.530943 0.482173
C20   C     C_R   0.524193 0.771777 0.530998 0.482172
C21   C     C_R   0.771777 0.524030 0.468859 0.482171
C22   C     C_R   0.475807 0.771777 0.469001 0.482175
C23   C     C_R   0.228223 0.475744 0.469057 0.482174
C24   C     C_R   0.524172 0.228223 0.468983 0.482172
C25   C     C_R   0.293288 1.000000 0.000000 -0.232777
C26   C     C_R   1.000000 0.706712 1.000000 -0.232778
C27   C     C_R   0.706712 1.000000 1.000000 -0.232773
C28   C     C_R   1.000000 0.293288 0.000000 -0.232787
C29   C     C_R   0.793288 0.500000 0.500000 -0.232781
C30   C     C_R   0.500000 0.206712 0.500000 -0.232779
C31   C     C_R   0.206712 0.500000 0.500000 -0.232778
C32   C     C_R   0.500000 0.793288 0.500000 -0.232778
C33   C     C_1   0.161915 1.000000 0.000000 0.247646
C34   C     C_1   1.000000 0.838085 0.000000 0.247672
C35   C     C_1   0.838085 1.000000 1.000000 0.247649
C36   C     C_1   1.000000 0.161915 0.999999 0.247663
C37   C     C_1   0.661915 0.500000 0.500000 0.247671
C38   C     C_1   0.500000 0.338085 0.500000 0.247672
C39   C     C_1   0.338084 0.500000 0.500000 0.247681
C40   C     C_1   0.500000 0.661915 0.499999 0.247673
C41   C     C_1   0.337779 1.000000 1.000000 0.245947
C42   C     C_1   1.000000 0.662220 1.000000 0.245954
C43   C     C_1   0.662221 1.000000 1.000000 0.245950
C44   C     C_1   1.000000 0.337780 0.000000 0.245941
C45   C     C_1   0.837780 0.500000 0.500000 0.245954
C46   C     C_1   0.500000 0.162221 0.500000 0.245962
C47   C     C_1   0.162221 0.500000 0.500000 0.245965
C48   C     C_1   0.500000 0.837779 0.500000 0.245963
C49   C     C_1   0.375085 1.000000 1.000000 -0.113374
C50   C     C_1   1.000000 0.624915 1.000000 -0.113374
C51   C     C_1   0.624915 0.000000 1.000000 -0.113365
C52   C     C_1   1.000000 0.375084 0.000000 -0.113404
C53   C     C_1   0.875085 0.500000 0.500000 -0.113366
C54   C     C_1   0.500000 0.124916 0.500000 -0.113354
C55   C     C_1   0.124916 0.500000 0.500000 -0.113347
C56   C     C_1   0.500000 0.875084 0.500000 -0.113351
C57   C     C_1   0.124606 1.000000 0.000000 -0.126125
C58   C     C_1   1.000000 0.875394 0.000000 -0.126092
C59   C     C_1   0.875394 1.000000 1.000000 -0.126128
C60   C     C_1   1.000000 0.124606 1.000000 -0.126085
C61   C     C_1   0.624606 0.500000 0.500000 -0.126092
C62   C     C_1   0.500000 0.375394 0.500000 -0.126101
C63   C     C_1   0.375394 0.500000 0.500000 -0.126097
C64   C     C_1   0.500000 0.624606 0.500000 -0.126101
C65   C     C_R   1.000000 0.080359 1.000000 0.876089
C66   C     C_R   0.080360 1.000000 0.000000 0.876131
C67   C     C_R   1.000000 0.919640 0.000000 0.876180
C68   C     C_R   0.919640 1.000000 1.000000 0.876163
C69   C     C_R   0.500000 0.580360 0.500000 0.876212
C70   C     C_R   0.580359 0.500000 0.500000 0.876180
C71   C     C_R   0.500000 0.419640 0.500000 0.876206
C72   C     C_R   0.419640 0.500000 0.500000 0.876234
C73   C     C_R   0.500000 1.000000 0.086754 0.854168
C74   C     C_R   1.000000 0.500000 0.086754 0.854201
C75   C     C_R   0.500000 0.000000 0.913246 0.854168
C76   C     C_R   1.000000 0.500000 0.913246 0.854201
C77   C     C_R   0.000000 0.500000 0.586754 0.854160
C78   C     C_R   0.500000 1.000000 0.586754 0.854157
C79   C     C_R   0.000000 0.500000 0.413246 0.854160
C80   C     C_R   0.500000 1.000000 0.413246 0.854155
C81   C     C_R   0.476680 0.030309 0.342758 0.391919
C82   C     C_R   0.030307 0.523324 0.342758 0.391914
C83   C     C_R   0.523318 0.969687 0.342759 0.391926
C84   C     C_R   0.969692 0.476677 0.342759 0.391935
C85   C     C_R   0.476677 0.969692 0.657242 0.391918
C86   C     C_R   0.030307 0.476675 0.657242 0.391917
C87   C     C_R   0.523323 0.030308 0.657241 0.391919
C88   C     C_R   0.969695 0.523326 0.657241 0.391935
C89   C     C_R   0.976679 0.530310 0.842758 0.391923
C90   C     C_R   0.530308 0.023323 0.842758 0.391915
C91   C     C_R   0.023322 0.469692 0.842759 0.391951
C92   C     C_R   0.469692 0.976677 0.842759 0.391926
C93   C     C_R   0.976678 0.469692 0.157242 0.391953
C94   C     C_R   0.530301 0.976669 0.157242 0.391909
C95   C     C_R   0.023322 0.530308 0.157241 0.391925
C96   C     C_R   0.469695 0.023328 0.157241 0.391925
C97   C     C_R   0.500000 0.999999 0.365527 -0.280076
C98   C     C_R   1.000000 0.500000 0.365526 -0.280084
C99   C     C_R   0.500000 1.000000 0.634474 -0.280083
C100  C     C_R   0.000000 0.500000 0.634474 -0.280086
C101  C     C_R   0.000000 0.500001 0.865526 -0.280114
C102  C     C_R   0.500000 0.000000 0.865526 -0.280089
C103  C     C_R   0.000000 0.500000 0.134473 -0.280117
C104  C     C_R   0.499999 0.999999 0.134474 -0.280098
C105  C     C_R   0.527052 0.972692 0.296612 -0.102079
C106  C     C_R   0.972700 0.472941 0.296612 -0.102089
C107  C     C_R   0.472944 0.027302 0.296612 -0.102083
C108  C     C_R   0.027300 0.527060 0.296612 -0.102077
C109  C     C_R   0.527058 0.027301 0.703388 -0.102080
C110  C     C_R   0.972703 0.527062 0.703388 -0.102089
C111  C     C_R   0.472941 0.972700 0.703388 -0.102083
C112  C     C_R   0.027300 0.472940 0.703389 -0.102080
C113  C     C_R   0.027058 0.472699 0.796613 -0.102085
C114  C     C_R   0.472699 0.972942 0.796612 -0.102083
C115  C     C_R   0.972944 0.527303 0.796612 -0.102074
C116  C     C_R   0.527300 0.027059 0.796612 -0.102078
C117  C     C_R   0.027058 0.527301 0.203388 -0.102072
C118  C     C_R   0.472702 0.027061 0.203388 -0.102085
C119  C     C_R   0.972942 0.472699 0.203388 -0.102085
C120  C     C_R   0.527292 0.972933 0.203388 -0.102083
C121  C     C_R   0.499998 0.999997 0.273309 -0.130114
C122  C     C_R   1.000000 0.500000 0.273308 -0.130104
C123  C     C_R   0.500000 0.000000 0.726692 -0.130110
C124  C     C_R   0.000002 0.500001 0.726692 -0.130104
C125  C     C_R   0.000002 0.500001 0.773309 -0.130105
C126  C     C_R   0.500000 0.000000 0.773308 -0.130111
C127  C     C_R   1.000000 0.500000 0.226691 -0.130106
C128  C     C_R   0.499997 0.999997 0.226692 -0.130108
C129  C     C_R   0.555121 0.946964 0.272916 0.444960
C130  C     C_R   0.946979 0.444865 0.272916 0.444988
C131  C     C_R   0.444872 0.053028 0.272915 0.444964
C132  C     C_R   0.053020 0.555136 0.272915 0.444952
C133  C     C_R   0.555134 0.053022 0.727084 0.444961
C134  C     C_R   0.946984 0.555139 0.727084 0.444984
C135  C     C_R   0.444865 0.946979 0.727084 0.444963
C136  C     C_R   0.053020 0.444864 0.727085 0.444956
C137  C     C_R   0.055133 0.446977 0.772917 0.445024
C138  C     C_R   0.446977 0.944867 0.772916 0.444977
C139  C     C_R   0.944870 0.553027 0.772915 0.444978
C140  C     C_R   0.553022 0.055135 0.772915 0.444960
C141  C     C_R   0.055133 0.553024 0.227084 0.444974
C142  C     C_R   0.446985 0.055141 0.227084 0.444976
C143  C     C_R   0.944867 0.446977 0.227084 0.445024
C144  C     C_R   0.553007 0.944852 0.227085 0.444958
C145  C     C_R   0.227958 0.024243 0.968696 0.296854
C146  C     C_R   0.024249 0.772042 0.968702 0.296871
C147  C     C_R   0.772041 0.975631 0.968807 0.296871
C148  C     C_R   0.976101 0.227959 0.968399 0.296875
C149  C     C_R   0.227959 0.975757 0.031304 0.296873
C150  C     C_R   0.023898 0.227958 0.031601 0.296870
C151  C     C_R   0.772042 0.024369 0.031192 0.296854
C152  C     C_R   0.975750 0.772041 0.031298 0.296877
C153  C     C_R   0.727958 0.524195 0.468655 0.296874
C154  C     C_R   0.524338 0.272042 0.468780 0.296870
C155  C     C_R   0.272041 0.475578 0.468854 0.296878
C156  C     C_R   0.475641 0.727959 0.468798 0.296881
C157  C     C_R   0.727958 0.475805 0.531345 0.296872
C158  C     C_R   0.524359 0.727958 0.531201 0.296870
C159  C     C_R   0.272041 0.524422 0.531145 0.296879
C160  C     C_R   0.475662 0.272041 0.531220 0.296880
C161  C     C_R   0.206495 1.000000 0.000000 -0.135693
C162  C     C_R   1.000000 0.793505 0.000000 -0.135691
C163  C     C_R   0.793505 1.000000 1.000000 -0.135679
C164  C     C_R   1.000000 0.206495 1.000000 -0.135729
C165  C     C_R   0.706494 0.500000 0.500000 -0.135694
C166  C     C_R   0.500000 0.293505 0.500000 -0.135686
C167  C     C_R   0.293505 0.500000 0.500000 -0.135679
C168  C     C_R   0.500000 0.706495 0.500000 -0.135684
O1    O     O_R   0.439020 0.965540 0.000010 -0.600739
O2    O     O_R   0.965540 0.560980 0.000010 -0.600734
O3    O     O_R   0.560980 0.034460 0.000010 -0.600718
O4    O     O_R   0.034460 0.439020 0.000010 -0.600813
O5    O     O_R   0.439020 0.034460 0.999990 -0.600747
O6    O     O_R   0.965540 0.439020 0.999990 -0.600810
O7    O     O_R   0.560980 0.965540 0.999990 -0.600714
O8    O     O_R   0.034460 0.560980 0.999990 -0.600740
O9    O     O_R   0.939020 0.465540 0.500010 -0.600747
O10   O     O_R   0.465540 0.060980 0.500010 -0.600715
O11   O     O_R   0.060980 0.534460 0.500010 -0.600701
O12   O     O_R   0.534460 0.939020 0.500010 -0.600718
O13   O     O_R   0.939020 0.534460 0.499990 -0.600751
O14   O     O_R   0.465540 0.939020 0.499990 -0.600713
O15   O     O_R   0.060980 0.465540 0.499990 -0.600699
O16   O     O_R   0.534460 0.060980 0.499990 -0.600723
O17   O     O_R   0.500030 0.965530 0.066070 -0.596255
O18   O     O_R   0.965530 0.499970 0.066070 -0.596271
O19   O     O_R   0.499970 0.034470 0.066070 -0.596263
O20   O     O_R   0.034470 0.500030 0.066070 -0.596265
O21   O     O_R   0.500030 0.034470 0.933930 -0.596262
O22   O     O_R   0.965530 0.500030 0.933930 -0.596261
O23   O     O_R   0.499970 0.965530 0.933930 -0.596263
O24   O     O_R   0.034470 0.499970 0.933930 -0.596276
O25   O     O_R   0.000030 0.465530 0.566070 -0.596250
O26   O     O_R   0.465530 0.999970 0.566070 -0.596256
O27   O     O_R   0.999970 0.534470 0.566070 -0.596264
O28   O     O_R   0.534470 0.000030 0.566070 -0.596261
O29   O     O_R   0.000030 0.534470 0.433930 -0.596257
O30   O     O_R   0.465530 0.000030 0.433930 -0.596257
O31   O     O_R   0.999970 0.465530 0.433930 -0.596258
O32   O     O_R   0.534470 0.999970 0.433930 -0.596265
O33   O     O_R   0.000010 0.060910 0.037350 -0.598873
O34   O     O_R   0.060910 0.999990 0.037350 -0.598937
O35   O     O_R   0.999990 0.939090 0.037350 -0.598935
O36   O     O_R   0.939090 0.000010 0.037350 -0.598943
O37   O     O_R   0.000010 0.939090 0.962650 -0.598928
O38   O     O_R   0.060910 0.000010 0.962650 -0.598922
O39   O     O_R   0.999990 0.060910 0.962650 -0.598878
O40   O     O_R   0.939090 0.999990 0.962650 -0.598957
O41   O     O_R   0.500010 0.560910 0.537350 -0.598947
O42   O     O_R   0.560910 0.499990 0.537350 -0.598926
O43   O     O_R   0.499990 0.439090 0.537350 -0.598953
O44   O     O_R   0.439090 0.500010 0.537350 -0.598961
O45   O     O_R   0.500010 0.439090 0.462650 -0.598943
O46   O     O_R   0.560910 0.500010 0.462650 -0.598926
O47   O     O_R   0.499990 0.560910 0.462650 -0.598956
O48   O     O_R   0.439090 0.499990 0.462650 -0.598961
Zn1   Zn    Zn3+2 0.500000 0.953990 0.000000 1.067665
Zn2   Zn    Zn3+2 0.953990 0.500000 0.000000 1.067571
Zn3   Zn    Zn3+2 0.500000 0.046010 0.000000 1.067647
Zn4   Zn    Zn3+2 0.046010 0.500000 0.000000 1.067552
Zn5   Zn    Zn3+2 0.000000 0.453990 0.500000 1.067697
Zn6   Zn    Zn3+2 0.453990 0.000000 0.500000 1.067702
Zn7   Zn    Zn3+2 1.000000 0.546010 0.500000 1.067679
Zn8   Zn    Zn3+2 0.546010 0.000000 0.500000 1.067682
Zn9   Zn    Zn3+2 0.000000 0.000000 0.049810 1.068813
Zn10  Zn    Zn3+2 1.000000 0.000000 0.950190 1.068814
Zn11  Zn    Zn3+2 0.500000 0.500000 0.549810 1.068735
Zn12  Zn    Zn3+2 0.500000 0.500000 0.450190 1.068736
O49   O     O_3   0.458874 0.063921 0.364505 -0.708865
H1    H     H_    0.473999 0.069552 0.392432 0.340935
O50   O     O_3   0.063916 0.541134 0.364505 -0.708887
H2    H     H_    0.069550 0.526010 0.392431 0.340924
O51   O     O_3   0.541124 0.936077 0.364507 -0.708873
H3    H     H_    0.526002 0.930448 0.392436 0.340933
O52   O     O_3   0.936083 0.458867 0.364505 -0.708826
H4    H     H_    0.930450 0.473991 0.392432 0.340963
O53   O     O_3   0.458867 0.936083 0.635495 -0.708868
H5    H     H_    0.473991 0.930450 0.607569 0.340934
O54   O     O_3   0.063913 0.458861 0.635495 -0.708887
H6    H     H_    0.069549 0.473985 0.607568 0.340925
O55   O     O_3   0.541133 0.063917 0.635494 -0.708866
H7    H     H_    0.526009 0.069550 0.607567 0.340938
O56   O     O_3   0.936087 0.541138 0.635495 -0.708824
H8    H     H_    0.930451 0.526013 0.607569 0.340965
O57   O     O_3   0.958871 0.563920 0.864505 -0.708848
H9    H     H_    0.973995 0.569552 0.892432 0.340952
O58   O     O_3   0.563917 0.041133 0.864505 -0.708881
H10   H     H_    0.569550 0.026009 0.892432 0.340932
O59   O     O_3   0.041129 0.436081 0.864506 -0.708756
H11   H     H_    0.026004 0.430448 0.892432 0.341013
O60   O     O_3   0.436083 0.958868 0.864505 -0.708842
H12   H     H_    0.430449 0.973992 0.892432 0.340955
O61   O     O_3   0.958869 0.436082 0.135495 -0.708753
H13   H     H_    0.973993 0.430449 0.107568 0.341014
O62   O     O_3   0.563907 0.958853 0.135496 -0.708871
H14   H     H_    0.569546 0.973979 0.107571 0.340936
O63   O     O_3   0.041131 0.563918 0.135494 -0.708849
H15   H     H_    0.026007 0.569551 0.107567 0.340953
O64   O     O_3   0.436090 0.041144 0.135494 -0.708843
H16   H     H_    0.430453 0.026020 0.107568 0.340958
O65   O     O_3   0.585358 0.923295 0.293402 -0.625684
H17   H     H_    0.598799 0.941211 0.316022 0.372008
O66   O     O_3   0.923316 0.414623 0.293402 -0.625643
H18   H     H_    0.941233 0.401189 0.316026 0.372020
O67   O     O_3   0.414634 0.076695 0.293401 -0.625677
H19   H     H_    0.401196 0.058780 0.316025 0.372015
O68   O     O_3   0.076683 0.585378 0.293401 -0.625690
H20   H     H_    0.058765 0.598812 0.316025 0.372017
O69   O     O_3   0.585376 0.076685 0.706598 -0.625689
H21   H     H_    0.598810 0.058768 0.683974 0.372009
O70   O     O_3   0.923323 0.585383 0.706597 -0.625658
H22   H     H_    0.941242 0.598816 0.683973 0.372006
O71   O     O_3   0.414624 0.923316 0.706599 -0.625679
H23   H     H_    0.401189 0.941232 0.683974 0.372017
O72   O     O_3   0.076682 0.414621 0.706600 -0.625671
H24   H     H_    0.058764 0.401186 0.683978 0.372030
O73   O     O_3   0.085374 0.423314 0.793403 -0.625636
H25   H     H_    0.098808 0.441230 0.816028 0.371982
O74   O     O_3   0.423314 0.914625 0.793402 -0.625671
H26   H     H_    0.441231 0.901191 0.816026 0.372003
O75   O     O_3   0.914630 0.576692 0.793401 -0.625665
H27   H     H_    0.901194 0.558776 0.816024 0.372007
O76   O     O_3   0.576685 0.085376 0.793401 -0.625695
H28   H     H_    0.558768 0.098810 0.816025 0.372007
O77   O     O_3   0.085373 0.576688 0.206598 -0.625680
H29   H     H_    0.098808 0.558771 0.183974 0.371998
O78   O     O_3   0.423328 0.085387 0.206598 -0.625677
H30   H     H_    0.441248 0.098819 0.183975 0.372002
O79   O     O_3   0.914626 0.423313 0.206598 -0.625620
H31   H     H_    0.901191 0.441230 0.183974 0.371991
O80   O     O_3   0.576663 0.914604 0.206599 -0.625693
H32   H     H_    0.558743 0.901175 0.183974 0.372010
F1    F     F_    0.293493 0.047188 0.939040 -0.625556
F2    F     F_    0.047201 0.706508 0.939051 -0.625550
F3    F     F_    0.706507 0.952566 0.939256 -0.625549
F4    F     F_    0.953483 0.293494 0.938461 -0.625547
F5    F     F_    0.293493 0.952811 0.060960 -0.625552
F6    F     F_    0.046517 0.293492 0.061539 -0.625551
F7    F     F_    0.706507 0.047434 0.060743 -0.625559
F8    F     F_    0.952799 0.706506 0.060948 -0.625546
F9    F     F_    0.793493 0.547095 0.438959 -0.625546
F10   F     F_    0.547373 0.206508 0.439202 -0.625548
F11   F     F_    0.206507 0.452463 0.439347 -0.625543
F12   F     F_    0.452585 0.793494 0.439239 -0.625540
F13   F     F_    0.793493 0.452905 0.561041 -0.625545
F14   F     F_    0.547414 0.793492 0.560761 -0.625549
F15   F     F_    0.206507 0.547537 0.560652 -0.625546
F16   F     F_    0.452627 0.206506 0.560797 -0.625543
O81   O     O_3   0.205348 0.047560 0.938597 -0.706668
H33   H     H_    0.224722 0.062839 0.918889 0.402323
O82   O     O_3   0.047573 0.794653 0.938609 -0.706645
H34   H     H_    0.062855 0.775278 0.918904 0.402328
O83   O     O_3   0.794652 0.952192 0.938815 -0.706659
H35   H     H_    0.775277 0.936834 0.919176 0.402326
O84   O     O_3   0.953115 0.205348 0.938013 -0.706595
H36   H     H_    0.938053 0.224723 0.918118 0.402329
O85   O     O_3   0.205348 0.952439 0.061403 -0.706646
H37   H     H_    0.224723 0.937161 0.081111 0.402326
O86   O     O_3   0.046885 0.205347 0.061986 -0.706604
H38   H     H_    0.061946 0.224722 0.081882 0.402328
O87   O     O_3   0.794652 0.047807 0.061185 -0.706684
H39   H     H_    0.775278 0.063165 0.080823 0.402322
O88   O     O_3   0.952427 0.794651 0.061392 -0.706636
H40   H     H_    0.937144 0.775276 0.081096 0.402328
O89   O     O_3   0.705348 0.547467 0.438516 -0.706635
H41   H     H_    0.724722 0.562715 0.418781 0.402327
O90   O     O_3   0.547746 0.294653 0.438761 -0.706664
H42   H     H_    0.563084 0.275278 0.419104 0.402326
O91   O     O_3   0.294652 0.452088 0.438906 -0.706665
H43   H     H_    0.275277 0.436697 0.419298 0.402326
O92   O     O_3   0.452211 0.705348 0.438797 -0.706650
H44   H     H_    0.436860 0.724723 0.419153 0.402329
O93   O     O_3   0.705348 0.452533 0.561485 -0.706637
H45   H     H_    0.724723 0.437285 0.581219 0.402327
O94   O     O_3   0.547788 0.705347 0.561203 -0.706666
H46   H     H_    0.563139 0.724722 0.580847 0.402326
O95   O     O_3   0.294652 0.547912 0.561093 -0.706663
H47   H     H_    0.275278 0.563303 0.580702 0.402327
O96   O     O_3   0.452253 0.294651 0.561240 -0.706649
H48   H     H_    0.436915 0.275276 0.580895 0.402328

loop_
_geom_bond_atom_site_label_1
_geom_bond_atom_site_label_2
_ccdc_geom_bond_type
C82   O50   S    
C23   C155  A    
C119  C143  A    
O80   H32   S    
C159  O95   S    
C7    C55   S    
C8    C56   S    
O95   H47   S    
O93   H45   S    
O33   Zn9   S    
C9    C149  A    
C112  C136  A    
C112  C124  A    
C87   O55   S    
C8    O14   A    
O70   H22   S    
C77   C100  S    
O47   Zn12  S    
C77   O25   A    
C155  O91   S    
C156  O92   S    
C143  O79   S    
O72   H24   S    
C155  C167  A    
C120  C144  A    
O38   Zn10  S    
C160  C166  A    
C130  O66   S    
C67   O37   A    
O16   Zn8   S    
O26   Zn6   S    
C94   C104  A    
C81   O49   S    
O57   H9    S    
O7    Zn1   S    
O23   Zn1   S    
C6    C54   S    
C6    O16   A    
C41   C49   T    
C24   C154  A    
O34   Zn9   S    
C144  O80   S    
C139  O75   S    
C158  C168  A    
O88   H40   S    
C70   O46   A    
C12   C150  A    
O60   H12   S    
C84   O52   S    
C121  C128  A    
C25   C41   S    
C123  C126  A    
C21   C29   A    
C28   C44   S    
C35   C163  S    
C83   C105  A    
C29   C45   S    
C23   C31   A    
C22   F12   S    
O49   H1    S    
C8    O12   A    
C15   C27   A    
C11   C27   A    
C90   O58   S    
O37   Zn10  S    
C154  O90   S    
O28   Zn8   S    
C115  C139  A    
C60   C65   S    
C71   O43   A    
C96   C104  A    
C113  C137  A    
O35   Zn9   S    
C106  C130  A    
C111  C123  A    
C89   C101  A    
C11   F7    S    
C131  O67   S    
C7    O15   A    
O75   H27   S    
O45   Zn12  S    
C145  C161  A    
C96   O64   S    
C158  O94   S    
C159  C167  A    
O12   Zn8   S    
C77   O27   A    
C76   O22   A    
O94   H46   S    
C58   C67   S    
O87   H39   S    
C78   C99   S    
C34   C58   T    
C160  O96   S    
C21   C153  A    
O36   Zn9   S    
O21   Zn3   S    
C38   C62   T    
C89   C115  A    
C80   C97   S    
O13   Zn7   S    
C13   C145  A    
C57   C66   S    
C18   F16   S    
C111  C135  A    
C93   C103  A    
C88   O56   S    
C129  C144  A    
C95   C117  A    
O18   Zn2   S    
C1    O5    A    
O59   H11   S    
O48   Zn12  S    
C22   C32   A    
C85   C99   A    
O65   H17   S    
C114  C126  A    
C156  C168  A    
C157  O93   S    
O55   H7    S    
C122  C127  A    
C90   C102  A    
C2    C50   S    
O40   Zn10  S    
O44   Zn11  S    
C94   C120  A    
C83   O51   S    
C89   O57   S    
O6    Zn2   S    
C82   C108  A    
C17   C157  A    
O51   H3    S    
O4    Zn4   S    
C142  O78   S    
C110  C124  A    
C44   C52   T    
C45   C53   T    
O53   H5    S    
C147  O83   S    
C91   C101  A    
C141  O77   S    
C95   C103  A    
C124  C125  A    
C82   C98   A    
C7    O11   A    
C148  C164  A    
C19   F15   S    
C153  O89   S    
C20   C158  A    
C157  C165  A    
C134  C139  A    
C109  C123  A    
C37   C165  S    
C152  O88   S    
C150  O86   S    
C16   F2    S    
C135  O71   S    
C75   O23   A    
C76   O24   A    
C27   C43   S    
O39   Zn10  S    
C149  O85   S    
O52   H4    S    
C106  C122  A    
O79   H31   S    
C78   O28   A    
C64   C69   S    
C42   C50   T    
C11   C151  A    
C90   C116  A    
O8    Zn4   S    
C70   O42   A    
C110  C134  A    
C136  O72   S    
C26   C42   S    
C20   C32   A    
C132  C141  A    
C20   F14   S    
C4    O4    A    
C153  C165  A    
C30   C46   S    
C136  C137  A    
C34   C162  S    
C73   O17   A    
O68   H20   S    
C65   O39   A    
C92   C102  A    
C150  C164  A    
C13   F1    S    
C88   C110  A    
C147  C163  A    
C94   O62   S    
C132  O68   S    
C146  O82   S    
C62   C71   S    
C114  C138  A    
C108  C132  A    
C18   C160  A    
C66   O34   A    
O76   H28   S    
C4    O6    A    
C93   C119  A    
O9    Zn5   S    
O3    Zn3   S    
O62   H14   S    
C119  C127  A    
C61   C70   S    
O1    Zn1   S    
C81   C107  A    
C17   C29   A    
O54   H6    S    
C19   C31   A    
C151  O87   S    
C9    C25   A    
O66   H18   S    
C146  C162  A    
C12   C28   A    
C75   O21   A    
C93   O61   S    
C68   O36   A    
O56   H8    S    
C35   C59   T    
C78   O26   A    
C10   C152  A    
C68   O40   A    
C84   C106  A    
O74   H26   S    
C86   C100  A    
C9    F5    S    
C24   F10   S    
O25   Zn5   S    
O84   H36   S    
C31   C47   S    
O69   H21   S    
C6    O10   A    
C32   C48   S    
C129  O65   S    
O22   Zn2   S    
C5    O13   A    
C73   O19   A    
C74   O20   A    
O20   Zn4   S    
C16   C26   A    
O14   Zn6   S    
C79   O31   A    
C14   F4    S    
C3    C51   S    
C22   C156  A    
O29   Zn7   S    
C71   O45   A    
C109  C133  A    
C117  C141  A    
O92   H44   S    
O77   H29   S    
O96   H48   S    
O15   Zn5   S    
C80   O30   A    
C46   C54   T    
C86   O54   S    
C117  C127  A    
C88   C100  A    
C2    O2    A    
C3    O7    A    
C72   O48   A    
C149  C161  A    
C107  C121  A    
C91   O59   S    
C5    C53   S    
C38   C166  S    
C12   F6    S    
C85   C111  A    
C40   C64   T    
C120  C128  A    
C87   C109  A    
C19   C159  A    
O90   H42   S    
C15   C147  A    
C43   C51   T    
O83   H35   S    
O61   H13   S    
C85   O53   S    
O89   H41   S    
C10   F8    S    
O86   H38   S    
C145  O81   S    
C63   C72   S    
C133  C140  A    
C83   C97   A    
C17   F13   S    
C36   C164  S    
C154  C166  A    
O41   Zn11  S    
C152  C162  A    
C74   O18   A    
C135  C138  A    
O82   H34   S    
C79   O29   A    
C138  O74   S    
O91   H43   S    
C79   C98   S    
C33   C161  S    
C69   O47   A    
O19   Zn3   S    
O81   H33   S    
C15   F3    S    
O17   Zn1   S    
C4    C52   S    
C96   C118  A    
O30   Zn6   S    
O63   H15   S    
C66   O38   A    
C113  C125  A    
C80   O32   A    
C14   C148  A    
C16   C146  A    
O2    Zn2   S    
C2    O8    A    
C73   C104  S    
O78   H30   S    
C1    C49   S    
C75   C102  S    
O31   Zn5   S    
O46   Zn12  S    
O67   H19   S    
C48   C56   T    
C10   C26   A    
C116  C126  A    
C13   C25   A    
C118  C128  A    
C87   C99   A    
O32   Zn8   S    
C107  C131  A    
C105  C129  A    
C134  O70   S    
C91   C113  A    
O11   Zn7   S    
C86   C112  A    
C59   C68   S    
C133  O69   S    
O42   Zn11  S    
O71   H23   S    
C105  C121  A    
C130  C143  A    
C5    O9    A    
C131  C142  A    
C18   C30   A    
C151  C163  A    
C69   O41   A    
O24   Zn4   S    
C140  O76   S    
O64   H16   S    
C47   C55   T    
C92   O60   S    
C76   C101  S    
C95   O63   S    
C33   C57   T    
C108  C122  A    
C118  C142  A    
C37   C61   T    
O58   H10   S    
C39   C63   T    
C115  C125  A    
C67   O35   A    
C137  O73   S    
C84   C98   A    
C148  O84   S    
O27   Zn7   S    
C3    O3    A    
C72   O44   A    
C81   C97   A    
C1    O1    A    
C21   F9    S    
C39   C167  S    
O85   H37   S    
O5    Zn3   S    
C24   C30   A    
C40   C168  S    
C23   F11   S    
C65   O33   A    
O50   H2    S    
C36   C60   T    
O10   Zn6   S    
O43   Zn11  S    
C14   C28   A    
O73   H25   S    
C92   C114  A    
C74   C103  S    
C116  C140  A    
