data_mof_unit_27433.cif
_audit_creation_date              2013-03-05T15:41:13-0500
_audit_creation_method            fapswitch 2.2
_symmetry_space_group_name_H-M    P1
_symmetry_Int_Tables_number       1
_space_group_crystal_system       triclinic
_cell_length_a                    16.874842
_cell_length_b                    16.784243
_cell_length_c                    16.787043
_cell_angle_alpha                 68.720755
_cell_angle_beta                  68.658229
_cell_angle_gamma                 68.759488
_cell_volume                      3978.84112397

loop_
_atom_site_label
_atom_site_type_symbol
_atom_site_description
_atom_site_fract_x
_atom_site_fract_y
_atom_site_fract_z
_atom_type_partial_charge
O1    O     O_R   0.124540 0.978640 0.385460 -0.551450
O2    O     O_R   0.875460 0.021360 0.614540 -0.567589
O3    O     O_R   0.978640 0.385460 0.124540 -0.551868
O4    O     O_R   0.021360 0.614540 0.875460 -0.556431
O5    O     O_R   0.385460 0.124540 0.978640 -0.562501
O6    O     O_R   0.614540 0.875460 0.021360 -0.573065
O7    O     O_R   0.614540 0.021360 0.875460 -0.561137
O8    O     O_R   0.385460 0.978640 0.124540 -0.534054
O9    O     O_R   0.875460 0.614540 0.021360 -0.536179
O10   O     O_R   0.124540 0.385460 0.978640 -0.546323
O11   O     O_R   0.021360 0.875460 0.614540 -0.512638
O12   O     O_R   0.978640 0.124540 0.385460 -0.552070
C1    C     C_R   0.323156 0.956087 0.450313 -0.003193
C2    C     C_R   0.675415 0.039188 0.555509 -0.026468
C3    C     C_R   0.944492 0.454653 0.325574 -0.010130
C4    C     C_R   0.040600 0.550442 0.677083 -0.023390
C5    C     C_R   0.452421 0.322807 0.952731 -0.022000
C6    C     C_R   0.554200 0.672106 0.049778 -0.030604
C7    C     C_R   0.569969 0.985601 0.693826 0.008348
C8    C     C_R   0.449245 0.964627 0.320433 -0.000261
C9    C     C_R   0.691780 0.569269 0.991492 0.004990
C10   C     C_R   0.317883 0.441572 0.982832 -0.002198
C11   C     C_R   0.987377 0.690670 0.574148 0.004636
C12   C     C_R   0.956094 0.322190 0.451131 -0.004876
Cu1   Cu    Cu3+1 0.995180 0.995180 0.424630 1.089641
Cu2   Cu    Cu3+1 0.004820 0.004820 0.575370 1.115831
Cu3   Cu    Cu3+1 0.995180 0.424630 0.995180 1.096552
Cu4   Cu    Cu3+1 0.004820 0.575370 0.004820 1.130397
Cu5   Cu    Cu3+1 0.424630 0.995180 0.995180 1.102767
Cu6   Cu    Cu3+1 0.575370 0.004820 0.004820 1.063575
C13   C     C_R   0.018265 0.830201 0.568545 0.830025
C14   C     C_R   0.972556 0.171547 0.434951 0.828448
C15   C     C_R   0.831782 0.569324 0.014515 0.839996
C16   C     C_R   0.171072 0.433569 0.976774 0.821533
C17   C     C_R   0.569774 0.012306 0.832497 0.853665
C18   C     C_R   0.433124 0.979571 0.170062 0.826855
C19   C     C_R   0.435294 0.171473 0.972400 0.859909
C20   C     C_R   0.564777 0.828392 0.028151 0.873651
C21   C     C_R   0.969772 0.436194 0.172006 0.790824
C22   C     C_R   0.027610 0.564533 0.828475 0.910073
C23   C     C_R   0.170803 0.977239 0.433574 0.785222
C24   C     C_R   0.829117 0.023633 0.566379 0.908654
O13   O     O_R   0.013780 0.867370 0.487190 -0.601048
O14   O     O_R   0.986220 0.132630 0.512810 -0.598935
O15   O     O_R   0.867370 0.487190 0.013780 -0.602593
O16   O     O_R   0.132630 0.512810 0.986220 -0.591472
O17   O     O_R   0.487190 0.013780 0.867370 -0.590173
O18   O     O_R   0.512810 0.986220 0.132630 -0.594863
O19   O     O_R   0.512810 0.132630 0.986220 -0.589806
O20   O     O_R   0.487190 0.867370 0.013780 -0.549598
O21   O     O_R   0.986220 0.512810 0.132630 -0.561781
O22   O     O_R   0.013780 0.487190 0.867370 -0.588314
O23   O     O_R   0.132630 0.986220 0.512810 -0.563475
O24   O     O_R   0.867370 0.013780 0.487190 -0.589325
C25   C     C_R   0.408628 0.967594 0.409240 0.059086
C26   C     C_R   0.597800 0.009447 0.600570 0.039442
C27   C     C_R   0.957899 0.411724 0.410877 0.062574
C28   C     C_R   0.008816 0.597214 0.601189 0.041275
C29   C     C_R   0.408598 0.402451 0.978395 0.050938
C30   C     C_R   0.598887 0.594705 0.019352 0.058069
C31   C     C_R   0.267679 0.970292 0.396179 -0.168196
C32   C     C_R   0.732921 0.028421 0.606346 -0.086367
C33   C     C_R   0.950048 0.402326 0.271818 -0.167687
C34   C     C_R   0.040713 0.599831 0.730110 -0.080243
C35   C     C_R   0.400935 0.270565 0.955170 -0.115230
C36   C     C_R   0.604107 0.730567 0.038431 -0.140257
C37   C     C_R   0.613081 0.003606 0.740684 -0.144913
C38   C     C_R   0.396054 0.973870 0.266364 -0.151790
C39   C     C_R   0.739104 0.612165 0.009708 -0.128324
C40   C     C_R   0.268563 0.396560 0.967978 -0.153571
C41   C     C_R   0.015978 0.735815 0.611366 -0.138011
C42   C     C_R   0.955275 0.270483 0.400285 -0.157067
C43   C     C_R   0.505061 0.937515 0.737155 -0.083368
C44   C     C_R   0.542264 0.951712 0.290725 -0.097432
C45   C     C_R   0.937606 0.735117 0.511156 -0.078490
C46   C     C_R   0.949183 0.289786 0.543666 -0.103541
C47   C     C_R   0.734117 0.503797 0.943676 -0.081293
C48   C     C_R   0.283075 0.529414 0.992509 -0.083141
C49   C     C_R   0.298913 0.925292 0.543967 -0.026595
C50   C     C_R   0.693390 0.074032 0.461802 -0.093193
C51   C     C_R   0.545902 0.302831 0.918501 -0.085199
C52   C     C_R   0.462490 0.686565 0.092397 -0.053040
C53   C     C_R   0.916482 0.548964 0.301086 -0.025927
C54   C     C_R   0.075192 0.457069 0.693774 -0.090730
C55   C     C_R   0.303688 0.988593 0.303144 -0.120068
C56   C     C_R   0.700376 0.009033 0.700026 -0.111327
C57   C     C_R   0.946575 0.312945 0.312485 -0.085847
C58   C     C_R   0.042839 0.688538 0.690388 -0.100946
C59   C     C_R   0.312136 0.311379 0.952307 -0.104810
C60   C     C_R   0.696905 0.697129 0.023748 -0.095587
C61   C     C_R   0.658158 0.045479 0.414304 -0.008518
C62   C     C_R   0.341736 0.939607 0.594918 -0.034349
C63   C     C_R   0.045890 0.410726 0.658245 -0.015679
C64   C     C_R   0.931906 0.597939 0.345613 -0.029739
C65   C     C_R   0.412313 0.641771 0.079217 -0.021213
C66   C     C_R   0.594017 0.341114 0.942550 -0.017400
C67   C     C_R   0.579972 0.988870 0.327027 -0.012430
C68   C     C_R   0.444463 0.948400 0.691532 -0.008773
C69   C     C_R   0.321149 0.556037 0.037276 -0.038315
C70   C     C_R   0.689003 0.441977 0.956069 -0.013613
C71   C     C_R   0.988622 0.325186 0.579440 -0.017280
C72   C     C_R   0.944892 0.690730 0.450461 -0.011734
C73   C     C_R   0.696476 0.046361 0.323158 -0.041989
C74   C     C_R   0.308594 0.929309 0.688194 -0.099002
C75   C     C_R   0.050388 0.318823 0.693857 -0.042883
C76   C     C_R   0.922419 0.691310 0.314180 -0.092937
C77   C     C_R   0.317999 0.665082 0.104105 -0.087538
C78   C     C_R   0.685935 0.306523 0.934607 -0.044393
C79   C     C_R   0.658610 0.016024 0.280569 -0.035632
C80   C     C_R   0.359789 0.934189 0.735903 -0.025760
C81   C     C_R   0.273371 0.621845 0.082974 -0.021084
C82   C     C_R   0.733262 0.357097 0.941155 -0.017650
C83   C     C_R   0.022536 0.276298 0.653990 -0.033609
C84   C     C_R   0.930044 0.736661 0.366238 -0.018516
C85   C     C_R   0.539153 0.993919 0.414977 0.028534
C86   C     C_R   0.470775 0.972886 0.598234 0.029573
C87   C     C_R   0.990232 0.414178 0.540471 0.028371
C88   C     C_R   0.967731 0.597653 0.475434 0.024100
C89   C     C_R   0.412192 0.523833 0.024546 0.019263
C90   C     C_R   0.596285 0.466505 0.983674 0.022010
C91   C     C_R   0.582233 0.013622 0.460501 0.020383
C92   C     C_R   0.421458 0.965172 0.550424 0.033957
C93   C     C_R   0.458437 0.569851 0.039713 0.027837
C94   C     C_R   0.548927 0.416998 0.975112 0.027737
C95   C     C_R   0.011151 0.458439 0.583980 0.016229
C96   C     C_R   0.958191 0.551537 0.425190 0.032878
C97   C     C_R   0.456607 0.974802 0.458680 -0.016896
C98   C     C_R   0.549510 0.000154 0.552824 -0.020880
C99   C     C_R   0.967903 0.459617 0.459038 -0.012584
C100  C     C_R   0.996547 0.550904 0.553183 -0.021281
C101  C     C_R   0.456948 0.448003 0.991962 -0.009289
C102  C     C_R   0.551090 0.543617 0.014594 -0.017278
C103  C     C_2   0.244068 0.035069 0.243686 0.924741
O25   O     O_2   0.221951 0.116113 0.220560 -0.581655
O26   O     O_R   0.213980 0.986109 0.214210 -0.685492
H1    H     H_    0.174111 0.025343 0.174043 0.358760
C104  C     C_2   0.760825 0.976696 0.757570 0.958695
O27   O     O_2   0.795046 0.897280 0.780935 -0.491983
O28   O     O_R   0.780165 0.037034 0.782567 -0.733026
H2    H     H_    0.822980 0.006736 0.820833 0.350545
C105  C     C_2   0.923924 0.268257 0.264966 0.920081
O29   O     O_2   0.981623 0.215240 0.226006 -0.521438
O30   O     O_R   0.838173 0.295226 0.256397 -0.734427
H3    H     H_    0.831848 0.265837 0.216714 0.357429
C106  C     C_2   0.088204 0.722989 0.725589 0.948084
O31   O     O_2   0.047258 0.779853 0.765921 -0.496258
O32   O     O_R   0.177371 0.682215 0.719997 -0.724087
H4    H     H_    0.203441 0.711788 0.743295 0.360814
C107  C     C_2   0.269065 0.265884 0.925233 0.921669
O33   O     O_2   0.215120 0.226805 0.980751 -0.524633
O34   O     O_R   0.298952 0.258527 0.838276 -0.729663
H5    H     H_    0.269949 0.220389 0.829063 0.357220
C108  C     C_2   0.751649 0.753331 0.016081 0.981757
O35   O     O_2   0.800708 0.780432 0.944246 -0.508876
O36   O     O_R   0.745364 0.776521 0.090467 -0.714115
H6    H     H_    0.782122 0.818739 0.075577 0.353657
C109  C     C_1   0.321446 0.934277 0.828795 0.312338
N1    N     N_1   0.290942 0.934407 0.902684 -0.232869
C110  C     C_1   0.697405 0.018248 0.187383 0.288394
N2    N     N_1   0.728331 0.019733 0.113170 -0.250661
C111  C     C_1   0.935177 0.827963 0.328407 0.304865
N3    N     N_1   0.940393 0.900293 0.298247 -0.240667
C112  C     C_1   0.036912 0.180750 0.684373 0.301975
N4    N     N_1   0.048160 0.104608 0.708435 -0.235214
C113  C     C_1   0.824987 0.318115 0.942516 0.305758
N5    N     N_1   0.897934 0.286984 0.944226 -0.241866
C114  C     C_1   0.177891 0.641226 0.111993 0.310542
N6    N     N_1   0.101847 0.655990 0.134959 -0.263562
C115  C     C_1   0.219768 0.921108 0.735642 0.299970
N7    N     N_1   0.149017 0.914699 0.774906 -0.180375
C116  C     C_1   0.778881 0.070465 0.274583 0.311252
N8    N     N_1   0.844393 0.090033 0.235419 -0.229774
C117  C     C_1   0.730560 0.216652 0.926831 0.304836
N9    N     N_1   0.766258 0.145037 0.920627 -0.226341
C118  C     C_1   0.264663 0.738239 0.143201 0.305766
N10   N     N_1   0.220434 0.796415 0.174254 -0.190885
C119  C     C_1   0.913641 0.741356 0.225670 0.349392
N11   N     N_1   0.907546 0.782845 0.155015 -0.207842
C120  C     C_1   0.074865 0.269254 0.776266 0.310463
N12   N     N_1   0.094429 0.229480 0.841895 -0.228428
C121  C     C_2   0.522785 0.853780 0.809738 0.878616
O37   O     O_2   0.587350 0.833030 0.837202 -0.601525
O38   O     O_R   0.471815 0.793609 0.839849 -0.752374
H7    H     H_    0.493062 0.738202 0.885762 0.339499
C122  C     C_2   0.598350 0.868759 0.263018 0.931992
O39   O     O_2   0.566021 0.825144 0.244909 -0.569264
O40   O     O_R   0.686446 0.835846 0.266067 -0.753279
H8    H     H_    0.715048 0.775330 0.254264 0.368104
C123  C     C_2   0.854681 0.805996 0.532770 0.877543
O41   O     O_2   0.836582 0.831897 0.598202 -0.595081
O42   O     O_R   0.792268 0.835582 0.484730 -0.756057
H9    H     H_    0.735170 0.875583 0.512023 0.337511
C124  C     C_2   0.873641 0.251256 0.604669 0.942393
O43   O     O_2   0.822007 0.243107 0.574346 -0.560107
O44   O     O_R   0.858056 0.229242 0.696698 -0.735796
H10   H     H_    0.808065 0.199888 0.729681 0.388252
C125  C     C_2   0.804987 0.521700 0.858832 0.879563
O45   O     O_2   0.833873 0.585776 0.837464 -0.595528
O46   O     O_R   0.831474 0.471568 0.798360 -0.749699
H11   H     H_    0.873581 0.495190 0.740714 0.338835
C126  C     C_2   0.253185 0.601183 0.917204 0.915449
O47   O     O_2   0.266017 0.583941 0.848073 -0.564329
O48   O     O_R   0.214728 0.688596 0.923565 -0.753267
H12   H     H_    0.199427 0.731940 0.867692 0.337023
C127  C     C_2   0.264846 0.846486 0.578838 0.828431
O49   O     O_2   0.191127 0.849038 0.628455 -0.581428
O50   O     O_R   0.315812 0.771148 0.548629 -0.723699
H13   H     H_    0.283853 0.723360 0.570533 0.365738
C128  C     C_2   0.716659 0.160926 0.421604 0.888641
O51   O     O_2   0.696126 0.211127 0.354086 -0.567119
O52   O     O_R   0.752644 0.190279 0.465302 -0.745135
H14   H     H_    0.760689 0.252081 0.433385 0.372254
C129  C     C_2   0.587028 0.273791 0.834028 0.904563
O53   O     O_2   0.653656 0.294509 0.782091 -0.566728
O54   O     O_R   0.546092 0.231426 0.808655 -0.752063
H15   H     H_    0.580300 0.217651 0.749393 0.349425
C130  C     C_2   0.431097 0.717223 0.173799 0.841922
O55   O     O_2   0.447205 0.664308 0.242247 -0.543918
O56   O     O_R   0.384241 0.804869 0.173205 -0.707596
H16   H     H_    0.365838 0.815717 0.233814 0.351812
C131  C     C_2   0.840146 0.588939 0.262275 0.822196
O57   O     O_2   0.847641 0.635558 0.186352 -0.557176
O58   O     O_R   0.759441 0.570166 0.313206 -0.719744
H17   H     H_    0.712212 0.599990 0.279992 0.357311
C132  C     C_2   0.162409 0.416349 0.715887 0.884051
O59   O     O_2   0.213456 0.351313 0.690915 -0.571017
O60   O     O_R   0.190825 0.457094 0.755979 -0.752654
H18   H     H_    0.253622 0.427056 0.760474 0.370988

loop_
_geom_bond_atom_site_label_1
_geom_bond_atom_site_label_2
_geom_bond_distance
_ccdc_geom_bond_type
C7    C26   1.406354 A    
O10   Cu3   1.981406 S    
C11   C28   1.410299 A    
C2    C26   1.419621 A    
O48   H12   1.010225 S    
C1    C49   1.414739 A    
C109  N1    1.157563 T    
C68   C80   1.413043 A    
O5    C19   1.301795 A    
C93   C102  1.404394 A    
C15   O15   1.291639 A    
C126  O47   1.221834 D    
C27   C99   1.413403 A    
C21   O21   1.294496 A    
O32   H4    1.008570 S    
C48   C126  1.490667 S    
C23   C31   1.499403 S    
C116  N8    1.157401 T    
C17   O17   1.295038 A    
Cu1   O13   1.979936 S    
C111  N3    1.156175 T    
C126  O48   1.399467 S    
Cu2   O14   1.979935 S    
O26   H1    1.013828 S    
C36   C60   1.417952 A    
C127  O49   1.215010 D    
C35   C59   1.414840 A    
C124  O43   1.223403 D    
C32   C56   1.417765 A    
Cu4   O16   1.989628 S    
C113  N5    1.156691 T    
C13   O13   1.297192 A    
C76   C84   1.412546 A    
C85   C91   1.408496 A    
O9    C15   1.289431 A    
C75   C83   1.413131 A    
C45   C123  1.497544 S    
C132  O59   1.223629 D    
C107  O34   1.396545 S    
C110  N2    1.157013 T    
C31   C55   1.413872 A    
Cu4   O21   1.979365 S    
C122  O40   1.399142 S    
C65   C93   1.423831 A    
O30   H3    1.013356 S    
C2    C32   1.437492 A    
C4    C54   1.418747 A    
C85   C97   1.410907 A    
C47   C70   1.414171 A    
C123  O42   1.398156 S    
O8    C18   1.302424 A    
C92   C97   1.404901 A    
C125  O46   1.398395 S    
C88   C96   1.414015 A    
O58   H17   1.014121 S    
C56   C104  1.484522 S    
C63   C75   1.421768 A    
C95   C100  1.403500 A    
C51   C129  1.506759 S    
O4    C22   1.301354 A    
C12   C27   1.413132 A    
C124  O44   1.397417 S    
C19   C35   1.503388 S    
C45   C72   1.414803 A    
C89   C101  1.413368 A    
O34   H5    1.013490 S    
O6    C20   1.299199 A    
C7    C37   1.409853 A    
C69   C81   1.406452 A    
C16   O16   1.291480 A    
C2    C50   1.421979 A    
C108  O36   1.395902 S    
C87   C99   1.415037 A    
C43   C121  1.505676 S    
C24   C32   1.497855 S    
C76   C119  1.448907 S    
C72   C88   1.403863 A    
C15   C39   1.484701 S    
C44   C122  1.498464 S    
Cu3   O15   1.989629 S    
C64   C96   1.419028 A    
C66   C78   1.419132 A    
O11   C13   1.288309 A    
O46   H11   1.011784 S    
C10   C29   1.415728 A    
O7    Cu6   1.969856 S    
C117  N9    1.157191 T    
O12   C14   1.295486 A    
C73   C116  1.450917 S    
C38   C55   1.415243 A    
C3    C27   1.410578 A    
C1    C31   1.435028 A    
C30   C102  1.410640 A    
C123  O41   1.222691 D    
O7    C17   1.293524 A    
C75   C120  1.451923 S    
C8    C25   1.407196 A    
C54   C132  1.501900 S    
C6    C52   1.419077 A    
O4    Cu4   1.970129 S    
C106  O31   1.223695 D    
C44   C67   1.418065 A    
O5    Cu5   1.970863 S    
Cu5   O20   1.981589 S    
C127  O50   1.398483 S    
C43   C68   1.413755 A    
C59   C107  1.487402 S    
C106  O32   1.392460 S    
O42   H9    1.011080 S    
C115  N7    1.157689 T    
C11   C41   1.423215 A    
C7    C43   1.419404 A    
C49   C127  1.471966 S    
Cu1   O24   1.988347 S    
C10   C48   1.421989 A    
C91   C98   1.404002 A    
C14   C42   1.500806 S    
C121  O38   1.399177 S    
C11   C45   1.414200 A    
C114  N6    1.155665 T    
C51   C66   1.428284 A    
C66   C94   1.414334 A    
C12   C46   1.422425 A    
C84   C111  1.452229 S    
C3    C53   1.423057 A    
C96   C99   1.406500 A    
C47   C125  1.503020 S    
C130  O55   1.222567 D    
C121  O37   1.222712 D    
C53   C64   1.429952 A    
C69   C89   1.393323 A    
O50   H13   1.012133 S    
C94   C101  1.400709 A    
C9    C39   1.415544 A    
O38   H7    1.013280 S    
O52   H14   1.013502 S    
Cu5   Cu6   2.672020 S    
C88   C100  1.413422 A    
C62   C92   1.416362 A    
C83   C112  1.450976 S    
C131  O57   1.217869 D    
C19   O19   1.297340 A    
C68   C86   1.406382 A    
O60   H18   1.013057 S    
C17   C37   1.482258 S    
C48   C69   1.407287 A    
C58   C106  1.472286 S    
C29   C101  1.419757 A    
C78   C117  1.451809 S    
C18   C38   1.486259 S    
C128  O51   1.223033 D    
C14   O14   1.295639 A    
C8    C44   1.421876 A    
O10   C16   1.301048 A    
Cu1   Cu2   2.659290 S    
C4    C28   1.411897 A    
C57   C105  1.486261 S    
C60   C108  1.488801 S    
C72   C84   1.408141 A    
C41   C58   1.416981 A    
C104  O28   1.398506 S    
C23   O23   1.287813 A    
C49   C62   1.426997 A    
C80   C109  1.454960 S    
C86   C92   1.411798 A    
C9    C30   1.408767 A    
C70   C90   1.405787 A    
O1    C23   1.301635 A    
O6    Cu6   1.970863 S    
Cu6   O19   1.981589 S    
Cu5   O17   1.979731 S    
C70   C82   1.414898 A    
C61   C91   1.414589 A    
C103  O25   1.222549 D    
C28   C100  1.410387 A    
C40   C59   1.422800 A    
C67   C85   1.403477 A    
O8    Cu5   1.969855 S    
C39   C60   1.407943 A    
C79   C110  1.451550 S    
Cu2   O23   1.988347 S    
O56   H16   1.014054 S    
C42   C57   1.421662 A    
Cu3   O22   1.979366 S    
C12   C42   1.427191 A    
Cu6   O18   1.979729 S    
C46   C71   1.411752 A    
C16   C40   1.504485 S    
C6    C36   1.433423 A    
C128  O52   1.397467 S    
C37   C56   1.401575 A    
C34   C58   1.401209 A    
C52   C65   1.431614 A    
C33   C57   1.418209 A    
C90   C102  1.417903 A    
C77   C81   1.413119 A    
C8    C38   1.429508 A    
C61   C73   1.424711 A    
O2    Cu2   1.980721 S    
C25   C97   1.411353 A    
O28   H2    1.013772 S    
O1    Cu1   1.980722 S    
O11   Cu2   1.970449 S    
C20   O20   1.301954 A    
C89   C93   1.412248 A    
C120  N12   1.157440 T    
C130  O56   1.393424 S    
C21   C33   1.510370 S    
C104  O27   1.221348 D    
C5    C35   1.423176 A    
C22   C34   1.498542 S    
O12   Cu1   1.970449 S    
C73   C79   1.418172 A    
C71   C87   1.402485 A    
C50   C61   1.431002 A    
C105  O30   1.396115 S    
C67   C79   1.415571 A    
C5    C29   1.410418 A    
C129  O54   1.397913 S    
O40   H8    1.012497 S    
C131  O58   1.397452 S    
C118  N10   1.157786 T    
C22   O22   1.288161 A    
C105  O29   1.224227 D    
C24   O24   1.291831 A    
C74   C80   1.413122 A    
C122  O39   1.223736 D    
C52   C130  1.482797 S    
C77   C118  1.450070 S    
O2    C24   1.297257 A    
C129  O53   1.222664 D    
C82   C113  1.451039 S    
O3    Cu3   1.970127 S    
C132  O60   1.399005 S    
C65   C77   1.429728 A    
C18   O18   1.287755 A    
C5    C51   1.424022 A    
C54   C63   1.426633 A    
C26   C98   1.410330 A    
O54   H15   1.014210 S    
C125  O45   1.222890 D    
C71   C83   1.415173 A    
C63   C95   1.416457 A    
C112  N4    1.156621 T    
C64   C76   1.428116 A    
C46   C124  1.502797 S    
C62   C74   1.425025 A    
C81   C114  1.450198 S    
O3    C21   1.302216 A    
O44   H10   1.011987 S    
C53   C131  1.483703 S    
C78   C82   1.411835 A    
C20   C36   1.501426 S    
C6    C30   1.417270 A    
C119  N11   1.157451 T    
C86   C98   1.416339 A    
C9    C47   1.419954 A    
O36   H6    1.013111 S    
C103  O26   1.399364 S    
C3    C33   1.431247 A    
C50   C128  1.498124 S    
C4    C34   1.420387 A    
C1    C25   1.405120 A    
C108  O35   1.222508 D    
C107  O33   1.224305 D    
C87   C95   1.407638 A    
C10   C40   1.438388 A    
C13   C41   1.491800 S    
C90   C94   1.414638 A    
O9    Cu4   1.981406 S    
C55   C103  1.487979 S    
C74   C115  1.449515 S    
Cu3   Cu4   2.658644 S    
