data_mof_unit_49070.cif
_audit_creation_date              2012-12-10T17:33:43-0500
_audit_creation_method            fapswitch 2.2
_symmetry_space_group_name_H-M    P1
_symmetry_Int_Tables_number       1
_space_group_crystal_system       triclinic
_cell_length_a                    11.6984
_cell_length_b                    12.368193
_cell_length_c                    13.164373
_cell_angle_alpha                 116.72124
_cell_angle_beta                  77.556982
_cell_angle_gamma                 101.46718
_cell_volume                      1649.96802857

loop_
_atom_site_label
_atom_site_type_symbol
_atom_type_description
_atom_site_fract_x
_atom_site_fract_y
_atom_site_fract_z
_atom_type_partial_charge
C1    C     C_R   0.509128 0.854792 0.286459 0.792748
C2    C     C_R   0.459156 0.227861 0.835536 -0.052749
C3    C     C_R   0.577338 0.814794 0.082793 -0.286555
C4    C     C_R   0.594636 0.736247 0.966499 0.493921
C5    C     C_R   0.555699 0.612427 0.930827 -0.259124
C6    C     C_R   0.491200 0.565793 0.009863 0.008528
C7    C     C_R   0.458913 0.649351 0.124454 0.024398
C8    C     C_R   0.456640 0.439276 0.978306 0.077824
C9    C     C_R   0.380025 0.398673 0.057651 0.097878
C10   C     C_R   0.334328 0.484882 0.166828 0.111901
C11   C     C_R   0.372930 0.608904 0.196867 -0.172493
C12   C     C_R   0.715765 0.999873 0.499762 0.819108
C13   C     C_R   0.498071 0.351481 0.869754 -0.232226
C14   C     C_R   0.386865 0.187882 0.914045 -0.193251
C15   C     C_R   0.511746 0.772504 0.163061 -0.152367
C16   C     C_R   0.684863 0.351414 0.329678 -0.292809
C17   C     C_R   0.342679 0.760721 0.646572 0.051571
C18   C     C_R   0.306703 0.664667 0.678568 -0.277148
C19   C     C_R   0.364656 0.560424 0.623100 -0.199440
C20   C     C_R   0.459847 0.551383 0.534656 0.014727
C21   C     C_R   0.493528 0.652788 0.505089 0.273911
C22   C     C_R   0.523697 0.446808 0.474957 -0.035740
C23   C     C_R   0.483251 0.145107 0.713646 0.793428
C24   C     C_R   0.618402 0.448041 0.388179 0.132821
C25   C     C_R   0.649053 0.546801 0.360455 -0.270910
C26   C     C_R   0.588497 0.647181 0.418172 -0.172941
C27   C     C_R   0.499163 0.341000 0.496994 -0.019102
C28   C     C_R   0.660985 0.251862 0.356264 0.356917
C29   C     C_R   0.284225 0.000021 0.500105 0.818298
C30   C     C_1   0.837548 0.999785 0.499571 -0.186817
C31   C     C_1   0.940080 0.999705 0.499523 -0.004532
C32   C     C_1   0.059923 0.999678 0.499641 -0.003274
C33   C     C_1   0.162443 0.999771 0.499847 -0.188304
C34   C     C_R   0.348612 0.272051 0.024242 -0.203037
Cu1   Cu    Cu3+1 0.526510 0.098270 0.475420 0.928452
Cu2   Cu    Cu3+1 0.473490 0.901730 0.524580 0.902323
H1    H     H_    0.356261 0.092006 0.889076 0.143540
H2    H     H_    0.722109 0.547325 0.293945 0.152226
H3    H     H_    0.757728 0.354224 0.263641 0.143572
H4    H     H_    0.427518 0.332664 0.560900 0.134307
H5    H     H_    0.297087 0.841170 0.690189 0.135706
H6    H     H_    0.333733 0.488757 0.651188 0.139415
H7    H     H_    0.233786 0.671165 0.746719 0.152012
H8    H     H_    0.620358 0.718916 0.392101 0.208821
H9    H     H_    0.291694 0.236305 0.081247 0.130397
H10   H     H_    0.560898 0.376576 0.808885 0.150530
H11   H     H_    0.616917 0.908619 0.110009 0.159560
H12   H     H_    0.574304 0.556557 0.839951 0.148987
H13   H     H_    0.332599 0.675387 0.276030 0.183543
N1    N     N_R   0.566700 0.246290 0.438210 -0.193257
N2    N     N_R   0.434010 0.754320 0.561170 -0.214915
O1    O     O_R   0.533340 0.972510 0.318140 -0.599890
O2    O     O_R   0.488570 0.806530 0.359650 -0.600608
O3    O     O_R   0.685190 0.083000 0.479260 -0.573795
O4    O     O_R   0.640410 0.917020 0.520770 -0.596952
O5    O     O_R   0.511430 0.193470 0.640350 -0.581257
O6    O     O_R   0.466660 0.027490 0.681860 -0.598750
O7    O     O_R   0.359590 0.082980 0.479230 -0.573564
O8    O     O_R   0.314810 0.917000 0.520740 -0.582494
C35   C     C_3   0.245594 0.442773 0.249550 -0.416544
C36   C     C_3   0.196778 0.542586 0.363310 -0.815204
H14   H     H_    0.268966 0.598675 0.413714 0.269141
H15   H     H_    0.148483 0.601113 0.347583 0.245339
H16   H     H_    0.134123 0.499882 0.414992 0.244737
H17   H     H_    0.168958 0.386970 0.205388 0.200930
H18   H     H_    0.288224 0.384269 0.270790 0.210095
O9    O     O_3   0.659912 0.778080 0.887907 -0.577392
C37   C     C_3   0.583520 0.824513 0.851630 0.028863
H19   H     H_    0.547653 0.906324 0.924418 0.141411
H20   H     H_    0.509180 0.754304 0.815489 0.155481
C38   C     C_3   0.651751 0.861827 0.757962 -0.723890
H21   H     H_    0.684814 0.781043 0.682183 0.248525
H22   H     H_    0.593103 0.901568 0.731275 0.231039
H23   H     H_    0.727497 0.931030 0.790473 0.240925
C39   C     C_3   0.745243 0.155981 0.290829 -0.375845
C40   C     C_3   0.866378 0.201747 0.330935 -0.840359
H24   H     H_    0.858139 0.231165 0.425022 0.272581
H25   H     H_    0.923863 0.127366 0.286271 0.240126
H26   H     H_    0.909315 0.279669 0.310671 0.239934
H27   H     H_    0.714741 0.069160 0.295752 0.250735
H28   H     H_    0.755904 0.133264 0.197645 0.166307

loop_
_geom_bond_atom_site_label_1
_geom_bond_atom_site_label_2
_ccdc_geom_bond_type
C16   C28   A    
C21   C26   A    
C8    C13   A    
Cu1   Cu2   S    
C40   H26   S    
Cu2   O8    S    
C17   N2    A    
C26   H8    S    
C23   O5    A    
C7    C11   A    
Cu1   O7    S    
C40   H25   S    
C5    C6    A    
C29   C33   S    
C18   C19   A    
C36   H15   S    
C2    C13   A    
C1    O2    A    
Cu2   O2    S    
C37   H19   S    
C28   N1    A    
C29   O8    A    
C8    C9    A    
C1    C15   S    
C39   H27   S    
C27   N1    A    
C7    C15   A    
C35   H18   S    
C16   C24   A    
Cu1   O3    S    
C2    C23   S    
C5    H12   S    
O9    C37   S    
C40   H24   S    
Cu2   O6    S    
C38   H22   S    
C39   H28   S    
C6    C8    A    
C25   C26   A    
C35   C36   S    
C36   H16   S    
C10   C35   S    
C39   C40   S    
C11   H13   S    
C25   H2    S    
C38   H23   S    
C31   C32   S    
C27   H4    S    
C20   C21   A    
Cu1   N1    S    
C17   C18   A    
C34   H9    S    
C24   C25   A    
Cu2   N2    S    
C20   C22   A    
C35   H17   S    
C22   C27   A    
C9    C34   A    
C22   C24   A    
C3    C4    A    
C21   N2    A    
C3    C15   A    
C9    C10   A    
C23   O6    A    
C12   C30   S    
Cu1   O5    S    
C4    C5    A    
C14   C34   A    
C4    O9    S    
C19   H6    S    
C6    C7    A    
C32   C33   T    
C19   C20   A    
C38   H21   S    
Cu2   O4    S    
C18   H7    S    
C14   H1    S    
C30   C31   T    
C37   C38   S    
C3    H11   S    
C36   H14   S    
C2    C14   A    
C1    O1    A    
C17   H5    S    
C12   O4    A    
C10   C11   A    
C16   H3    S    
C29   O7    A    
C37   H20   S    
Cu1   O1    S    
C13   H10   S    
C28   C39   S    
C12   O3    A    
