data_mof_unit_63284.cif
_audit_creation_date              2012-12-10T18:05:51-0500
_audit_creation_method            fapswitch 2.2
_symmetry_space_group_name_H-M    P1
_symmetry_Int_Tables_number       1
_space_group_crystal_system       triclinic
_cell_length_a                    18.936097
_cell_length_b                    18.80213
_cell_length_c                    18.755444
_cell_angle_alpha                 109.312753
_cell_angle_beta                  109.541051
_cell_angle_gamma                 109.627184
_cell_volume                      5136.16520103

loop_
_atom_site_label
_atom_site_type_symbol
_atom_type_description
_atom_site_fract_x
_atom_site_fract_y
_atom_site_fract_z
_atom_type_partial_charge
C1    C     C_R   0.118836 0.000094 0.619278 0.806053
C2    C     C_R   0.979888 0.955538 0.170198 0.296667
C3    C     C_R   0.249632 0.241982 0.423881 -0.187758
C4    C     C_R   0.315438 0.316982 0.503665 -0.069806
C5    C     C_R   0.315138 0.327945 0.581827 0.084446
C6    C     C_R   0.249059 0.262174 0.578069 -0.128462
C7    C     C_R   0.184065 0.186409 0.498478 -0.059052
C8    C     C_R   0.183453 0.176626 0.420307 0.117574
C9    C     C_R   0.464807 0.430566 0.712112 -0.245079
C10   C     C_R   0.523883 0.507637 0.792417 0.436473
C11   C     C_R   0.496181 0.562493 0.829457 -0.194812
C12   C     C_R   0.117907 0.118965 0.499052 0.803774
C13   C     C_R   0.409397 0.540026 0.786681 -0.260609
C14   C     C_R   0.350451 0.463818 0.705778 0.617039
C15   C     C_R   0.378196 0.409316 0.667019 -0.113949
C16   C     C_R   0.231850 0.960297 0.665810 -0.117398
C17   C     C_R   0.188533 0.003784 0.687191 -0.051382
C18   C     C_R   0.217113 0.055043 0.776231 -0.157382
C19   C     C_R   0.280853 0.054210 0.840545 -0.174672
C20   C     C_R   0.316987 0.002956 0.816356 -0.012643
C21   C     C_R   0.296199 0.961364 0.729635 -0.082478
C22   C     C_3   0.269938 0.869698 0.671711 0.972426
C23   C     C_R   0.881274 0.999953 0.381111 0.892820
C24   C     C_3   0.198853 0.868108 0.600792 0.551014
C25   C     C_R   0.833272 0.786996 0.557065 -0.033134
C26   C     C_R   0.813838 0.815338 0.497678 -0.106835
C27   C     C_R   0.725822 0.776635 0.435192 0.357233
C28   C     C_R   0.661330 0.711706 0.435556 -0.187997
C29   C     C_R   0.684094 0.684538 0.497579 -0.153992
C30   C     C_R   0.771682 0.724128 0.556629 0.073195
C31   C     C_3   0.835761 0.728228 0.632819 0.273518
C32   C     C_3   0.905964 0.800018 0.632931 -0.455410
C33   C     C_R   0.759371 0.929880 0.231180 -0.014859
C34   C     C_R   0.881754 0.881506 0.500062 0.860936
C35   C     C_R   0.815216 0.000937 0.315039 -0.118433
C36   C     C_R   0.804425 0.074630 0.334067 -0.177243
C37   C     C_R   0.739948 0.074919 0.269220 0.639762
C38   C     C_R   0.684099 0.000527 0.185386 -0.199297
C39   C     C_R   0.695922 0.929240 0.169755 -0.037877
C40   C     C_3   0.665085 0.839753 0.102045 0.649368
C41   C     C_3   0.737086 0.840104 0.172365 -0.370094
C42   C     C_R   0.500999 0.619363 0.619028 0.769024
C43   C     C_R   0.381566 0.383280 0.502386 0.774395
C44   C     C_R   0.500142 0.381722 0.381343 0.893286
C45   C     C_R   0.062664 0.965609 0.206971 0.665613
C46   C     C_R   0.618550 0.618572 0.499471 0.826820
C47   C     C_R   0.500500 0.118897 0.118995 0.872989
C48   C     C_R   0.381714 0.000479 0.881612 0.792901
C49   C     C_R   0.500395 0.880877 0.881680 0.815217
C50   C     C_R   0.618279 0.999359 0.118012 0.891685
C51   C     C_R   0.431894 0.666080 0.700097 0.050648
C52   C     C_R   0.502643 0.685514 0.687261 -0.055282
C53   C     C_R   0.579033 0.766143 0.748083 -0.146784
C54   C     C_R   0.579042 0.830534 0.812726 -0.091701
C55   C     C_R   0.503547 0.813180 0.818771 -0.051557
C56   C     C_R   0.128768 0.038134 0.288299 -0.336979
C57   C     C_R   0.432689 0.728313 0.765678 0.092317
C58   C     C_3   0.339288 0.697201 0.709736 -0.334599
C59   C     C_3   0.338952 0.629447 0.637529 -0.414683
C60   C     C_R   0.426423 0.242855 0.245204 -0.080563
C61   C     C_R   0.502101 0.317352 0.315292 -0.266249
C62   C     C_R   0.581275 0.326712 0.320823 0.541338
C63   C     C_R   0.581412 0.261877 0.255955 0.584544
C64   C     C_R   0.502469 0.186080 0.186510 -0.310416
C65   C     C_R   0.426707 0.179445 0.184814 -0.050529
C66   C     C_3   0.330639 0.123349 0.135586 0.572284
C67   C     C_R   0.112639 0.101024 0.333767 -0.066212
C68   C     C_3   0.330468 0.195344 0.205291 -0.439419
C69   C     C_R   0.029505 0.091338 0.296073 0.347029
C70   C     C_R   0.963507 0.018399 0.214692 -0.324032
Cu1   Cu    Cu3+1 0.000020 0.938200 0.438220 1.114149
Cu2   Cu    Cu3+1 0.999980 0.061800 0.561780 1.048762
Cu3   Cu    Cu3+1 0.438190 0.500040 0.438260 1.031513
Cu4   Cu    Cu3+1 0.561780 0.500000 0.561820 1.117054
Cu5   Cu    Cu3+1 0.561810 0.061820 0.000020 1.107490
Cu6   Cu    Cu3+1 0.438190 0.938280 0.000080 1.146481
H1    H     H_    0.541614 0.622102 0.891598 0.246522
H2    H     H_    0.387937 0.582124 0.816006 0.211512
H3    H     H_    0.188044 0.092884 0.796045 0.167882
H4    H     H_    0.300067 0.091350 0.908480 0.124921
H5    H     H_    0.594091 0.682967 0.387561 0.208854
H6    H     H_    0.828497 0.751325 0.691271 0.119272
H7    H     H_    0.938674 0.865461 0.691057 0.177926
H8    H     H_    0.949831 0.781371 0.614812 0.277829
H9    H     H_    0.846369 0.132215 0.398259 0.217031
H10   H     H_    0.712851 0.793963 0.194525 0.246437
H11   H     H_    0.192504 0.045109 0.316288 0.212689
H12   H     H_    0.789946 0.839986 0.158981 0.230886
H13   H     H_    0.636906 0.780658 0.742857 0.152828
H14   H     H_    0.637043 0.894028 0.856385 0.183823
H15   H     H_    0.298549 0.668562 0.734759 0.237646
H16   H     H_    0.329781 0.746430 0.694464 0.280228
H17   H     H_    0.297741 0.561637 0.620423 0.255786
H18   H     H_    0.329550 0.640057 0.580906 0.241028
H19   H     H_    0.299658 0.113762 0.068754 0.042073
H20   H     H_    0.300352 0.229390 0.179474 0.169582
H21   H     H_    0.310084 0.175732 0.248087 0.217512
H22   H     H_    0.899621 0.010870 0.185739 0.226832
H23   H     H_    0.249468 0.234709 0.363954 0.149359
H24   H     H_    0.248655 0.270016 0.637872 0.165704
H25   H     H_    0.486346 0.387386 0.684952 0.203941
O1    O     O_R   0.090190 0.947810 0.538000 -0.526630
O2    O     O_R   0.552160 0.590170 0.642390 -0.567843
O3    O     O_R   0.357620 0.409850 0.447860 -0.572464
O4    O     O_R   0.461990 0.409820 0.552210 -0.592498
O5    O     O_R   0.447810 0.409860 0.357690 -0.593328
O6    O     O_R   0.552180 0.409830 0.462050 -0.522669
O7    O     O_R   0.537970 0.590210 0.447870 -0.592986
O8    O     O_R   0.642350 0.590180 0.552220 -0.543405
O9    O     O_R   0.552210 0.142430 0.090170 -0.540284
O10   O     O_R   0.447820 0.038100 0.090220 -0.548775
O11   O     O_R   0.462030 0.052220 0.909860 -0.586901
O12   O     O_R   0.090150 0.052180 0.642350 -0.611464
O13   O     O_R   0.357640 0.947890 0.909900 -0.547073
O14   O     O_R   0.552180 0.962000 0.909880 -0.589119
O15   O     O_R   0.447790 0.857670 0.909930 -0.562979
O16   O     O_R   0.642360 0.052210 0.090200 -0.544807
O17   O     O_R   0.537970 0.947880 0.090240 -0.554152
O18   O     O_R   0.090200 0.037990 0.447830 -0.582982
O19   O     O_R   0.090160 0.142360 0.552180 -0.564759
O20   O     O_R   0.909850 0.947820 0.357650 -0.585998
O21   O     O_R   0.909810 0.052190 0.462000 -0.572466
O22   O     O_R   0.909840 0.857640 0.447820 -0.541283
O23   O     O_R   0.909800 0.962010 0.552170 -0.585392
O24   O     O_R   0.447790 0.590200 0.538040 -0.576805
Cl1   Cl    Cl    0.896757 0.864869 0.067822 -0.421058
F1    F     F_    0.266332 0.442997 0.665307 -0.638790
F2    F     F_    0.334033 0.864454 0.654165 -0.647461
F3    F     F_    0.239744 0.814652 0.701768 -0.644048
Cl2   Cl    Cl    0.212714 0.860641 0.509432 -0.428190
Cl3   Cl    Cl    0.091108 0.792943 0.569051 -0.470348
Cl4   Cl    Cl    0.694461 0.808545 0.357036 -0.586528
F4    F     F_    0.079279 0.905234 0.164068 -0.558428
Cl5   Cl    Cl    0.841010 0.630375 0.603023 -0.386053
F5    F     F_    0.731536 0.146802 0.288561 -0.579423
Cl6   Cl    Cl    0.557757 0.763313 0.068748 -0.525629
Cl7   Cl    Cl    0.680878 0.837788 0.013027 -0.578419
F6    F     F_    0.657726 0.398609 0.387580 -0.555091
F7    F     F_    0.658152 0.272283 0.262208 -0.532267
Cl8   Cl    Cl    0.007087 0.170801 0.347879 -0.561581
F8    F     F_    0.304992 0.047303 0.139614 -0.579825
Cl9   Cl    Cl    0.632633 0.535340 0.846837 -0.476085

loop_
_geom_bond_atom_site_label_1
_geom_bond_atom_site_label_2
_ccdc_geom_bond_type
C66   C68   S    
C16   C21   A    
C50   O16   A    
Cu3   Cu4   S    
C19   C20   A    
Cu5   O16   S    
C42   O2    A    
Cu4   O8    S    
C57   C58   S    
C7    C8    A    
C23   O20   A    
C66   F8    S    
C53   C54   A    
C41   H10   S    
C40   Cl6   S    
Cu5   O11   S    
C62   C63   A    
C31   H6    S    
Cu1   O22   S    
C36   C37   A    
C54   H14   S    
C43   O4    A    
C30   C31   S    
Cu3   O24   S    
C45   F4    S    
C18   C19   A    
C10   Cl9   S    
C32   H7    S    
C43   O3    A    
C11   H1    S    
C42   O24   A    
Cu6   O15   S    
Cu4   O6    S    
C68   H21   S    
C26   C34   S    
Cu3   O3    S    
C35   C36   A    
C45   C56   A    
C16   C17   A    
C46   O7    A    
Cu6   O13   S    
C37   F5    S    
C51   C57   A    
C59   H18   S    
C29   C30   A    
C58   H15   S    
C61   C62   A    
Cu2   O21   S    
C69   Cl8   S    
C16   C24   S    
C12   O19   A    
C13   C14   A    
Cu2   O23   S    
C27   Cl4   S    
C69   C70   A    
C1    O12   A    
C31   Cl5   S    
C23   O21   A    
C2    C45   A    
C7    C12   S    
C32   H8    S    
C51   C52   A    
C38   C39   A    
C3    C8    A    
C47   C64   S    
C18   H3    S    
Cu3   O7    S    
C25   C26   A    
C49   C55   S    
Cu2   O12   S    
Cu6   O17   S    
C14   F1    S    
C60   C61   A    
C67   C69   A    
C6    H24   S    
Cu5   Cu6   S    
C37   C38   A    
C24   Cl2   S    
C12   O18   A    
C33   C39   A    
C22   F2    S    
C31   C32   S    
C40   Cl7   S    
Cu2   O19   S    
C17   C18   A    
C26   C27   A    
C68   H20   S    
C62   F6    S    
C20   C48   S    
C2    Cl1   S    
C40   C41   S    
C48   O11   A    
Cu1   O1    S    
C60   C65   A    
C23   C35   S    
C55   C57   A    
C22   F3    S    
C53   H13   S    
C36   H9    S    
C22   C24   S    
C51   C59   S    
C3    C4    A    
C56   C67   A    
C39   C40   S    
C52   C53   A    
C48   O13   A    
C9    C10   A    
C44   O6    A    
C25   C30   A    
C41   H12   S    
C54   C55   A    
C28   C29   A    
Cu5   O9    S    
C34   O23   A    
C49   O14   A    
C28   H5    S    
C50   O17   A    
C63   F7    S    
Cu1   O20   S    
C4    C5    A    
C56   H11   S    
C6    C7    A    
C38   C50   S    
C4    C43   S    
C44   O5    A    
C44   C61   S    
C47   O9    A    
C1    C17   S    
Cu1   O18   S    
C29   C46   S    
C33   C41   S    
C64   C65   A    
C58   C59   S    
Cu1   Cu2   S    
C2    C70   A    
Cu4   O4    S    
C11   C13   A    
C24   Cl3   S    
Cu3   O5    S    
C5    C6    A    
C25   C32   S    
Cu6   O10   S    
C47   O10   A    
C33   C35   A    
C9    C15   A    
C19   H4    S    
C5    C15   S    
C10   C11   A    
C13   H2    S    
C63   C64   A    
C3    H23   S    
C49   O15   A    
Cu5   O14   S    
C20   C21   A    
C60   C68   S    
C8    C67   S    
C9    H25   S    
C65   C66   S    
C46   O8    A    
C27   C28   A    
C34   O22   A    
C14   C15   A    
Cu4   O2    S    
C59   H17   S    
C21   C22   S    
C58   H16   S    
C1    O1    A    
C70   H22   S    
C42   C52   S    
C66   H19   S    
