data_mof_unit_35555.cif
_audit_creation_date              2012-12-11T14:19:38-0500
_audit_creation_method            fapswitch 2.2
_symmetry_space_group_name_H-M    P1
_symmetry_Int_Tables_number       1
_space_group_crystal_system       triclinic
_cell_length_a                    19.409508
_cell_length_b                    7.245261
_cell_length_c                    17.734065
_cell_angle_alpha                 90.000072
_cell_angle_beta                  107.737605
_cell_angle_gamma                 89.999874
_cell_volume                      2375.33239805

loop_
_atom_site_label
_atom_site_type_symbol
_atom_type_description
_atom_site_fract_x
_atom_site_fract_y
_atom_site_fract_z
_atom_type_partial_charge
O1    O     O_R   0.414820 0.494320 0.416790 -0.538788
O2    O     O_R   0.585180 0.994320 0.583210 -0.538796
O3    O     O_R   0.560270 0.819500 0.430140 -0.544848
O4    O     O_R   0.439730 0.319500 0.569860 -0.544853
C1    C     C_R   0.581067 0.655401 0.414543 0.709476
C2    C     C_R   0.418932 0.155401 0.585456 0.709411
O5    O     O_R   0.413840 0.823740 0.407440 -0.540066
O6    O     O_R   0.586160 0.323740 0.592560 -0.540078
O7    O     O_R   0.437710 0.998590 0.560350 -0.537598
O8    O     O_R   0.562290 0.498590 0.439650 -0.537580
C3    C     C_R   0.387594 0.654927 0.385253 0.731935
C4    C     C_R   0.612406 0.154927 0.614747 0.731897
O9    O     O_3   0.508000 0.662290 0.550200 -0.379011
O10   O     O_3   0.492000 0.162290 0.449800 -0.378977
V1    V     V_3+5 0.498520 0.935380 0.490690 1.403209
V2    V     V_3+5 0.501480 0.435380 0.509310 1.403164
C5    C     C_2   0.785202 0.271749 0.788615 -0.130548
C6    C     C_2   0.214797 0.771749 0.211386 -0.130501
C7    C     C_2   0.820381 0.113471 0.817125 -0.307038
C8    C     C_2   0.179619 0.613471 0.182876 -0.307020
H1    H     H_    0.807105 0.401942 0.815891 0.141062
H2    H     H_    0.192893 0.901942 0.184110 0.141071
H3    H     H_    0.800209 0.981864 0.790578 0.129306
H4    H     H_    0.199791 0.481864 0.209422 0.129308
C9    C     C_2   0.717337 0.284562 0.720540 -0.139790
C10   C     C_2   0.282662 0.784562 0.279461 -0.139733
C11   C     C_2   0.679302 0.138464 0.682593 -0.303799
C12   C     C_2   0.320698 0.638464 0.317407 -0.303757
H5    H     H_    0.698051 0.422810 0.701636 0.138459
H6    H     H_    0.301947 0.922810 0.298366 0.138470
H7    H     H_    0.697127 0.999375 0.700887 0.132063
H8    H     H_    0.302873 0.499375 0.299112 0.132069
C13   C     C_R   0.326389 0.991630 0.633840 -0.182044
C14   C     C_R   0.673610 0.491637 0.366156 -0.181995
C15   C     C_R   0.370053 0.147495 0.635581 -0.106873
C16   C     C_R   0.629943 0.647495 0.364414 -0.107083
C17   C     C_R   0.365995 0.297585 0.684495 -0.193154
C18   C     C_R   0.633997 0.797581 0.315497 -0.192711
C19   C     C_R   0.319139 0.293539 0.731412 -0.008569
C20   C     C_R   0.680856 0.793555 0.268581 -0.008321
C21   C     C_R   0.274799 0.137176 0.728217 -0.017576
C22   C     C_R   0.725193 0.637183 0.271772 -0.017806
C23   C     C_R   0.278412 0.986191 0.679142 0.139188
C24   C     C_R   0.721583 0.486200 0.320851 0.139157
C25   C     C_R   0.316043 0.442168 0.781772 0.452227
C26   C     C_R   0.683946 0.942210 0.218229 0.452172
C27   C     C_R   0.266450 0.437187 0.825409 -0.285139
C28   C     C_R   0.733572 0.937228 0.174613 -0.285506
C29   C     C_R   0.222104 0.282845 0.822257 0.026053
C30   C     C_R   0.777899 0.782856 0.177748 0.026279
C31   C     C_R   0.226557 0.131651 0.773914 0.053284
C32   C     C_R   0.773433 0.631652 0.226075 0.053204
C33   C     C_R   0.182477 0.975129 0.770867 0.107262
C34   C     C_R   0.817512 0.475126 0.229122 0.107146
C35   C     C_R   0.186317 0.826592 0.721555 -0.191779
C36   C     C_R   0.813676 0.326596 0.278438 -0.191896
C37   C     C_R   0.233637 0.832393 0.675875 -0.115147
C38   C     C_R   0.766361 0.332406 0.324122 -0.115070
C39   C     C_R   0.173531 0.277158 0.866934 -0.188425
C40   C     C_R   0.826479 0.777174 0.133078 -0.188484
C41   C     C_R   0.130155 0.120451 0.865281 -0.078595
C42   C     C_R   0.869845 0.620453 0.134719 -0.078624
C43   C     C_R   0.135181 0.969846 0.816989 -0.220345
C44   C     C_R   0.864810 0.469840 0.183002 -0.220415
H9    H     H_    0.328743 0.875584 0.596101 0.124719
H10   H     H_    0.671261 0.375596 0.403900 0.124749
H11   H     H_    0.400008 0.417167 0.686442 0.171647
H12   H     H_    0.599976 0.917147 0.313549 0.171778
H13   H     H_    0.262441 0.554983 0.861510 0.144263
H14   H     H_    0.737672 0.055068 0.138581 0.143902
H15   H     H_    0.170602 0.393624 0.904219 0.127513
H16   H     H_    0.829418 0.893652 0.095803 0.127501
H17   H     H_    0.101778 0.848756 0.814632 0.130518
H18   H     H_    0.898210 0.348745 0.185357 0.130541
H19   H     H_    0.152740 0.705569 0.718363 0.125946
H20   H     H_    0.847256 0.205577 0.281633 0.125990
H21   H     H_    0.235635 0.715628 0.638403 0.121221
H22   H     H_    0.764368 0.215649 0.361599 0.121260
O11   O     O_R   0.937810 0.773680 0.060480 -0.537883
O12   O     O_R   0.062190 0.273680 0.939520 -0.537880
O13   O     O_R   0.086190 0.439740 0.092580 -0.543267
O14   O     O_R   0.913810 0.939740 0.907420 -0.543273
C45   C     C_R   0.112486 0.608309 0.114744 0.732089
C46   C     C_R   0.887514 0.108309 0.885256 0.732058
O15   O     O_R   0.939760 0.444210 0.069890 -0.542987
O16   O     O_R   0.060240 0.944210 0.930110 -0.542976
O17   O     O_R   0.914790 0.269640 0.916760 -0.534741
O18   O     O_R   0.085210 0.769640 0.083240 -0.534736
C47   C     C_R   0.919220 0.612511 0.085087 0.695391
C48   C     C_R   0.080781 0.112511 0.914913 0.695412
O19   O     O_3   0.992050 0.601530 0.949880 -0.378736
O20   O     O_3   0.007950 0.101530 0.050120 -0.378737
V3    V     V_3+5 0.001480 0.328340 0.009300 1.395066
V4    V     V_3+5 0.998520 0.828340 0.990700 1.395078
O21   O     O_3   0.357711 0.598129 0.783616 -0.552405
C49   C     C_3   0.412131 0.606918 0.857320 -0.261605
H23   H     H_    0.445131 0.478285 0.869525 0.127861
H24   H     H_    0.388884 0.635456 0.906201 0.135993
H25   H     H_    0.449007 0.722735 0.855612 0.165028
O22   O     O_3   0.642289 0.098181 0.216497 -0.552541
C50   C     C_3   0.588586 0.109132 0.142337 -0.260892
H26   H     H_    0.555809 0.980267 0.128634 0.127595
H27   H     H_    0.612534 0.140816 0.094298 0.136108
H28   H     H_    0.551330 0.223838 0.144345 0.164901

loop_
_geom_bond_atom_site_label_1
_geom_bond_atom_site_label_2
_ccdc_geom_bond_type
C1    C16   S    
C50   H26   S    
C36   H20   S    
O21   C49   S    
O1    C3    A    
C46   O17   A    
O2    C4    A    
C14   H10   S    
C2    O7    A    
C13   H9    S    
C27   C29   A    
C20   C26   A    
O14   V4    S    
O20   V3    S    
C15   C17   A    
C40   H16   S    
C49   H25   S    
O17   V3    S    
C2    C15   S    
C40   C42   A    
C25   C27   A    
C41   C43   A    
C27   H13   S    
C42   C44   A    
O16   V4    S    
C5    C7    D    
C6    C10   S    
O15   V3    S    
C8    H4    S    
C24   C38   A    
C29   C31   A    
C49   H24   S    
C30   C32   A    
C14   C16   A    
C19   C25   A    
C35   H19   S    
C20   C22   A    
C45   O18   A    
C50   H27   S    
C21   C23   A    
C38   H22   S    
C22   C24   A    
O13   C45   A    
C32   C34   A    
O5    C3    A    
O18   V4    S    
C33   C35   A    
C9    H5    S    
C34   C36   A    
C39   C41   A    
C4    C11   S    
C11   H7    S    
C13   C23   A    
C37   H21   S    
C12   H8    S    
C14   C24   A    
O11   V4    S    
O4    C2    A    
O16   C48   A    
O15   C47   A    
O5    V1    S    
C43   H17   S    
C5    H1    S    
C31   C33   A    
O4    V2    S    
C7    H3    S    
O13   V3    S    
O6    C4    A    
C49   H23   S    
O1    V2    S    
O2    V1    S    
C18   H12   S    
C10   H6    S    
C50   H28   S    
O14   C46   A    
C35   C37   A    
O9    V2    S    
C7    C46   S    
C25   O21   S    
O3    V1    S    
C41   C48   S    
C26   O22   S    
C6    H2    S    
C28   H14   S    
O3    C1    A    
C9    C11   D    
C10   C12   D    
C29   C39   A    
C30   C40   A    
C16   C18   A    
O7    V1    S    
C5    C9    S    
C1    O8    A    
C17   C19   A    
O8    V2    S    
O19   V4    S    
C18   C20   A    
C33   C43   A    
C34   C44   A    
C3    C12   S    
C17   H11   S    
C28   C30   A    
C42   C47   S    
C13   C15   A    
C36   C38   A    
C6    C8    D    
O12   C48   A    
O11   C47   A    
C23   C37   A    
C26   C28   A    
C19   C21   A    
O6    V2    S    
C8    C45   S    
C22   C32   A    
C44   H18   S    
O10   V1    S    
O22   C50   S    
O12   V3    S    
C21   C31   A    
C39   H15   S    
