data_mof_unit_12058.cif
_audit_creation_date              2013-03-05T15:55:34-0500
_audit_creation_method            fapswitch 2.2
_symmetry_space_group_name_H-M    P1
_symmetry_Int_Tables_number       1
_space_group_crystal_system       triclinic
_cell_length_a                    13.98352
_cell_length_b                    14.025061
_cell_length_c                    31.986223
_cell_angle_alpha                 90.125874
_cell_angle_beta                  89.890412
_cell_angle_gamma                 120.051971
_cell_volume                      5429.82638997

loop_
_atom_site_label
_atom_site_type_symbol
_atom_site_description
_atom_site_fract_x
_atom_site_fract_y
_atom_site_fract_z
_atom_type_partial_charge
O1    O     O_R   0.480350 0.140770 0.796330 -0.529297
O2    O     O_R   0.660420 0.519650 0.703670 -0.539312
O3    O     O_R   0.859230 0.339580 0.796330 -0.545239
O4    O     O_R   0.480350 0.140770 0.703670 -0.537967
O5    O     O_R   0.660420 0.519650 0.796330 -0.538442
O6    O     O_R   0.859230 0.339580 0.703670 -0.540430
O7    O     O_R   0.140770 0.480350 0.296330 -0.541100
O8    O     O_R   0.519650 0.660420 0.203670 -0.540124
O9    O     O_R   0.339580 0.859230 0.296330 -0.541037
O10   O     O_R   0.140770 0.480350 0.203670 -0.540796
O11   O     O_R   0.519650 0.660420 0.296330 -0.541404
O12   O     O_R   0.339580 0.859230 0.203670 -0.543312
O13   O     O_R   0.514930 0.348530 0.793250 -0.551338
O14   O     O_R   0.833600 0.485070 0.706750 -0.534683
O15   O     O_R   0.651470 0.166400 0.793250 -0.533148
O16   O     O_R   0.514930 0.348530 0.706750 -0.536592
O17   O     O_R   0.833600 0.485070 0.793250 -0.536769
O18   O     O_R   0.651470 0.166400 0.706750 -0.532827
O19   O     O_R   0.348530 0.514930 0.293250 -0.535910
O20   O     O_R   0.485070 0.833600 0.206750 -0.535793
O21   O     O_R   0.166400 0.651470 0.293250 -0.535953
O22   O     O_R   0.348530 0.514930 0.206750 -0.536183
O23   O     O_R   0.485070 0.833600 0.293250 -0.536474
O24   O     O_R   0.166400 0.651470 0.206750 -0.536624
C1    C     C_R   0.567676 0.444072 0.810559 0.803916
C2    C     C_R   0.875867 0.431930 0.689395 0.827480
C3    C     C_R   0.572266 0.165580 0.814890 0.843470
C4    C     C_R   0.567906 0.443679 0.689375 0.829047
C5    C     C_R   0.875650 0.431885 0.810615 0.806522
C6    C     C_R   0.556164 0.124050 0.689386 0.846806
C7    C     C_R   0.443851 0.568074 0.310624 0.825644
C8    C     C_R   0.432417 0.876485 0.189638 0.825452
C9    C     C_R   0.124105 0.556221 0.310604 0.823928
C10   C     C_R   0.443546 0.568252 0.189166 0.825747
C11   C     C_R   0.432103 0.875927 0.310614 0.824979
C12   C     C_R   0.124367 0.556276 0.189395 0.824309
C13   C     C_1   0.001212 0.519931 0.018987 0.239746
C14   C     C_1   0.520480 0.996066 0.481300 0.234813
C15   C     C_1   0.458763 0.485457 0.016117 0.234768
C16   C     C_1   0.003675 0.524133 0.481309 0.234551
C17   C     C_1   0.548480 0.049520 0.024906 0.211836
C18   C     C_1   0.475891 0.479596 0.481258 0.234808
C19   C     C_1   0.524250 0.003539 0.518719 0.234530
C20   C     C_1   0.992785 0.515177 0.981617 0.229325
C21   C     C_1   0.479694 0.475576 0.518672 0.235026
C22   C     C_1   0.562452 0.078577 0.989104 0.223381
C23   C     C_1   0.996267 0.520286 0.518728 0.234444
C24   C     C_1   0.460864 0.481484 0.978554 0.240270
H1    H     H_    0.896238 0.603795 0.856375 0.191850
H2    H     H_    0.707630 0.100970 0.644533 0.192322
H3    H     H_    0.375835 0.306647 0.850067 0.190350
H4    H     H_    0.899745 0.606306 0.644825 0.192614
H5    H     H_    0.712821 0.120912 0.857675 0.198375
H6    H     H_    0.393826 0.292261 0.644416 0.192296
H7    H     H_    0.606799 0.899467 0.355272 0.191864
H8    H     H_    0.115343 0.711689 0.142762 0.190905
H9    H     H_    0.292623 0.393755 0.355370 0.192201
H10   H     H_    0.615970 0.916148 0.146451 0.192048
H11   H     H_    0.101049 0.707194 0.355571 0.192036
H12   H     H_    0.289118 0.395398 0.144797 0.191085
Cr1   Cr    Cr6+3 0.504240 0.249200 0.750000 0.976701
Cr2   Cr    Cr6+3 0.744960 0.495760 0.750000 0.974374
Cr3   Cr    Cr6+3 0.750800 0.255040 0.750000 0.981044
Cr4   Cr    Cr6+3 0.249200 0.504240 0.250000 0.979378
Cr5   Cr    Cr6+3 0.495760 0.744960 0.250000 0.979303
Cr6   Cr    Cr6+3 0.255040 0.750800 0.250000 0.978228
O25   O     O_3   0.666667 0.333333 0.750000 -0.362996
O26   O     O_3   0.333333 0.666667 0.250000 -0.345310
H13   H     H_    0.016165 0.367763 0.144198 0.198123
H14   H     H_    0.342010 0.971673 0.357773 0.200006
H15   H     H_    0.625716 0.661295 0.139317 0.198962
H16   H     H_    0.027425 0.370475 0.357459 0.199832
H17   H     H_    0.334172 0.962592 0.142775 0.200561
H18   H     H_    0.629865 0.658473 0.357715 0.199808
H19   H     H_    0.369956 0.027641 0.642455 0.200791
H20   H     H_    0.972020 0.342043 0.856975 0.202683
H21   H     H_    0.657660 0.629304 0.642444 0.200603
H22   H     H_    0.426429 0.157098 0.871832 0.181625
H23   H     H_    0.971613 0.341921 0.642145 0.200425
H24   H     H_    0.667129 0.625160 0.859887 0.201568
C25   C     C_R   0.928412 0.468767 0.851830 -0.169520
C26   C     C_R   0.540316 0.070185 0.648330 -0.180265
C27   C     C_R   0.527035 0.462730 0.850683 -0.169438
C28   C     C_R   0.929785 0.469751 0.648330 -0.175309
C29   C     C_R   0.567103 0.137355 0.859336 -0.169866
C30   C     C_R   0.530031 0.459292 0.648289 -0.175639
C31   C     C_R   0.470055 0.929717 0.351681 -0.174837
C32   C     C_R   0.071171 0.541023 0.148316 -0.174172
C33   C     C_R   0.459740 0.530397 0.351688 -0.174789
C34   C     C_R   0.472407 0.935477 0.149765 -0.177399
C35   C     C_R   0.070157 0.540375 0.351673 -0.174549
C36   C     C_R   0.456734 0.532044 0.147235 -0.174245
C37   C     C_R   0.925447 0.555446 0.872541 -0.210117
C38   C     C_R   0.630186 0.071787 0.628105 -0.210626
C39   C     C_R   0.428154 0.379976 0.868140 -0.239595
C40   C     C_R   0.928581 0.557978 0.628273 -0.210456
C41   C     C_R   0.649184 0.120514 0.877150 -0.211862
C42   C     C_R   0.442024 0.369547 0.628020 -0.211628
C43   C     C_R   0.558403 0.928356 0.371792 -0.211789
C44   C     C_R   0.080089 0.632633 0.127128 -0.213588
C45   C     C_R   0.369985 0.442138 0.371839 -0.211439
C46   C     C_R   0.566342 0.943985 0.130325 -0.215236
C47   C     C_R   0.071817 0.629947 0.371958 -0.211855
C48   C     C_R   0.365007 0.444716 0.127529 -0.207263
C49   C     C_R   0.950018 0.574400 0.915152 0.343364
C50   C     C_R   0.625205 0.046181 0.585596 0.347258
C51   C     C_R   0.399018 0.387144 0.909580 0.351001
C52   C     C_R   0.954071 0.578497 0.585771 0.346348
C53   C     C_R   0.652102 0.105645 0.920227 0.336087
C54   C     C_R   0.421552 0.374535 0.585519 0.346848
C55   C     C_R   0.578905 0.953786 0.414304 0.347000
C56   C     C_R   0.054218 0.626701 0.084658 0.346533
C57   C     C_R   0.374963 0.421555 0.414319 0.346489
C58   C     C_R   0.592690 0.980774 0.088984 0.355850
C59   C     C_R   0.046236 0.624906 0.414477 0.346670
C60   C     C_R   0.365243 0.427170 0.084542 0.355318
C61   C     C_R   0.981441 0.506931 0.937010 -0.175412
C62   C     C_R   0.526488 0.014641 0.563359 -0.171906
C63   C     C_R   0.471923 0.480515 0.933795 -0.172325
C64   C     C_R   0.985219 0.511340 0.563361 -0.171902
C65   C     C_R   0.571518 0.108735 0.945890 -0.166787
C66   C     C_R   0.488634 0.473107 0.563311 -0.171949
C67   C     C_R   0.511600 0.984993 0.436665 -0.171847
C68   C     C_R   0.014141 0.525066 0.063540 -0.168983
C69   C     C_R   0.473586 0.488780 0.436626 -0.172056
C70   C     C_R   0.524329 0.011411 0.067239 -0.177984
C71   C     C_R   0.014673 0.526447 0.436665 -0.171715
C72   C     C_R   0.461134 0.494827 0.061007 -0.172448
C73   C     C_R   0.995112 0.426364 0.915449 0.344407
C74   C     C_R   0.431846 0.002140 0.584467 0.351201
C75   C     C_R   0.565337 0.569758 0.914847 0.344847
C76   C     C_R   0.997402 0.429243 0.584289 0.350901
C77   C     C_R   0.490186 0.127830 0.928276 0.348759
C78   C     C_R   0.570603 0.567510 0.584454 0.350986
C79   C     C_R   0.429397 0.997267 0.415681 0.350953
C80   C     C_R   0.994914 0.429756 0.085627 0.360782
C81   C     C_R   0.568095 0.571081 0.415598 0.351028
C82   C     C_R   0.431534 0.005932 0.087095 0.343545
C83   C     C_R   0.002058 0.432116 0.415499 0.350855
C84   C     C_R   0.557871 0.576122 0.081292 0.347567
C85   C     C_R   0.966903 0.407346 0.873089 -0.211169
C86   C     C_R   0.440536 0.031642 0.626730 -0.204563
C87   C     C_R   0.592525 0.559034 0.873635 -0.197102
C88   C     C_R   0.967916 0.408471 0.626555 -0.206003
C89   C     C_R   0.487872 0.140528 0.885092 -0.214984
C90   C     C_R   0.591243 0.558835 0.626706 -0.204683
C91   C     C_R   0.408657 0.967881 0.373408 -0.206284
C92   C     C_R   0.025581 0.439383 0.127734 -0.206942
C93   C     C_R   0.559383 0.591838 0.373365 -0.206405
C94   C     C_R   0.407816 0.970060 0.128377 -0.195879
C95   C     C_R   0.031518 0.440844 0.373226 -0.206533
C96   C     C_R   0.553818 0.594996 0.124190 -0.205784
N1    N     N_R   0.073243 0.725436 0.063515 0.173826
O27   O     O_R   0.065036 0.801301 0.084012 -0.272171
O28   O     O_R   0.111607 0.746456 0.025516 -0.290856
N2    N     N_R   0.665366 0.943301 0.434301 0.181417
O29   O     O_R   0.754488 0.966010 0.413590 -0.261314
O30   O     O_R   0.650206 0.898320 0.471046 -0.271306
N3    N     N_R   0.265142 0.345157 0.065031 0.181015
O31   O     O_R   0.203835 0.251027 0.083458 -0.250078
O32   O     O_R   0.224726 0.371829 0.033531 -0.275392
N4    N     N_R   0.056899 0.721669 0.434647 0.181353
O33   O     O_R   0.034544 0.788044 0.414041 -0.261226
O34   O     O_R   0.101603 0.751309 0.471487 -0.270970
N5    N     N_R   0.685509 0.981460 0.069181 0.188781
O35   O     O_R   0.771441 0.000476 0.091224 -0.265036
O36   O     O_R   0.677958 0.946896 0.030894 -0.257827
N6    N     N_R   0.277965 0.334981 0.434330 0.181390
O37   O     O_R   0.211498 0.246366 0.413512 -0.261806
O38   O     O_R   0.248169 0.349442 0.471269 -0.270512
N7    N     N_R   0.722293 0.056774 0.565485 0.181574
O39   O     O_R   0.788839 0.034550 0.586147 -0.260390
O40   O     O_R   0.752073 0.101248 0.528640 -0.270870
N8    N     N_R   0.939239 0.660004 0.935695 0.176130
O41   O     O_R   0.962866 0.749704 0.915549 -0.266668
O42   O     O_R   0.894275 0.644167 0.972551 -0.274517
N9    N     N_R   0.335260 0.277639 0.565389 0.181356
O43   O     O_R   0.246392 0.210879 0.586092 -0.260790
O44   O     O_R   0.350281 0.248331 0.528449 -0.271184
N10   N     N_R   0.737018 0.087650 0.937187 0.181425
O45   O     O_R   0.778351 0.039435 0.914754 -0.266182
O46   O     O_R   0.782211 0.130179 0.973015 -0.249219
N11   N     N_R   0.943685 0.664837 0.565833 0.181347
O47   O     O_R   0.966574 0.753669 0.586600 -0.260832
O48   O     O_R   0.898534 0.649860 0.529095 -0.271408
N12   N     N_R   0.296456 0.298722 0.925963 0.200712
O49   O     O_R   0.218672 0.232693 0.900512 -0.279498
O50   O     O_R   0.280412 0.280377 0.965879 -0.231424
N13   N     N_R   0.947406 0.323721 0.065530 0.172303
O51   O     O_R   0.869946 0.295100 0.037723 -0.325365
O52   O     O_R   0.971268 0.250297 0.078621 -0.245617
N14   N     N_R   0.364012 0.035616 0.437027 0.173591
O53   O     O_R   0.407020 0.109148 0.466543 -0.308426
O54   O     O_R   0.265250 0.006980 0.423790 -0.251834
N15   N     N_R   0.659202 0.642535 0.058676 0.171541
O55   O     O_R   0.688586 0.599965 0.028589 -0.303529
O56   O     O_R   0.728774 0.741995 0.071254 -0.257281
N16   N     N_R   0.963326 0.328446 0.436664 0.172856
O57   O     O_R   0.889393 0.297705 0.466109 -0.309419
O58   O     O_R   0.992034 0.258606 0.423330 -0.252501
N17   N     N_R   0.356743 0.030049 0.065057 0.177563
O59   O     O_R   0.317306 0.984000 0.029026 -0.260141
O60   O     O_R   0.312267 0.080374 0.084131 -0.277673
N18   N     N_R   0.671956 0.636497 0.436857 0.173433
O61   O     O_R   0.702965 0.593662 0.466176 -0.308622
O62   O     O_R   0.741784 0.735198 0.423707 -0.251817
N19   N     N_R   0.327900 0.963452 0.563252 0.173657
O63   O     O_R   0.297146 0.889693 0.533815 -0.308401
O64   O     O_R   0.257791 0.992039 0.576538 -0.251482
N20   N     N_R   0.034521 0.361480 0.936188 0.177937
O65   O     O_R   0.107649 0.404158 0.965839 -0.300325
O66   O     O_R   0.008413 0.264394 0.921985 -0.246524
N21   N     N_R   0.635848 0.671251 0.563293 0.173561
O67   O     O_R   0.592685 0.701927 0.533966 -0.308663
O68   O     O_R   0.734659 0.741209 0.576533 -0.251650
N22   N     N_R   0.409650 0.134902 0.953878 0.157702
O69   O     O_R   0.440327 0.196671 0.987164 -0.326434
O70   O     O_R   0.307308 0.088820 0.941681 -0.241618
N23   N     N_R   0.035763 0.364024 0.562896 0.173560
O71   O     O_R   0.109476 0.406906 0.533381 -0.308448
O72   O     O_R   0.007010 0.265526 0.576091 -0.251828
N24   N     N_R   0.634868 0.670463 0.937328 0.178498
O73   O     O_R   0.592375 0.708335 0.964341 -0.306810
O74   O     O_R   0.738279 0.731984 0.927057 -0.245817

loop_
_geom_bond_atom_site_label_1
_geom_bond_atom_site_label_2
_geom_bond_distance
_ccdc_geom_bond_type
O16   C4    1.284525 A    
C16   C23   1.200178 T    
Cr6   O26   1.971002 S    
N7    O39   1.301406 A    
C76   C88   1.400656 A    
N5    O35   1.301393 A    
C42   C54   1.398917 A    
C54   C66   1.413740 A    
H17   C94   1.083482 S    
C45   C57   1.398803 A    
C50   N7    1.440178 S    
C52   C64   1.413290 A    
H15   C96   1.083087 S    
C26   C86   1.401072 A    
O19   C7    1.283356 A    
C57   N6    1.440240 S    
N17   O60   1.301350 A    
C83   N16   1.442197 S    
O4    C6    1.278410 A    
N21   O67   1.301296 A    
C12   C32   1.472669 S    
N7    O40   1.300992 A    
C51   N12   1.444994 S    
O24   C12   1.283793 A    
C78   N21   1.442201 S    
C31   C91   1.401049 A    
Cr2   O25   1.972346 S    
C26   C38   1.402492 A    
Cr4   O26   1.972133 S    
N2    O29   1.301397 A    
C29   C89   1.397849 A    
C25   C37   1.401872 A    
C56   C68   1.413970 A    
C9    C35   1.474345 S    
C58   C70   1.413332 A    
C82   N17   1.436412 S    
O9    C11   1.279001 A    
O18   Cr3   1.912829 S    
O21   C9    1.285751 A    
C28   C88   1.401072 A    
O14   Cr2   1.910840 S    
C59   C71   1.413520 A    
N19   O64   1.301461 A    
N13   O52   1.301418 A    
C28   C40   1.402634 A    
C83   C95   1.400376 A    
C3    C29   1.468475 S    
N8    O41   1.301361 A    
C66   C78   1.415342 A    
C74   N19   1.442176 S    
C18   C69   1.435551 S    
C37   C49   1.398249 A    
C48   C60   1.396612 A    
C11   C31   1.474297 S    
C8    C34   1.470495 S    
N3    O31   1.301214 A    
C7    C33   1.475013 S    
C36   C96   1.401584 A    
C63   C75   1.415288 A    
C17   C22   1.198814 T    
N3    O32   1.300034 A    
H18   C93   1.083055 S    
N16   O57   1.301289 A    
H10   C46   1.083355 S    
N1    O28   1.301030 A    
C61   C73   1.414706 A    
C55   N2    1.440133 S    
C84   C96   1.403294 A    
N4    O34   1.300976 A    
C14   C67   1.434677 S    
H22   C89   1.083472 S    
C34   C94   1.400600 A    
H20   C85   1.083058 S    
Cr5   O26   1.966362 S    
C25   C85   1.400896 A    
C40   C52   1.398262 A    
O11   C7    1.278962 A    
O8    Cr5   2.025002 S    
N5    O36   1.300982 A    
O12   C8    1.276281 A    
O7    C9    1.280967 A    
C49   C61   1.413447 A    
N13   O51   1.300830 A    
C71   C83   1.415135 A    
O3    Cr3   2.025133 S    
C78   C90   1.400707 A    
C30   C90   1.401230 A    
C51   C63   1.419720 A    
N10   O46   1.300286 A    
C24   C63   1.440451 S    
C31   C43   1.402559 A    
N21   O68   1.301464 A    
O22   C10   1.282474 A    
Cr3   O25   1.970721 S    
C68   C80   1.414812 A    
C55   C67   1.413332 A    
N19   O63   1.301277 A    
C53   C65   1.410923 A    
O20   Cr5   1.917324 S    
C29   C41   1.404455 A    
N22   O69   1.301366 A    
C60   N3    1.435080 S    
C35   C47   1.402499 A    
N23   O71   1.301275 A    
C36   C48   1.403165 A    
O2    C4    1.279642 A    
H2    C38   1.083371 S    
C54   N9    1.440197 S    
N9    O44   1.300982 A    
C16   C71   1.434655 S    
O12   Cr6   2.027034 S    
O4    Cr1   2.025710 S    
C82   C94   1.393140 A    
C67   C79   1.415308 A    
O21   Cr6   1.913990 S    
N14   O54   1.301457 A    
O6    Cr3   2.024703 S    
C6    C26   1.474259 S    
C47   C59   1.398517 A    
N11   O47   1.301403 A    
C5    C25   1.472531 S    
C46   C58   1.400463 A    
H19   C86   1.083061 S    
O17   Cr2   1.914744 S    
N23   O72   1.301459 A    
C13   C68   1.433969 S    
C41   C53   1.397750 A    
Cr1   O25   1.966431 S    
O15   C3    1.300107 A    
H23   C88   1.083044 S    
O19   Cr4   1.914008 S    
H16   C95   1.083053 S    
C27   C39   1.401170 A    
C27   C87   1.400462 A    
C32   C92   1.399711 A    
O13   Cr1   1.913282 S    
C22   C65   1.433089 S    
O8    C10   1.280690 A    
O14   C2    1.284923 A    
N24   O74   1.301247 A    
C80   C92   1.399834 A    
C39   C51   1.404072 A    
O5    C1    1.278929 A    
N20   O66   1.301431 A    
N6    O37   1.301412 A    
C81   C93   1.400835 A    
N18   O62   1.301463 A    
C44   C56   1.398023 A    
C79   C91   1.400581 A    
C49   N8    1.439922 S    
C4    C30   1.475009 S    
O18   C6    1.282943 A    
N6    O38   1.300980 A    
C77   C89   1.395626 A    
O16   Cr1   1.917293 S    
H8    C44   1.083287 S    
N12   O50   1.299703 A    
C32   C44   1.403101 A    
C75   C87   1.399749 A    
N10   O45   1.301514 A    
C58   N5    1.438860 S    
C1    C27   1.477582 S    
N4    O33   1.301404 A    
O20   C8    1.284507 A    
H24   C87   1.082978 S    
C23   C64   1.434664 S    
C2    C28   1.474418 S    
C15   C72   1.440518 S    
C52   N11   1.440154 S    
C33   C45   1.402605 A    
C64   C76   1.415338 A    
C77   N22   1.434131 S    
C17   C70   1.433110 S    
O10   Cr4   2.026056 S    
N22   O70   1.301004 A    
O13   C1    1.286288 A    
O1    Cr1   2.029657 S    
O10   C12   1.281493 A    
C62   C74   1.415198 A    
C81   N18   1.442192 S    
O24   Cr6   1.912995 S    
C21   C66   1.435553 S    
H9    C45   1.083358 S    
C43   C55   1.398355 A    
O23   C11   1.283293 A    
C73   N20   1.441574 S    
N17   O59   1.300722 A    
H1    C37   1.083407 S    
C80   N13   1.440157 S    
C56   N1    1.442273 S    
C76   N23   1.442221 S    
C69   C81   1.415441 A    
N14   O53   1.301272 A    
O23   Cr5   1.912963 S    
C13   C20   1.199752 T    
N2    O30   1.301019 A    
N12   O49   1.301781 A    
H11   C47   1.083366 S    
C14   C19   1.200190 T    
C34   C46   1.402328 A    
O17   C5    1.285715 A    
O9    Cr6   2.025452 S    
C35   C95   1.401155 A    
C53   N10   1.439164 S    
O3    C5    1.279661 A    
O6    C2    1.280859 A    
C20   C61   1.433927 S    
C59   N4    1.440164 S    
C57   C69   1.413667 A    
C33   C93   1.401158 A    
C70   C82   1.410766 A    
H5    C41   1.082989 S    
O5    Cr2   2.023289 S    
H4    C40   1.083360 S    
C75   N24   1.442236 S    
C79   N14   1.442204 S    
N20   O65   1.300634 A    
C72   C84   1.416385 A    
N24   O73   1.301523 A    
C74   C86   1.400428 A    
C84   N15   1.440765 S    
N8    O42   1.301086 A    
O7    Cr4   2.022886 S    
C38   C50   1.398499 A    
C30   C42   1.402542 A    
C19   C62   1.434678 S    
O22   Cr4   1.910643 S    
N15   O55   1.301207 A    
O2    Cr2   2.027677 S    
C73   C85   1.399185 A    
N18   O61   1.301284 A    
N11   O48   1.301005 A    
N9    O43   1.301412 A    
C60   C72   1.410667 A    
H7    C43   1.083366 S    
O1    C3    1.296000 A    
H13   C92   1.083169 S    
O15   Cr3   1.912935 S    
H6    C42   1.083365 S    
N16   O58   1.301473 A    
H14   C91   1.083054 S    
C65   C77   1.410951 A    
N1    O27   1.301557 A    
H12   C48   1.083471 S    
H21   C90   1.083059 S    
C18   C21   1.200710 T    
C50   C62   1.413482 A    
O11   Cr5   2.029742 S    
H3    C39   1.082839 S    
C15   C24   1.203658 T    
N15   O56   1.301533 A    
C10   C36   1.476683 S    
