data_mof_unit_32069.cif
_audit_creation_date              2013-03-05T15:44:47-0500
_audit_creation_method            fapswitch 2.2
_symmetry_space_group_name_H-M    P1
_symmetry_Int_Tables_number       1
_space_group_crystal_system       triclinic
_cell_length_a                    12.917092
_cell_length_b                    13.083994
_cell_length_c                    15.305805
_cell_angle_alpha                 115.928485
_cell_angle_beta                  63.258345
_cell_angle_gamma                 96.841316
_cell_volume                      2067.85635724

loop_
_atom_site_label
_atom_site_type_symbol
_atom_site_description
_atom_site_fract_x
_atom_site_fract_y
_atom_site_fract_z
_atom_type_partial_charge
C1    C     C_R   0.021469 0.833629 0.031571 -0.102653
H1    H     H_    0.065626 0.896478 0.072797 0.120766
N1    N     N_R   0.037310 0.720000 0.995790 -0.053946
C2    C     C_R   0.699367 0.407033 0.212355 -0.136264
H2    H     H_    0.643844 0.349102 0.182018 0.094979
N2    N     N_R   0.790790 0.446160 0.152010 -0.040667
C3    C     C_R   0.738527 0.580825 0.951224 -0.129601
H3    H     H_    0.746170 0.629410 0.907631 0.091962
N3    N     N_R   0.824890 0.517960 0.936420 -0.044155
C4    C     C_R   0.959811 0.716264 0.316211 -0.099464
H4    H     H_    0.921775 0.690022 0.381234 0.096446
N4    N     N_R   0.003210 0.648190 0.211380 -0.043850
C5    C     C_R   0.660398 0.484455 0.051726 -0.113870
H5    H     H_    0.601499 0.447427 0.104182 0.095285
N5    N     N_R   0.774330 0.457010 0.995840 -0.047376
C6    C     C_R   0.047063 0.817350 0.219684 -0.023917
H6    H     H_    0.091683 0.884038 0.198093 0.113018
N6    N     N_R   0.053760 0.709140 0.151960 -0.049616
C7    C     C_R   0.801216 0.492519 0.305687 -0.128932
H7    H     H_    0.841727 0.511416 0.358555 0.091243
N7    N     N_R   0.853860 0.498840 0.211410 -0.041715
C8    C     C_R   0.925019 0.749359 0.932788 -0.137853
H8    H     H_    0.881581 0.735954 0.883396 0.093749
N8    N     N_R   0.974240 0.667310 0.936390 -0.045798
C9    C     C_R   0.945150 0.854468 0.998656 0.186217
C10   C     C_R   0.703860 0.434932 0.309098 0.084342
C11   C     C_R   0.635616 0.565249 0.027352 0.126311
C12   C     C_R   0.985831 0.822715 0.322192 0.098911
C13   C     C_R   0.322026 0.580463 0.012657 -0.109461
H9    H     H_    0.367407 0.644756 0.987221 0.093970
N9    N     N_R   0.225670 0.542990 0.004160 -0.047254
C14   C     C_R   0.911424 0.197523 0.789777 -0.133676
H10   H     H_    0.861732 0.135984 0.817423 0.094491
N10   N     N_R   0.946240 0.290860 0.848040 -0.038881
C15   C     C_R   0.221640 0.437662 0.685634 -0.086530
H11   H     H_    0.197700 0.391923 0.620535 0.131812
N11   N     N_R   0.146140 0.501160 0.788590 -0.054448
C16   C     C_R   0.093871 0.251163 0.049036 -0.096782
H12   H     H_    0.152880 0.266217 0.084861 0.108920
N12   N     N_R   0.025760 0.332690 0.063610 -0.045815
C17   C     C_R   0.995536 0.167570 0.952367 -0.118890
H13   H     H_    0.964004 0.104882 0.897868 0.099761
N13   N     N_R   0.962690 0.280000 0.004210 -0.044914
C18   C     C_R   0.321750 0.519049 0.782391 -0.131112
H14   H     H_    0.389498 0.544724 0.808137 0.094542
N14   N     N_R   0.209210 0.553840 0.847990 -0.047251
C19   C     C_R   0.243104 0.480172 0.108143 -0.148838
H15   H     H_    0.219140 0.450533 0.169962 0.106228
N15   N     N_R   0.175110 0.482040 0.063580 -0.045019
C20   C     C_R   0.993710 0.298344 0.694141 -0.106166
H16   H     H_    0.019091 0.330835 0.634106 0.110565
N16   N     N_R   0.996790 0.351810 0.788620 -0.041040
Ni1   Ni    Ni4+2 0.130310 0.630310 0.999970 0.232681
Ni2   Ni    Ni4+2 0.869690 0.369690 0.000030 0.216265
Ni3   Ni    Ni4+2 0.985640 0.509470 0.863740 0.219665
Ni4   Ni    Ni4+2 0.014360 0.490530 0.136260 0.231699
C21   C     C_R   0.334975 0.542776 0.078182 0.167271
C22   C     C_R   0.941789 0.201323 0.693354 0.069732
C23   C     C_R   0.333120 0.444060 0.679666 0.091927
C24   C     C_R   0.078548 0.145492 0.978309 0.069685
C25   C     C_R   0.075957 0.968193 0.422678 0.337588
C26   C     C_R   0.060960 0.066742 0.513274 -0.229374
H17   H     H_    0.136374 0.108000 0.520378 0.223091
C27   C     C_R   0.949628 0.107769 0.598448 0.063684
C28   C     C_R   0.851125 0.053837 0.595596 -0.154318
H18   H     H_    0.765662 0.086352 0.663688 0.128808
C29   C     C_R   0.864195 0.957932 0.503207 -0.160763
H19   H     H_    0.788218 0.916084 0.497755 0.146386
C30   C     C_R   0.975724 0.917002 0.417601 -0.038781
C31   C     C_R   0.634976 0.451683 0.494037 -0.134441
H20   H     H_    0.704767 0.502172 0.503989 0.112159
C32   C     C_R   0.544879 0.448487 0.585697 -0.188005
H21   H     H_    0.550189 0.497211 0.661246 0.123813
C33   C     C_R   0.444368 0.398029 0.581050 -0.006898
C34   C     C_R   0.448337 0.325805 0.478644 0.352077
C35   C     C_R   0.538432 0.331982 0.386419 -0.265367
H22   H     H_    0.537431 0.284009 0.308670 0.163121
C36   C     C_R   0.626766 0.402862 0.396030 0.093401
C37   C     C_2   0.427605 0.565579 0.110449 -0.107373
H23   H     H_    0.429793 0.521616 0.155469 0.114402
C38   C     C_2   0.520946 0.610025 0.059445 -0.152489
H24   H     H_    0.517394 0.658243 0.018422 0.126212
C39   C     C_2   0.891277 0.964440 0.026717 -0.308413
H25   H     H_    0.869828 0.969351 0.967752 0.121384
C40   C     C_2   0.854851 0.054711 0.124090 0.244803
N17   N     N_R   0.191908 0.918264 0.340139 0.229007
O1    O     O_R   0.274689 0.983352 0.318023 -0.322917
O2    O     O_R   0.218823 0.808879 0.297902 -0.415968
N18   N     N_R   0.363116 0.246621 0.467545 0.225326
O3    O     O_R   0.322937 0.193262 0.529101 -0.405114
O4    O     O_R   0.335427 0.217840 0.388481 -0.385055
I1    I     I_    0.866062 0.069782 0.263187 -0.426678

loop_
_geom_bond_atom_site_label_1
_geom_bond_atom_site_label_2
_geom_bond_distance
_ccdc_geom_bond_type
C6    C12   1.375610 A    
C31   C36   1.399490 A    
C17   H13   1.078098 S    
C21   C37   1.443069 S    
C12   C30   1.401003 S    
C14   C22   1.368576 A    
C38   H24   1.083329 S    
C3    H3    1.075051 S    
C19   N15   1.340145 A    
N8    Ni3   1.854725 S    
C26   H17   1.082068 S    
C39   H25   1.084162 S    
C7    N7    1.326413 A    
C35   C36   1.401167 A    
C16   H12   1.079988 S    
N17   O2    1.301642 A    
C18   C23   1.390617 A    
C4    C12   1.365982 A    
C3    C11   1.384013 A    
C15   C23   1.395889 A    
C1    H1    1.076148 S    
C7    C10   1.378934 A    
C26   C27   1.393026 A    
N6    Ni1   1.878280 S    
N2    Ni2   1.877484 S    
C7    H7    1.079359 S    
C6    H6    1.078743 S    
N12   Ni4   1.854724 S    
C8    C9    1.383322 A    
C20   N16   1.320070 A    
C31   H20   1.079813 S    
N3    Ni3   1.851896 S    
N18   O4    1.301176 A    
N16   Ni3   1.856231 S    
C5    H5    1.077402 S    
C1    C9    1.389633 A    
C17   N13   1.341097 A    
N1    N8    1.396494 A    
N9    N15   1.365746 A    
C40   I1    2.120377 S    
C18   N14   1.331534 A    
N12   N13   1.396494 A    
C22   C27   1.400320 S    
C33   C34   1.412911 A    
C29   H19   1.084269 S    
C20   C22   1.361048 A    
N5    Ni2   1.815794 S    
C11   C38   1.441798 S    
C35   H22   1.081195 S    
C32   C33   1.401560 A    
C25   N17   1.440343 S    
C37   C38   1.335737 D    
N17   O1    1.300998 A    
C2    H2    1.080230 S    
C28   C29   1.373541 A    
N2    N7    1.396476 A    
C1    N1    1.346008 A    
C15   H11   1.076249 S    
C14   N10   1.329123 A    
C34   C35   1.397290 A    
C13   H9    1.079974 S    
C19   C21   1.377195 A    
N13   Ni2   1.815208 S    
C19   H15   1.081750 S    
C20   H16   1.081596 S    
C10   C36   1.460964 S    
N9    Ni1   1.815795 S    
C23   C33   1.471468 S    
N4    Ni4   1.856231 S    
C4    N4    1.319767 A    
C16   C24   1.393342 A    
C2    N2    1.340745 A    
C39   C40   1.341471 D    
C13   C21   1.371139 A    
N10   Ni2   1.878281 S    
C5    N5    1.323196 A    
C8    N8    1.343745 A    
N18   O3    1.301264 A    
C18   H14   1.076319 S    
C25   C30   1.403339 A    
C3    N3    1.341823 A    
C15   N11   1.337786 A    
C17   C24   1.395744 A    
C32   H21   1.079137 S    
N7    Ni4   1.852374 S    
C2    C10   1.388805 A    
N15   Ni4   1.851895 S    
N10   N16   1.365731 A    
C27   C28   1.388498 A    
N3    N5    1.365745 A    
C13   N9    1.323245 A    
C14   H10   1.081550 S    
C16   N12   1.341837 A    
N1    Ni1   1.815206 S    
N14   Ni1   1.877484 S    
C25   C26   1.370076 A    
C4    H4    1.080904 S    
C34   N18   1.434127 S    
C37   H23   1.083745 S    
N11   Ni3   1.852372 S    
C6    N6    1.323470 A    
C28   H18   1.083792 S    
N4    N6    1.365733 A    
C9    C39   1.472476 S    
C8    H8    1.076764 S    
C5    C11   1.375533 A    
C31   C32   1.376493 A    
C29   C30   1.396590 A    
N11   N14   1.396476 A    
