data_mof_unit_33921.cif
_audit_creation_date              2013-03-05T16:32:59-0500
_audit_creation_method            fapswitch 2.2
_symmetry_space_group_name_H-M    P1
_symmetry_Int_Tables_number       1
_space_group_crystal_system       triclinic
_cell_length_a                    23.473564
_cell_length_b                    10.793733
_cell_length_c                    9.619745
_cell_angle_alpha                 89.830305
_cell_angle_beta                  89.237104
_cell_angle_gamma                 90.313154
_cell_volume                      2437.0659312

loop_
_atom_site_label
_atom_site_type_symbol
_atom_site_description
_atom_site_fract_x
_atom_site_fract_y
_atom_site_fract_z
_atom_type_partial_charge
O1    O     O_R   0.500000 0.319640 0.618810 -0.549540
O2    O     O_R   0.500010 0.319680 0.381230 -0.560057
C1    C     C_R   0.496374 0.262732 0.499872 0.833513
O3    O     O_R   0.417880 0.499940 0.618820 -0.510675
O4    O     O_R   0.417880 0.499980 0.381240 -0.596265
C2    C     C_R   0.391264 0.501346 0.500930 0.876984
Cu1   Cu    Cu3+1 0.500000 0.499980 0.640670 1.002200
Cu2   Cu    Cu3+1 0.500000 0.500020 0.359330 1.003070
O5    O     O_R   0.499990 0.680320 0.618770 -0.609012
O6    O     O_R   0.500000 0.680360 0.381190 -0.520095
O7    O     O_R   0.582120 0.500020 0.618760 -0.587190
O8    O     O_R   0.582120 0.500060 0.381180 -0.589552
C3    C     C_R   0.496602 0.737685 0.499827 0.875369
C4    C     C_R   0.608702 0.499433 0.498981 0.825621
C5    C     C_R   0.880345 0.564371 0.398983 0.625908
N1    N     N_R   0.850781 0.479301 0.476737 -0.434812
C6    C     C_R   0.877725 0.391369 0.554216 0.598573
C7    C     C_R   0.937889 0.385935 0.555431 -0.129583
C8    C     C_R   0.968957 0.475055 0.476346 -0.058266
C9    C     C_R   0.939941 0.563090 0.395695 -0.072710
C10   C     C_R   0.968171 0.298149 0.635786 0.331772
C11   C     C_R   0.027551 0.305806 0.642623 -0.227877
C12   C     C_R   0.058309 0.393829 0.564435 -0.052277
C13   C     C_R   0.029169 0.477083 0.478508 -0.067010
C14   C     C_R   0.060175 0.563289 0.396127 -0.116139
C15   C     C_R   0.030271 0.652817 0.317882 0.477764
C16   C     C_R   0.970839 0.649878 0.316134 -0.238304
C17   C     C_R   0.117913 0.400565 0.570831 0.574433
N2    N     N_R   0.147883 0.480388 0.485747 -0.458577
C18   C     C_R   0.120157 0.557288 0.395330 0.551454
O9    O     O_2   0.851939 0.651360 0.327193 -0.553290
O10   O     O_2   0.846066 0.312404 0.632243 -0.499542
H1    H     H_    0.049743 0.238935 0.706029 0.214581
O11   O     O_2   0.145541 0.328921 0.662995 -0.524739
O12   O     O_2   0.150637 0.626068 0.303326 -0.488151
H2    H     H_    0.949006 0.717674 0.253358 0.189946
C19   C     C_R   0.236866 0.601140 0.507675 -0.153846
H3    H     H_    0.211565 0.684386 0.516983 0.181803
C20   C     C_R   0.296446 0.610033 0.509456 0.317377
C21   C     C_R   0.328899 0.499906 0.503307 -0.100949
C22   C     C_R   0.301221 0.385030 0.494250 -0.258647
H4    H     H_    0.325505 0.300152 0.491934 0.153328
C23   C     C_R   0.242093 0.378279 0.486043 -0.078838
H5    H     H_    0.221875 0.288676 0.473643 0.169297
C24   C     C_R   0.209284 0.486280 0.493365 0.270079
C25   C     C_R   0.757551 0.411650 0.391437 0.453402
C26   C     C_R   0.698010 0.415558 0.400040 -0.318646
H6    H     H_    0.672915 0.356667 0.333333 0.167733
C27   C     C_R   0.670826 0.494231 0.495121 -0.135943
C28   C     C_R   0.703147 0.570444 0.581536 -0.315522
H7    H     H_    0.682309 0.635873 0.650242 0.159425
C29   C     C_R   0.762708 0.566643 0.574734 0.434375
C30   C     C_R   0.789808 0.485314 0.481431 0.184857
C31   C     C_R   0.486387 0.063731 0.622935 -0.000761
C32   C     C_R   0.484494 0.130492 0.499354 -0.238504
C33   C     C_R   0.468757 0.065960 0.377315 0.349660
C34   C     C_R   0.470779 0.935762 0.376915 0.299071
C35   C     C_R   0.484375 0.870472 0.499859 -0.254602
C36   C     C_R   0.484126 0.936731 0.624117 -0.045646
C37   C     C_3   0.522038 0.929276 0.748559 0.296212
C38   C     C_3   0.525785 0.070229 0.742929 -0.374248
H8    H     H_    0.563519 0.883888 0.725964 0.089579
H9    H     H_    0.505850 0.117292 0.833919 0.241655
H10   H     H_    0.568828 0.105372 0.712636 0.148187
C39   C     C_R   0.549531 0.514200 0.071630 0.238417
N3    N     N_R   0.500360 0.500930 0.147930 -0.196906
C40   C     C_R   0.452402 0.471342 0.076896 -0.097043
H11   H     H_    0.413791 0.448139 0.133577 0.167417
C41   C     C_R   0.452565 0.466334 0.929320 0.367610
N4    N     N_R   0.500360 0.500890 0.852020 -0.250772
C42   C     C_R   0.549461 0.515117 0.925233 0.196433
C43   C     C_3   0.590471 0.620751 0.918333 -0.478254
C44   C     C_3   0.590666 0.619644 0.076491 -0.443518
H12   H     H_    0.632076 0.593336 0.871819 0.182442
H13   H     H_    0.571491 0.705413 0.873530 0.237088
H14   H     H_    0.632319 0.591364 0.119854 0.185385
H15   H     H_    0.571969 0.703951 0.123970 0.261010
N5    N     N_R   0.940141 0.198004 0.707662 0.154709
O13   O     O_R   0.914066 0.112922 0.636640 -0.303025
O14   O     O_R   0.951515 0.176742 0.837542 -0.351994
O15   O     O_3   0.794663 0.652979 0.645558 -0.572462
C45   C     C_3   0.800230 0.614267 0.784646 0.018685
H16   H     H_    0.819291 0.520102 0.789999 0.162262
H17   H     H_    0.758003 0.613966 0.839020 0.135326
C46   C     C_3   0.839851 0.704963 0.857749 -0.301943
H18   H     H_    0.881759 0.707590 0.802463 0.240463
H19   H     H_    0.821178 0.799371 0.854612 0.249051
C47   C     C_3   0.848961 0.667635 0.008550 -0.834747
H20   H     H_    0.807523 0.664006 0.065607 0.267117
H21   H     H_    0.876885 0.737126 0.058908 0.281810
H22   H     H_    0.869817 0.575649 0.014068 0.249411
O16   O     O_3   0.458612 0.125869 0.252452 -0.559961
C48   C     C_3   0.403137 0.177144 0.252459 0.062245
H23   H     H_    0.399230 0.229624 0.153719 0.189884
H24   H     H_    0.397289 0.244846 0.337912 0.121359
C49   C     C_3   0.355541 0.078470 0.258525 -0.376041
H25   H     H_    0.366970 0.998969 0.191827 0.274579
H26   H     H_    0.350153 0.044533 0.367100 0.248236
C50   C     C_3   0.298940 0.129922 0.208585 -0.836842
H27   H     H_    0.286575 0.212413 0.269966 0.251466
H28   H     H_    0.265177 0.058097 0.220716 0.276271
H29   H     H_    0.302346 0.156221 0.097026 0.274219
N6    N     N_R   0.464032 0.873170 0.247869 0.132736
O17   O     O_R   0.421909 0.796158 0.230201 -0.374141
O18   O     O_R   0.502422 0.888136 0.150881 -0.337394
O19   O     O_3   0.497751 0.890589 0.878180 -0.559659
C51   C     C_3   0.443022 0.834673 0.872878 0.182893
H30   H     H_    0.439646 0.769082 0.961623 0.203750
H31   H     H_    0.436379 0.776881 0.780146 0.180049
C52   C     C_3   0.396196 0.932462 0.887741 -0.340467
H32   H     H_    0.407387 0.997781 0.972054 0.258546
H33   H     H_    0.392786 0.986741 0.790153 0.240620
C53   C     C_3   0.338357 0.873036 0.920087 -0.791571
H34   H     H_    0.326199 0.808501 0.835707 0.292838
H35   H     H_    0.305484 0.946260 0.928989 0.259794
H36   H     H_    0.339619 0.821305 0.019940 0.280516
N7    N     N_R   0.403218 0.415767 0.865036 0.131766
O20   O     O_R   0.353236 0.460251 0.895925 -0.365497
O21   O     O_R   0.406521 0.308198 0.804956 -0.372990
O22   O     O_3   0.058303 0.743534 0.240826 -0.562337
C54   C     C_3   0.070914 0.846256 0.326981 0.105804
H37   H     H_    0.111980 0.886602 0.289416 0.199920
H38   H     H_    0.077325 0.820824 0.438359 0.122515
C55   C     C_3   0.024701 0.945452 0.315389 -0.380731
H39   H     H_    0.018251 0.968819 0.204113 0.252736
H40   H     H_    0.983896 0.909409 0.359479 0.234864
C56   C     C_3   0.040985 0.062955 0.393765 -0.813345
H41   H     H_    0.046495 0.042187 0.505942 0.264878
H42   H     H_    0.006708 0.132730 0.383156 0.273415
H43   H     H_    0.081207 0.102905 0.350574 0.249436
N8    N     N_R   0.322549 0.730814 0.515203 0.118435
O23   O     O_R   0.295545 0.827525 0.469814 -0.369978
O24   O     O_R   0.370780 0.747129 0.577086 -0.424102
O25   O     O_3   0.784783 0.332906 0.299010 -0.579055
C57   C     C_3   0.776760 0.373367 0.160227 0.061969
H44   H     H_    0.819547 0.386568 0.111515 0.179431
H45   H     H_    0.754186 0.463917 0.150343 0.119285
C58   C     C_3   0.744692 0.273826 0.079000 -0.328122
H46   H     H_    0.768875 0.185614 0.082365 0.253564
H47   H     H_    0.702122 0.257393 0.127464 0.213417
C59   C     C_3   0.736802 0.312187 0.927632 -0.870448
H48   H     H_    0.712644 0.400259 0.921486 0.231727
H49   H     H_    0.712620 0.239106 0.872335 0.270838
H50   H     H_    0.778898 0.324123 0.875258 0.287297

loop_
_geom_bond_atom_site_label_1
_geom_bond_atom_site_label_2
_geom_bond_distance
_ccdc_geom_bond_type
C57   C58   1.530804 S    
C32   C33   1.418958 A    
Cu2   N3    2.033513 S    
C48   H23   1.109599 S    
C7    C10   1.420662 A    
C22   C23   1.392765 A    
C22   H4    1.081787 S    
C31   C32   1.389674 A    
C8    C9    1.409096 A    
Cu1   N4    2.033317 S    
O15   C45   1.408488 S    
Cu1   Cu2   2.706418 S    
C26   C27   1.399948 A    
C46   H18   1.112224 S    
O22   C54   1.418535 S    
Cu1   O7    1.936341 S    
C15   C16   1.395606 A    
C19   H3    1.083045 S    
C18   O12   1.349011 S    
C17   N2    1.371512 A    
C15   O22   1.384518 S    
C43   H13   1.107491 S    
O4    C2    1.302806 A    
O7    C4    1.303072 A    
N5    O14   1.301085 A    
C4    C27   1.459632 S    
O19   C51   1.418008 S    
C5    N1    1.363584 A    
C49   C50   1.525772 S    
C39   C44   1.489768 S    
C33   C34   1.406393 A    
C37   H8    1.111553 S    
C7    C8    1.417457 A    
C38   H9    1.112442 S    
O5    C3    1.302948 A    
C52   H32   1.109479 S    
C54   C55   1.533219 S    
N1    C30   1.433191 S    
C1    C32   1.452890 S    
C26   H6    1.082232 S    
N1    C6    1.367951 A    
C49   H26   1.111221 S    
C10   N5    1.433571 S    
C28   C29   1.399593 A    
C12   C13   1.405714 A    
N4    C42   1.366871 A    
C53   H36   1.110444 S    
N3    C40   1.361645 A    
C17   O11   1.349586 S    
C36   C37   1.503351 S    
C48   H24   1.109161 S    
C10   C11   1.398284 A    
C51   H31   1.102332 S    
C41   N4    1.386487 A    
O3    Cu1   1.941853 S    
C6    C7    1.413999 A    
C31   C36   1.371548 A    
C46   H19   1.111967 S    
C5    C9    1.399005 A    
C34   N6    1.425340 S    
C40   H11   1.079360 S    
C57   H44   1.110915 S    
C13   C14   1.412958 A    
C43   H12   1.110803 S    
C59   H50   1.109891 S    
C20   C21   1.416300 A    
N5    O13   1.301334 A    
C3    C35   1.463265 S    
C14   C15   1.417849 A    
C39   C42   1.408335 A    
O6    C3    1.301527 A    
N2    C24   1.445185 S    
C37   C38   1.524227 S    
O1    C1    1.303775 A    
C59   H49   1.110415 S    
C38   H10   1.112191 S    
C23   H5    1.082598 S    
C56   H42   1.110575 S    
N2    C18   1.373249 A    
C25   O25   1.384503 S    
C50   H27   1.107723 S    
C47   H22   1.110847 S    
Cu2   O8    1.941853 S    
C49   H25   1.105076 S    
C9    C16   1.401041 A    
C28   H7    1.082951 S    
N6    O18   1.297613 A    
C12   C17   1.402780 A    
C23   C24   1.402095 A    
C52   C53   1.526306 S    
C54   H37   1.111149 S    
C58   H47   1.110202 S    
C55   C56   1.526821 S    
O3    C2    1.302134 A    
C21   C22   1.400179 A    
C50   H28   1.110428 S    
O8    C4    1.300930 A    
C45   H16   1.114078 S    
C48   C49   1.539755 S    
C45   H17   1.114559 S    
C44   H14   1.111981 S    
C2    C21   1.463795 S    
C51   H30   1.109194 S    
C19   C24   1.403484 A    
C56   H41   1.110891 S    
C37   O19   1.424633 S    
C29   C30   1.405855 A    
C55   H40   1.110314 S    
C53   H34   1.110354 S    
C46   C47   1.522581 S    
C14   C18   1.409735 A    
C57   H45   1.118722 S    
C11   H1    1.083679 S    
C25   C26   1.399865 A    
O1    Cu1   1.958487 S    
O2    Cu2   1.957291 S    
C47   H21   1.110030 S    
C43   C44   1.521523 S    
N8    O24   1.297523 A    
C58   C59   1.526601 S    
O4    Cu2   1.936346 S    
C5    O9    1.348478 S    
O25   C57   1.418698 S    
C31   C38   1.490250 S    
C16   H2    1.082846 S    
C45   C46   1.526241 S    
N7    O21   1.300732 A    
O2    C1    1.296292 A    
C35   C36   1.394719 A    
C56   H43   1.110869 S    
C42   C43   1.488951 S    
C19   C20   1.401667 A    
N7    O20   1.301189 A    
C34   C35   1.415916 A    
C20   N8    1.438974 S    
C25   C30   1.403546 A    
C41   N7    1.426975 S    
O16   C48   1.417710 S    
C51   C52   1.533648 S    
C8    C13   1.413866 A    
C39   N3    1.366189 A    
C29   O15   1.380214 S    
C52   H33   1.109147 S    
C54   H38   1.117573 S    
C58   H46   1.111779 S    
Cu1   O5    1.957291 S    
C33   O16   1.386481 S    
C50   H29   1.110999 S    
C47   H20   1.110926 S    
Cu2   O6    1.958486 S    
C27   C28   1.399067 A    
N6    O17   1.301482 A    
C6    O10   1.347801 S    
C44   H15   1.109415 S    
C11   C12   1.401250 A    
C40   C41   1.420778 A    
C59   H48   1.111389 S    
N8    O23   1.301555 A    
C55   H39   1.111543 S    
C53   H35   1.110298 S    
