data_mof_unit_62689.cif
_audit_creation_date              2012-12-10T19:51:39-0500
_audit_creation_method            fapswitch 2.2
_symmetry_space_group_name_H-M    P1
_symmetry_Int_Tables_number       1
_space_group_crystal_system       triclinic
_cell_length_a                    26.050117
_cell_length_b                    26.051975
_cell_length_c                    22.199845
_cell_angle_alpha                 90.000013
_cell_angle_beta                  125.915219
_cell_angle_gamma                 90.0
_cell_volume                      12201.8052493

loop_
_atom_site_label
_atom_site_type_symbol
_atom_type_description
_atom_site_fract_x
_atom_site_fract_y
_atom_site_fract_z
_atom_type_partial_charge
C1    C     C_R   0.650297 0.749986 0.300601 0.815491
C2    C     C_3   0.499088 0.796794 0.024792 -0.163756
C3    C     C_R   0.260839 0.525901 0.456518 0.129906
C4    C     C_R   0.749647 0.945542 0.500502 -0.082246
C5    C     C_R   0.749647 0.054458 0.500502 -0.082245
C6    C     C_R   0.249647 0.445542 0.500502 -0.082249
C7    C     C_R   0.249647 0.554458 0.500502 -0.082249
C8    C     C_R   0.737864 0.973004 0.546131 -0.225821
C9    C     C_R   0.737864 0.026996 0.546131 -0.225826
C10   C     C_R   0.237864 0.473004 0.546131 -0.225817
C11   C     C_R   0.237864 0.526996 0.546131 -0.225819
C12   C     C_3   0.775850 0.029572 0.401438 -0.472003
C13   C     C_3   0.998707 0.703316 0.024792 -0.163784
C14   C     C_3   0.775850 0.970428 0.401438 -0.472003
C15   C     C_3   0.275850 0.529572 0.401438 -0.472005
C16   C     C_3   0.275850 0.470427 0.401438 -0.472010
C17   C     C_R   0.610031 0.750015 0.500070 0.804816
C18   C     C_R   0.610031 0.249985 0.500070 0.804816
C19   C     C_R   0.110031 0.250015 0.500070 0.804818
C20   C     C_R   0.110031 0.749985 0.500070 0.804817
C21   C     C_R   0.749977 0.889975 0.500053 0.805564
C22   C     C_R   0.749977 0.110025 0.500053 0.805564
C23   C     C_R   0.249977 0.389975 0.500053 0.805565
C24   C     C_3   0.000836 0.297256 0.024791 -0.163627
C25   C     C_R   0.249977 0.610025 0.500053 0.805564
C26   C     C_R   0.750031 0.610005 0.500098 0.804206
C27   C     C_R   0.750031 0.389995 0.500098 0.804206
C28   C     C_R   0.250031 0.110005 0.500098 0.804206
C29   C     C_R   0.250031 0.889995 0.500098 0.804207
C30   C     C_R   0.695541 0.525971 0.456628 -0.087525
C31   C     C_R   0.695541 0.474029 0.456628 -0.087526
C32   C     C_R   0.195541 0.025971 0.456630 -0.087526
C33   C     C_R   0.195541 0.974029 0.456630 -0.087526
C34   C     C_R   0.750735 0.554466 0.500718 -0.047107
C35   C     C_3   0.940340 0.738495 0.975258 -0.163060
C36   C     C_R   0.750735 0.445534 0.500718 -0.047108
C37   C     C_R   0.250735 0.054466 0.500718 -0.047104
C38   C     C_R   0.250735 0.945534 0.500718 -0.047104
C39   C     C_R   0.808070 0.526989 0.546644 -0.206685
C40   C     C_R   0.808070 0.473011 0.546644 -0.206680
C41   C     C_R   0.308071 0.026989 0.546641 -0.206688
C42   C     C_R   0.308071 0.973011 0.546641 -0.206687
C43   C     C_3   0.940909 0.263636 0.975258 -0.163268
C44   C     C_3   0.440356 0.238428 0.975258 -0.163066
C45   C     C_3   0.440435 0.761891 0.975258 -0.163098
C46   C     C_1   0.889422 0.749985 0.778917 -0.143962
C47   C     C_1   0.889422 0.250015 0.778917 -0.143962
C48   C     C_1   0.389422 0.249985 0.778917 -0.143962
C49   C     C_R   0.650297 0.250014 0.300601 0.815491
C50   C     C_1   0.389422 0.750015 0.778917 -0.143962
C51   C     C_1   0.610545 0.250008 0.221094 -0.144735
C52   C     C_1   0.610545 0.749992 0.221094 -0.144735
C53   C     C_1   0.110545 0.750008 0.221094 -0.144736
C54   C     C_1   0.110545 0.249992 0.221094 -0.144736
C55   C     C_3   0.021183 0.714816 0.975222 -0.160142
C56   C     C_3   0.022742 0.283626 0.975221 -0.160129
C57   C     C_3   0.521232 0.214863 0.975222 -0.160141
C58   C     C_3   0.521469 0.784909 0.975222 -0.160139
C59   C     C_3   0.963469 0.749994 0.926993 0.202571
C60   C     C_R   0.150298 0.249986 0.300601 0.815492
C61   C     C_3   0.963468 0.250006 0.926993 0.202570
C62   C     C_3   0.463469 0.249994 0.926993 0.202570
C63   C     C_3   0.463469 0.750006 0.926993 0.202570
C64   C     C_3   0.559612 0.261566 0.024759 -0.163837
C65   C     C_3   0.559533 0.738115 0.024759 -0.163863
C66   C     C_3   0.059628 0.761499 0.024759 -0.163829
C67   C     C_3   0.059058 0.236371 0.024759 -0.164006
C68   C     C_3   0.536499 0.250000 0.073022 0.202454
C69   C     C_3   0.536499 0.750000 0.073022 0.202454
C70   C     C_3   0.036499 0.750000 0.073022 0.202454
C71   C     C_R   0.150298 0.750014 0.300601 0.815492
C72   C     C_3   0.036499 0.250001 0.073022 0.202455
C73   C     C_3   0.001262 0.796678 0.975225 -0.163709
C74   C     C_3   0.999132 0.202752 0.975225 -0.163515
C75   C     C_3   0.501196 0.296697 0.975225 -0.163701
C76   C     C_3   0.500880 0.703212 0.975225 -0.163674
C77   C     C_R   0.849669 0.749980 0.699406 0.821153
C78   C     C_R   0.849669 0.250020 0.699406 0.821154
C79   C     C_R   0.349669 0.249980 0.699406 0.821153
C80   C     C_R   0.349669 0.750020 0.699406 0.821153
C81   C     C_3   0.478736 0.285131 0.024795 -0.160331
C82   C     C_3   0.625099 0.470270 0.400410 0.254220
C83   C     C_3   0.478500 0.715097 0.024795 -0.160328
C84   C     C_3   0.978786 0.785178 0.024795 -0.160332
C85   C     C_3   0.977226 0.216381 0.024795 -0.160313
C86   C     C_1   0.922858 0.749990 0.845784 -0.086317
C87   C     C_1   0.922857 0.250011 0.845784 -0.086317
C88   C     C_1   0.422858 0.249990 0.845784 -0.086317
C89   C     C_1   0.422858 0.750010 0.845784 -0.086317
C90   C     C_1   0.577110 0.250004 0.154228 -0.087547
C91   C     C_1   0.577110 0.749996 0.154228 -0.087547
C92   C     C_1   0.077110 0.750004 0.154228 -0.087547
C93   C     C_3   0.625099 0.529730 0.400410 0.254219
C94   C     C_1   0.077109 0.249996 0.154228 -0.087547
C95   C     C_R   0.504397 0.717093 0.457017 0.115314
C96   C     C_R   0.504397 0.282907 0.457017 0.115310
C97   C     C_R   0.004397 0.217094 0.457016 0.115320
C98   C     C_R   0.004397 0.782907 0.457017 0.115313
C99   C     C_R   0.554665 0.750611 0.500455 -0.078780
C100  C     C_R   0.554665 0.249389 0.500455 -0.078783
C101  C     C_R   0.054665 0.250611 0.500455 -0.078780
C102  C     C_R   0.054665 0.749389 0.500455 -0.078781
C103  C     C_R   0.549708 0.785594 0.545459 -0.224631
C104  C     C_3   0.125098 0.970270 0.400417 0.254219
C105  C     C_R   0.549707 0.214406 0.545458 -0.224622
C106  C     C_R   0.049708 0.285593 0.545460 -0.224631
C107  C     C_R   0.049708 0.714406 0.545459 -0.224627
C108  C     C_R   0.495714 0.785605 0.545451 -0.225836
C109  C     C_R   0.495714 0.214395 0.545451 -0.225831
C110  C     C_R   0.995714 0.285604 0.545452 -0.225842
C111  C     C_R   0.995714 0.714395 0.545451 -0.225832
C112  C     C_R   0.445749 0.750636 0.500436 -0.078331
C113  C     C_R   0.445749 0.249364 0.500435 -0.078333
C114  C     C_R   0.945749 0.250636 0.500435 -0.078330
C115  C     C_3   0.125098 0.029729 0.400417 0.254219
C116  C     C_R   0.945749 0.749364 0.500436 -0.078332
C117  C     C_R   0.452585 0.717109 0.456997 0.127037
C118  C     C_R   0.452585 0.282891 0.456997 0.127033
C119  C     C_R   0.952584 0.217110 0.456996 0.127041
C120  C     C_R   0.952585 0.782891 0.456997 0.127036
C121  C     C_3   0.421868 0.673975 0.402888 -0.480899
C122  C     C_3   0.421868 0.326025 0.402888 -0.480887
C123  C     C_3   0.921866 0.173976 0.402885 -0.480901
C124  C     C_3   0.921868 0.826025 0.402888 -0.480895
C125  C     C_R   0.889999 0.749949 0.500059 0.804884
C126  C     C_3   0.498773 0.203297 0.024792 -0.163779
C127  C     C_R   0.889999 0.250051 0.500059 0.804885
C128  C     C_R   0.389999 0.249949 0.500059 0.804883
C129  C     C_R   0.389999 0.750051 0.500059 0.804884
C130  C     C_3   0.481035 0.673952 0.402925 -0.435218
C131  C     C_3   0.481036 0.326048 0.402925 -0.435212
C132  C     C_3   0.981034 0.173954 0.402922 -0.435230
C133  C     C_3   0.981035 0.826048 0.402925 -0.435215
C134  C     C_R   0.760839 0.974099 0.456518 0.129904
C135  C     C_R   0.760839 0.025901 0.456518 0.129905
C136  C     C_R   0.260839 0.474099 0.456518 0.129906
H1    H     H_    0.852810 0.546922 0.582406 0.169521
H2    H     H_    0.493321 0.187138 0.580564 0.176875
H3    H     H_    0.993323 0.312861 0.580567 0.176868
H4    H     H_    0.993322 0.687138 0.580565 0.176874
H5    H     H_    0.417399 0.638948 0.428094 0.208456
H6    H     H_    0.417400 0.361052 0.428095 0.208453
H7    H     H_    0.917397 0.138949 0.428091 0.208459
H8    H     H_    0.917399 0.861052 0.428095 0.208457
H9    H     H_    0.377898 0.686180 0.349049 0.209848
H10   H     H_    0.377898 0.313820 0.349049 0.209865
H11   H     H_    0.877897 0.186182 0.349047 0.209844
H12   H     H_    0.852810 0.453078 0.582406 0.169524
H13   H     H_    0.877898 0.813820 0.349049 0.209853
H14   H     H_    0.510684 0.638920 0.428173 0.237532
H15   H     H_    0.510684 0.361081 0.428174 0.237530
H16   H     H_    0.010682 0.138921 0.428170 0.237539
H17   H     H_    0.010684 0.861080 0.428174 0.237535
H18   H     H_    0.471235 0.686136 0.349107 0.209016
H19   H     H_    0.471235 0.313864 0.349108 0.209024
H20   H     H_    0.971234 0.186138 0.349105 0.209000
H21   H     H_    0.971235 0.813864 0.349107 0.209019
H22   H     H_    0.728694 0.953059 0.581722 0.177335
H23   H     H_    0.352811 0.046922 0.582401 0.169519
H24   H     H_    0.728694 0.046941 0.581722 0.177332
H25   H     H_    0.228694 0.453058 0.581722 0.177337
H26   H     H_    0.228694 0.546941 0.581722 0.177337
H27   H     H_    0.736298 0.046644 0.347893 0.208783
H28   H     H_    0.736298 0.953356 0.347893 0.208782
H29   H     H_    0.236298 0.546644 0.347893 0.208780
H30   H     H_    0.236298 0.453356 0.347893 0.208770
H31   H     H_    0.823357 0.046627 0.425854 0.206446
H32   H     H_    0.823357 0.953373 0.425854 0.206445
H33   H     H_    0.323357 0.546627 0.425854 0.206445
H34   H     H_    0.352811 0.953078 0.582401 0.169519
H35   H     H_    0.323357 0.453373 0.425854 0.206446
H36   H     H_    0.611090 0.452891 0.347037 0.103074
H37   H     H_    0.611090 0.547109 0.347037 0.103075
H38   H     H_    0.111086 0.952891 0.347042 0.103079
H39   H     H_    0.111086 0.047109 0.347042 0.103094
H40   H     H_    0.890808 0.729044 0.953879 0.133089
H41   H     H_    0.891846 0.274837 0.953879 0.133004
H42   H     H_    0.390838 0.228923 0.953879 0.133086
H43   H     H_    0.390982 0.771659 0.953879 0.133074
H44   H     H_    0.498300 0.164923 0.046200 0.132401
H45   H     H_    0.587213 0.812845 0.580574 0.176926
H46   H     H_    0.498876 0.835242 0.046200 0.132412
H47   H     H_    0.998180 0.664958 0.046201 0.132398
H48   H     H_    0.002059 0.336083 0.046199 0.132470
H49   H     H_    0.461800 0.314000 0.046208 0.135071
H50   H     H_    0.461369 0.686415 0.046208 0.135074
H51   H     H_    0.961890 0.814087 0.046207 0.135069
H52   H     H_    0.959049 0.188753 0.046209 0.135089
H53   H     H_    0.001790 0.835036 0.953818 0.132819
H54   H     H_    0.997910 0.163923 0.953820 0.132903
H55   H     H_    0.501670 0.335071 0.953818 0.132822
H56   H     H_    0.587213 0.187155 0.580574 0.176931
H57   H     H_    0.501095 0.664763 0.953818 0.132835
H58   H     H_    0.609131 0.271071 0.046140 0.132498
H59   H     H_    0.608987 0.728348 0.046140 0.132485
H60   H     H_    0.109161 0.770950 0.046140 0.132501
H61   H     H_    0.108123 0.225171 0.046140 0.132409
H62   H     H_    0.038081 0.685907 0.953813 0.134417
H63   H     H_    0.040921 0.311255 0.953811 0.134421
H64   H     H_    0.538171 0.185993 0.953813 0.134417
H65   H     H_    0.538602 0.813591 0.953812 0.134417
H66   H     H_    0.618266 0.454348 0.482387 0.336948
H67   H     H_    0.087214 0.312844 0.580576 0.176924
H68   H     H_    0.618266 0.545652 0.482387 0.336949
H69   H     H_    0.118272 0.954347 0.482399 0.336950
H70   H     H_    0.118272 0.045652 0.482399 0.336950
H71   H     H_    0.087213 0.687155 0.580574 0.176928
H72   H     H_    0.493322 0.812862 0.580565 0.176872
O1    O     O_3   0.749980 0.749980 0.500000 -0.482256
O2    O     O_R   0.612630 0.280380 0.456900 -0.632639
O3    O     O_R   0.112630 0.219620 0.456900 -0.632641
O4    O     O_R   0.112630 0.780380 0.456900 -0.632638
O5    O     O_R   0.698160 0.780350 0.335610 -0.640135
O6    O     O_R   0.698160 0.219650 0.335610 -0.640137
O7    O     O_R   0.198160 0.280350 0.335610 -0.640135
O8    O     O_R   0.198160 0.719650 0.335610 -0.640137
O9    O     O_R   0.801810 0.780340 0.664390 -0.637915
O10   O     O_R   0.801810 0.219660 0.664390 -0.637913
O11   O     O_R   0.301810 0.280340 0.664390 -0.637915
O12   O     O_3   0.749980 0.250020 0.500000 -0.482256
O13   O     O_R   0.301810 0.719660 0.664390 -0.637912
O14   O     O_R   0.637440 0.719620 0.335610 -0.637441
O15   O     O_R   0.637440 0.280380 0.335610 -0.637439
O16   O     O_R   0.137440 0.219620 0.335610 -0.637443
O17   O     O_R   0.137440 0.780380 0.335610 -0.637440
O18   O     O_R   0.862520 0.719620 0.664390 -0.638022
O19   O     O_R   0.862520 0.280380 0.664390 -0.638025
O20   O     O_R   0.362520 0.219620 0.664390 -0.638022
O21   O     O_R   0.362520 0.780380 0.664390 -0.638024
O22   O     O_R   0.844240 0.780350 0.456900 -0.643114
O23   O     O_3   0.249980 0.249980 0.500000 -0.482256
O24   O     O_R   0.844240 0.219650 0.456900 -0.643114
O25   O     O_R   0.344240 0.280350 0.456900 -0.643112
O26   O     O_R   0.344240 0.719650 0.456900 -0.643114
O27   O     O_R   0.655730 0.780340 0.543100 -0.650676
O28   O     O_R   0.655730 0.219660 0.543100 -0.650672
O29   O     O_R   0.155730 0.280340 0.543100 -0.650675
O30   O     O_R   0.155730 0.719660 0.543100 -0.650675
O31   O     O_R   0.758800 0.865790 0.456890 -0.643355
O32   O     O_R   0.758800 0.134210 0.456890 -0.643354
O33   O     O_R   0.258800 0.365790 0.456890 -0.643357
O34   O     O_3   0.249980 0.750020 0.500000 -0.482256
O35   O     O_R   0.258800 0.634210 0.456890 -0.643355
O36   O     O_R   0.698070 0.634180 0.456910 -0.621910
O37   O     O_R   0.698070 0.365820 0.456910 -0.621911
O38   O     O_R   0.198070 0.134180 0.456910 -0.621909
O39   O     O_R   0.198070 0.865820 0.456910 -0.621911
O40   O     O_R   0.741170 0.865780 0.543090 -0.648989
O41   O     O_R   0.741170 0.134220 0.543090 -0.648992
O42   O     O_R   0.241170 0.365780 0.543090 -0.648988
O43   O     O_R   0.241170 0.634220 0.543090 -0.648989
O44   O     O_R   0.801880 0.634180 0.543110 -0.654417
O45   O     O_R   0.887330 0.719620 0.543100 -0.649302
O46   O     O_R   0.801880 0.365820 0.543110 -0.654414
O47   O     O_R   0.301880 0.134180 0.543110 -0.654418
O48   O     O_R   0.301880 0.865820 0.543110 -0.654417
O49   O     O_3   0.593362 0.448046 0.428013 -0.714859
O50   O     O_3   0.593362 0.551954 0.428013 -0.714859
O51   O     O_3   0.093365 0.948046 0.428024 -0.714861
O52   O     O_3   0.093365 0.051954 0.428024 -0.714862
O53   O     O_R   0.887330 0.280380 0.543100 -0.649306
O54   O     O_R   0.387330 0.219620 0.543100 -0.649302
O55   O     O_R   0.387330 0.780380 0.543100 -0.649303
O56   O     O_R   0.612630 0.719620 0.456900 -0.632638
Zn1   Zn    Zn3+2 0.824140 0.706600 0.561580 0.961650
Zn2   Zn    Zn3+2 0.737390 0.206640 0.561570 0.963313
Zn3   Zn    Zn3+2 0.237390 0.293360 0.561570 0.963312
Zn4   Zn    Zn3+2 0.237390 0.706640 0.561570 0.963314
Zn5   Zn    Zn3+2 0.675820 0.706600 0.438430 0.984001
Zn6   Zn    Zn3+2 0.675820 0.293400 0.438430 0.984001
Zn7   Zn    Zn3+2 0.175820 0.206600 0.438430 0.983999
Zn8   Zn    Zn3+2 0.175820 0.793400 0.438430 0.984001
Zn9   Zn    Zn3+2 0.824140 0.293400 0.561580 0.961647
Zn10  Zn    Zn3+2 0.324140 0.206600 0.561580 0.961649
Zn11  Zn    Zn3+2 0.324140 0.793400 0.561580 0.961647
Zn12  Zn    Zn3+2 0.762580 0.793360 0.438420 0.959892
Zn13  Zn    Zn3+2 0.762580 0.206640 0.438420 0.959891
Zn14  Zn    Zn3+2 0.262580 0.293360 0.438420 0.959892
Zn15  Zn    Zn3+2 0.262580 0.706640 0.438420 0.959890
Zn16  Zn    Zn3+2 0.737390 0.793360 0.561570 0.963311

loop_
_geom_bond_atom_site_label_1
_geom_bond_atom_site_label_2
_ccdc_geom_bond_type
C99   C103  A    
O56   Zn5   S    
C55   C59   S    
C24   H48   S    
C131  H15   S    
C124  C133  S    
C68   C81   S    
C18   O2    A    
C60   O7    A    
O42   Zn3   S    
C18   O28   A    
C63   C76   S    
C71   O8    A    
C42   H34   S    
C80   O13   A    
C74   H54   S    
C43   H41   S    
O20   Zn10  S    
C49   C51   S    
C12   C135  S    
C68   C90   S    
C126  H44   S    
C112  C129  S    
O12   Zn6   S    
C59   C73   S    
C107  H71   S    
C72   C94   S    
C85   H52   S    
C77   O18   A    
O3    Zn7   S    
C71   O17   A    
C76   C83   S    
O54   Zn10  S    
C43   C85   S    
C44   C81   S    
O35   Zn15  S    
C104  H38   S    
C98   C102  A    
C62   C88   S    
C11   H26   S    
C104  O51   S    
C79   O11   A    
C67   C74   S    
C31   C82   S    
O15   Zn6   S    
C132  H16   S    
C19   O3    A    
C62   C75   S    
C14   H32   S    
C53   C71   S    
C43   C61   S    
O12   Zn9   S    
C103  H45   S    
C46   C77   S    
C35   C84   S    
C98   C120  A    
C119  C123  S    
C61   C74   S    
C24   C56   S    
C33   C38   A    
O29   Zn3   S    
C44   C62   S    
O30   Zn4   S    
O19   Zn9   S    
C12   H27   S    
O39   Zn8   S    
C25   O43   A    
C77   O9    A    
C112  C117  A    
C20   O30   A    
C93   H37   S    
O10   Zn2   S    
C95   C99   A    
C122  H10   S    
C13   C70   S    
C24   C43   S    
C31   C36   A    
C52   C91   T    
C124  H13   S    
C123  C132  S    
C33   C104  S    
C121  C130  S    
C108  H72   S    
C72   C85   S    
C66   C70   S    
C95   C117  A    
C64   C68   S    
O34   Zn11  S    
C13   C35   S    
C23   O42   A    
C27   O37   A    
C51   C90   T    
C3    C136  A    
C118  C122  S    
C115  H39   S    
C61   C87   S    
C106  H67   S    
O9    Zn16  S    
C64   H58   S    
C29   C38   S    
C130  H14   S    
C95   C130  S    
O34   Zn4   S    
C23   O33   A    
C2    C69   S    
C110  C114  A    
C114  C119  A    
C20   O4    A    
C45   C83   S    
C2    C45   S    
C30   C34   A    
O47   Zn10  S    
C34   C39   A    
H66   O49   S    
C44   H42   S    
C39   C40   A    
C9    H24   S    
C116  C120  A    
C109  H2    S    
C47   C87   T    
C97   C119  A    
C75   H55   S    
O17   Zn8   S    
C5    C9    A    
C58   C65   S    
O2    Zn6   S    
C63   C89   S    
C102  C107  A    
C130  H18   S    
C28   O38   A    
C32   C37   A    
C26   O44   A    
C96   C131  S    
C21   O31   A    
O55   Zn11  S    
C116  C125  S    
O8    Zn15  S    
C16   C136  S    
C79   O20   A    
C70   C84   S    
C24   C72   S    
C4    C134  A    
C128  O25   A    
C5    C135  A    
C105  C109  A    
O22   Zn12  S    
C107  C111  A    
O33   Zn14  S    
C12   C14   S    
C84   H51   S    
C50   C80   S    
C134  C135  A    
C129  O26   A    
C17   O56   A    
O37   Zn6   S    
C16   H35   S    
C28   C37   S    
C96   C100  A    
C127  O24   A    
C132  H20   S    
C64   C75   S    
C133  H21   S    
C74   C85   S    
C37   C41   A    
C27   O46   A    
O40   Zn16  S    
C10   C11   A    
O18   Zn1   S    
O6    Zn13  S    
O12   Zn13  S    
C15   H29   S    
C47   C78   S    
C13   C55   S    
C69   C91   S    
O23   Zn3   S    
C41   C42   A    
C122  C131  S    
C28   O47   A    
C8    H22   S    
C12   H31   S    
C113  C128  S    
O1    Zn1   S    
O25   Zn14  S    
C98   C133  S    
C65   C76   S    
O11   Zn3   S    
C48   C79   S    
C110  H3    S    
C3    C7    A    
C19   O29   A    
C106  C110  A    
C30   C31   A    
O4    Zn8   S    
C101  C106  A    
C35   C59   S    
O14   Zn5   S    
H68   O50   S    
C13   H47   S    
O7    Zn14  S    
C48   C88   T    
C83   H50   S    
C111  C116  A    
C128  O54   A    
C82   C93   S    
C49   O15   A    
O28   Zn2   S    
O34   Zn15  S    
O46   Zn9   S    
C111  H4    S    
C21   O40   A    
C22   O32   A    
C25   O35   A    
C82   H36   S    
C40   H12   S    
O36   Zn5   S    
C121  H5    S    
O38   Zn7   S    
C49   O6    A    
C108  C112  A    
O23   Zn10  S    
C1    O14   A    
O34   Zn8   S    
O24   Zn13  S    
C104  C115  S    
C50   C89   T    
O5    Zn12  S    
O1    Zn12  S    
C17   C99   S    
C10   H25   S    
C1    O5    A    
C35   H40   S    
O1    Zn16  S    
C55   C66   S    
O21   Zn11  S    
O26   Zn15  S    
C70   C92   S    
C97   C132  S    
C67   H61   S    
C6    C10   A    
C2    C58   S    
C38   C42   A    
C27   C36   S    
C7    C25   S    
C32   C33   A    
C131  H19   S    
C78   O10   A    
O16   Zn7   S    
C114  C127  S    
C65   C69   S    
C32   C115  S    
C1    C52   S    
C93   O50   S    
C20   C102  S    
C56   C61   S    
C129  O55   A    
O43   Zn4   S    
C73   H53   S    
C65   H59   S    
C39   H1    S    
C80   O21   A    
C4    C8    A    
O12   Zn2   S    
C57   C62   S    
C54   C60   S    
C7    C11   A    
C44   C126  S    
C100  C105  A    
C133  H17   S    
O27   Zn16  S    
C96   C118  A    
C67   C72   S    
C30   C93   S    
C115  O52   S    
C26   O36   A    
C55   H62   S    
O53   Zn9   S    
C15   C16   S    
C15   H33   S    
C2    H46   S    
C29   O48   A    
C117  C121  S    
C6    C136  A    
C41   H23   S    
C26   C34   S    
C5    C22   S    
C58   H65   S    
C16   H30   S    
C8    C9    A    
O23   Zn7   S    
O48   Zn11  S    
C103  C108  A    
C73   C84   S    
C109  C113  A    
C56   H63   S    
O1    Zn5   S    
O31   Zn12  S    
C82   O49   S    
C14   H28   S    
C29   O39   A    
C105  H56   S    
C18   C100  S    
C60   O16   A    
C81   H49   S    
C17   O27   A    
C36   C40   A    
C22   O41   A    
C125  O22   A    
C57   C126  S    
C75   C81   S    
C14   C134  S    
O45   Zn1   S    
C66   C73   S    
C45   C63   S    
C127  O53   A    
O41   Zn2   S    
C69   C83   S    
C53   C92   T    
C125  O45   A    
C123  H11   S    
C78   O19   A    
C57   H64   S    
C121  H9    S    
C122  H6    S    
C68   C126  S    
C3    C15   S    
C57   C64   S    
H69   O51   S    
C58   C63   S    
H70   O52   S    
O23   Zn14  S    
C66   H60   S    
C56   C67   S    
C59   C86   S    
O13   Zn4   S    
C4    C21   S    
C19   C101  S    
C6    C23   S    
C54   C94   T    
C76   H57   S    
C45   H43   S    
C113  C118  A    
O44   Zn1   S    
C123  H7    S    
O32   Zn13  S    
C124  H8    S    
C97   C101  A    
C120  C124  S    
C46   C86   T    
