data_mof_unit_53332.cif
_audit_creation_date              2012-12-11T14:58:02-0500
_audit_creation_method            fapswitch 2.2
_symmetry_space_group_name_H-M    P1
_symmetry_Int_Tables_number       1
_space_group_crystal_system       triclinic
_cell_length_a                    6.936487
_cell_length_b                    16.665305
_cell_length_c                    17.129247
_cell_angle_alpha                 100.280029
_cell_angle_beta                  88.890224
_cell_angle_gamma                 91.400818
_cell_volume                      1947.52303965

loop_
_atom_site_label
_atom_site_type_symbol
_atom_type_description
_atom_site_fract_x
_atom_site_fract_y
_atom_site_fract_z
_atom_type_partial_charge
O1    O     O_R   0.506180 0.438940 0.579430 -0.535047
O2    O     O_R   0.170520 0.406230 0.413590 -0.517370
O3    O     O_R   0.005180 0.561060 0.420570 -0.526629
C1    C     C_R   0.340021 0.383543 0.384860 0.715015
O4    O     O_R   0.176140 0.429310 0.578370 -0.545369
O5    O     O_R   0.010830 0.584300 0.586530 -0.537453
C2    C     C_R   0.341653 0.412692 0.604470 0.691680
O6    O     O_R   0.500520 0.415700 0.413470 -0.542322
O7    O     O_3   0.340830 0.550820 0.502480 -0.373961
V1    V     V_3+5 0.064040 0.490570 0.499540 1.491134
O8    O     O_R   0.681400 0.593770 0.586410 -0.542399
C3    C     C_R   0.850641 0.617602 0.613603 0.678690
O9    O     O_R   0.675790 0.570690 0.421630 -0.551211
C4    C     C_R   0.847322 0.584989 0.393731 0.756464
V2    V     V_3+5 0.564650 0.509430 0.500460 1.448286
O10   O     O_3   0.837730 0.449180 0.497520 -0.362721
C5    C     C_R   0.896048 0.867778 0.172039 -0.072912
C6    C     C_R   0.871064 0.634649 0.329586 -0.093570
C7    C     C_R   0.064239 0.672382 0.220027 -0.213454
C8    C     C_R   0.013773 0.615402 0.268648 -0.007703
C9    C     C_R   0.767088 0.706908 0.333473 -0.267610
C10   C     C_R   0.810402 0.761277 0.280771 0.158279
C11   C     C_R   0.964912 0.745226 0.225672 0.169303
C12   C     C_R   0.011968 0.800216 0.174119 -0.159694
C13   C     C_R   0.741417 0.882918 0.226855 -0.088270
C14   C     C_R   0.701674 0.831356 0.281748 -0.109458
H1    H     H_    0.131154 0.787533 0.132311 0.162423
H2    H     H_    0.649857 0.934665 0.226816 0.129169
H3    H     H_    0.176656 0.658243 0.175074 0.139918
H4    H     H_    0.582059 0.844957 0.323256 0.148575
H5    H     H_    0.655509 0.721669 0.378605 0.128895
C15   C     C_R   0.988429 0.907532 0.728377 -0.156076
C16   C     C_R   0.021427 0.923861 0.652186 -0.083577
C17   C     C_R   0.004409 0.861699 0.586686 -0.096302
C18   C     C_R   0.953390 0.782824 0.596885 -0.149129
C19   C     C_R   0.918574 0.764434 0.673543 0.071026
C20   C     C_R   0.937422 0.827812 0.740848 0.061768
C21   C     C_R   0.861457 0.684795 0.683438 -0.141647
C22   C     C_R   0.823104 0.667993 0.760529 0.021661
C23   C     C_R   0.855572 0.729148 0.828922 0.002140
C24   C     C_R   0.905501 0.811036 0.818688 -0.142044
C25   C     C_R   0.756052 0.589452 0.770068 -0.208716
C26   C     C_R   0.718686 0.569621 0.844801 -0.015518
C27   C     C_R   0.758423 0.627763 0.912538 0.301137
C28   C     C_R   0.836845 0.704953 0.904817 -0.062034
H6    H     H_    0.003831 0.958247 0.777134 0.108372
H7    H     H_    0.060389 0.985155 0.643976 0.164875
H8    H     H_    0.029917 0.874709 0.527594 0.163275
H9    H     H_    0.939818 0.736707 0.543992 0.093494
H10   H     H_    0.729066 0.542502 0.718921 0.163965
H11   H     H_    0.644847 0.485532 0.159727 0.159632
C29   C     C_R   0.216755 0.217274 0.393705 -0.209645
C30   C     C_R   0.166033 0.137668 0.401518 -0.124240
C31   C     C_R   0.196398 0.073598 0.338748 0.428622
C32   C     C_R   0.276355 0.088932 0.267399 -0.202990
C33   C     C_R   0.327870 0.169276 0.257301 0.017363
C34   C     C_R   0.298164 0.234849 0.322070 0.061357
C35   C     C_R   0.412833 0.184297 0.184923 -0.154815
C36   C     C_R   0.473199 0.264794 0.178413 0.066794
C37   C     C_R   0.447211 0.330111 0.243737 0.083128
C38   C     C_R   0.356084 0.315594 0.315257 -0.140152
C39   C     C_R   0.557109 0.282157 0.107082 -0.155903
C40   C     C_R   0.618820 0.360979 0.100864 -0.094229
C41   C     C_R   0.596999 0.424325 0.164868 -0.072800
C42   C     C_R   0.511464 0.409508 0.235303 -0.110823
H12   H     H_    0.193678 0.264432 0.444967 0.133809
H13   H     H_    0.104968 0.125771 0.457101 0.181545
H14   H     H_    0.300882 0.036966 0.220843 0.134791
H15   H     H_    0.575777 0.235341 0.055187 0.110985
H16   H     H_    0.683409 0.372999 0.045943 0.136144
H17   H     H_    0.494508 0.461456 0.282477 0.107274
C43   C     C_R   0.429178 0.138563 0.832732 -0.133224
C44   C     C_R   0.336183 0.358442 0.664714 -0.080622
C45   C     C_R   0.159374 0.306205 0.770283 -0.069022
C46   C     C_R   0.175904 0.360019 0.716545 -0.101032
C47   C     C_R   0.480644 0.301349 0.667624 -0.097026
C48   C     C_R   0.465171 0.246060 0.721545 0.089374
C49   C     C_R   0.301852 0.248685 0.773170 0.102466
C50   C     C_R   0.283725 0.194370 0.827477 -0.216084
C51   C     C_R   0.589983 0.135961 0.781045 -0.200567
C52   C     C_R   0.608063 0.188111 0.725491 0.373995
H18   H     H_    0.159796 0.197395 0.867377 0.132541
H19   H     H_    0.703154 0.092883 0.783802 0.156772
H20   H     H_    0.033804 0.309214 0.809275 0.140176
H21   H     H_    0.062030 0.403145 0.715410 0.147211
H22   H     H_    0.602600 0.299795 0.627049 0.169752
O11   O     O_R   0.265840 0.084300 0.086750 -0.540043
O12   O     O_R   0.589750 0.070740 0.921690 -0.548553
O13   O     O_R   0.755020 0.915730 0.913400 -0.543552
C53   C     C_R   0.424149 0.086521 0.894936 0.710880
O14   O     O_R   0.595830 0.093740 0.086480 -0.541212
O15   O     O_R   0.761150 0.938890 0.079360 -0.549181
C54   C     C_R   0.426726 0.116535 0.115160 0.682849
O16   O     O_R   0.259710 0.061140 0.920790 -0.541227
O17   O     O_3   0.425260 0.949200 0.997610 -0.353732
V3    V     V_3+5 0.702060 0.009430 0.000450 1.431869
O18   O     O_R   0.090530 0.929220 0.078150 -0.519404
C55   C     C_R   0.919476 0.917349 0.107946 0.704723
O19   O     O_R   0.084440 0.906220 0.913360 -0.513603
C56   C     C_R   0.914845 0.880867 0.887141 0.716024
V4    V     V_3+5 0.201450 0.990520 0.999290 1.498131
O20   O     O_3   0.928380 0.050800 0.002390 -0.376397
C57   C     C_2   0.646823 0.486330 0.851380 0.376063
H23   H     H_    0.591048 0.472778 0.907237 0.119302
O21   O     O_2   0.651127 0.430980 0.794233 -0.554575
C58   C     C_2   0.923308 0.752413 0.976263 0.409394
H24   H     H_    0.834552 0.768389 0.029003 0.066839
O22   O     O_2   0.096392 0.767564 0.978044 -0.524243
Cl1   Cl    Cl    0.138111 0.973194 0.350097 -0.695914
Cl2   Cl    Cl    0.813372 0.178481 0.662458 -0.704411
C59   C     C_2   0.107864 0.535125 0.250226 0.358289
H25   H     H_    0.240447 0.529215 0.215269 0.049061
O23   O     O_2   0.033927 0.474155 0.269388 -0.532470
Cl3   Cl    Cl    0.726575 0.601495 0.008158 -0.722815

loop_
_geom_bond_atom_site_label_1
_geom_bond_atom_site_label_2
_ccdc_geom_bond_type
C32   C33   A    
O12   V3    S    
V4    O20   S    
V3    O20   S    
C6    C9    A    
C4    C6    S    
O2    C1    A    
C7    C8    A    
C12   H1    S    
C1    O6    A    
O18   C55   A    
O15   C55   A    
C2    C44   S    
C30   C31   A    
C27   C28   A    
C13   H2    S    
C9    H5    S    
C19   C20   A    
C35   C54   S    
C43   C50   A    
O5    C3    A    
C21   C22   A    
C58   H24   S    
V2    O10   S    
O15   V3    S    
C33   C34   A    
C17   C18   A    
O14   V3    S    
O11   V4    S    
O8    V2    S    
C46   H21   S    
O17   V3    S    
O16   V4    S    
C18   H9    S    
C11   C12   A    
O1    V2    S    
C5    C55   S    
C48   C49   A    
C27   Cl3   S    
C36   C37   A    
O9    C4    A    
C3    C21   S    
C44   C46   A    
C51   H19   S    
C53   O16   A    
C22   C25   A    
C23   C28   A    
C5    C12   A    
C45   C46   A    
O13   C56   A    
C47   C48   A    
C57   O21   D    
C22   C23   A    
O4    C2    A    
C32   H14   S    
C49   C50   A    
C13   C14   A    
C42   H17   S    
C1    C38   S    
C31   Cl1   S    
C37   C38   A    
C18   C19   A    
C7    C11   A    
C26   C27   A    
C39   C40   A    
O14   C54   A    
C8    C59   S    
C43   C53   S    
O19   C56   A    
C40   H16   S    
C48   C52   A    
C16   C17   A    
C24   C56   S    
C59   O23   D    
C15   C20   A    
O3    C4    A    
C25   H10   S    
C23   C24   A    
O19   V4    S    
O12   C53   A    
C37   C42   A    
C14   H4    S    
O6    V2    S    
O9    V2    S    
C10   C14   A    
C28   C58   S    
C16   H7    S    
C44   C47   A    
C17   H8    S    
C25   C26   A    
O2    V1    S    
C47   H22   S    
C29   H12   S    
C29   C30   A    
O7    V1    S    
C31   C32   A    
C36   C39   A    
C59   H25   S    
O1    C2    A    
C15   H6    S    
H11   C41   S    
C45   H20   S    
C51   C52   A    
O5    V1    S    
C50   H18   S    
O8    C3    A    
C34   C38   A    
C5    C13   A    
C41   C42   A    
O13   V3    S    
C19   C21   A    
C35   C36   A    
O4    V1    S    
C43   C51   A    
O3    V1    S    
V1    O10   S    
C15   C16   A    
C58   O22   D    
O11   C54   A    
C33   C35   A    
C6    C8    A    
C20   C24   A    
C30   H13   S    
C26   C57   S    
C29   C34   A    
C40   C41   A    
C52   Cl2   S    
C39   H15   S    
C45   C49   A    
C57   H23   S    
C10   C11   A    
C9    C10   A    
O18   V4    S    
O17   V4    S    
O7    V2    S    
C7    H3    S    
