data_mof_unit_28804.cif
_audit_creation_date              2012-12-10T16:44:43-0500
_audit_creation_method            fapswitch 2.2
_symmetry_space_group_name_H-M    P1
_symmetry_Int_Tables_number       1
_space_group_crystal_system       triclinic
_cell_length_a                    15.045885
_cell_length_b                    8.796795
_cell_length_c                    7.615689
_cell_angle_alpha                 103.753946
_cell_angle_beta                  95.409939
_cell_angle_gamma                 95.003921
_cell_volume                      968.429182318

loop_
_atom_site_label
_atom_site_type_symbol
_atom_type_description
_atom_site_fract_x
_atom_site_fract_y
_atom_site_fract_z
_atom_type_partial_charge
C1    C     C_R   0.495487 0.200574 0.453475 0.889928
C2    C     C_R   0.504477 0.799406 0.546503 0.894960
C3    C     C_R   0.031715 0.227052 0.334464 -0.195089
C4    C     C_R   0.967821 0.769905 0.665148 -0.192812
C5    C     C_2   0.487087 0.032515 0.429860 -0.235659
C6    C     C_2   0.512736 0.967430 0.570070 -0.235662
C7    C     C_R   0.329703 0.505404 0.501113 0.855222
C8    C     C_R   0.670164 0.493762 0.498722 0.858197
C9    C     C_R   0.822509 0.619691 0.596667 -0.182297
C10   C     C_R   0.177304 0.377615 0.404148 -0.202893
C11   C     C_R   0.766527 0.486660 0.498671 -0.132086
C12   C     C_R   0.233163 0.511472 0.501015 -0.126176
C13   C     C_R   0.802734 0.353744 0.399805 -0.063632
C14   C     C_R   0.196644 0.644571 0.598534 -0.051891
C15   C     C_R   0.897460 0.350890 0.415425 -0.015278
C16   C     C_R   0.101903 0.646235 0.583588 -0.010202
C17   C     C_R   0.952888 0.493486 0.501666 0.055225
C18   C     C_R   0.046668 0.503163 0.498852 0.061811
C19   C     C_R   0.914616 0.627099 0.590844 0.083858
C20   C     C_R   0.085065 0.369686 0.409953 0.087771
C21   C     C_R   0.939412 0.213207 0.345170 -0.010219
C22   C     C_R   0.059895 0.783838 0.652463 -0.018371
Cu1   Cu    Cu3+1 0.510010 0.517380 0.684380 1.054135
Cu2   Cu    Cu3+1 0.489990 0.482620 0.315620 1.056532
H1    H     H_    0.793317 0.721988 0.668082 0.182039
H2    H     H_    0.206677 0.275406 0.333126 0.180090
H3    H     H_    0.063281 0.123109 0.276846 0.208670
H4    H     H_    0.936189 0.874157 0.721404 0.207033
N1    N     N_2   0.474890 0.456420 0.038520 -0.218098
N2    N     N_2   0.525110 0.543580 0.961480 -0.215469
O1    O     O_R   0.506510 0.286130 0.619770 -0.562984
O2    O     O_R   0.493490 0.713870 0.380230 -0.562178
O3    O     O_R   0.489600 0.256770 0.308360 -0.564841
O4    O     O_R   0.510400 0.743230 0.691640 -0.564044
O5    O     O_R   0.378710 0.514640 0.655720 -0.551687
O6    O     O_R   0.621290 0.485360 0.344280 -0.551504
O7    O     O_R   0.361800 0.485290 0.344300 -0.554779
O8    O     O_R   0.638200 0.514710 0.655700 -0.558402
C23   C     C_2   0.742637 0.228684 0.265989 0.885257
O9    O     O_2   0.757035 0.194854 0.106756 -0.554730
O10   O     O_R   0.671920 0.146413 0.322613 -0.768057
H5    H     H_    0.637835 0.060480 0.219361 0.338959
C24   C     C_2   0.256433 0.771649 0.730446 0.880109
O11   O     O_2   0.241805 0.808188 0.889439 -0.549996
O12   O     O_R   0.327343 0.852241 0.672483 -0.771730
H6    H     H_    0.361641 0.938601 0.774980 0.336184
C25   C     C_2   0.893333 0.050361 0.303411 0.871007
O13   O     O_2   0.842789 0.012574 0.406375 -0.603025
O14   O     O_R   0.911462 0.938027 0.151233 -0.730340
H7    H     H_    0.877032 0.830871 0.138537 0.341544
C26   C     C_2   0.105278 0.946074 0.683897 0.872613
O15   O     O_2   0.092109 0.048667 0.815513 -0.555352
O16   O     O_R   0.158878 0.983385 0.556409 -0.755547
H8    H     H_    0.180873 0.099747 0.585417 0.323475
C27   C     C_1   0.446152 0.941934 0.250754 0.359131
N3    N     N_1   0.414120 0.870100 0.107833 -0.218497
C28   C     C_1   0.553289 0.058052 0.749374 0.357268
N4    N     N_1   0.584946 0.130020 0.892473 -0.221429
C29   C     C_2   0.404011 0.332390 0.952435 1.060187
O17   O     O_2   0.366069 0.261794 0.049112 -0.582466
O18   O     O_R   0.374696 0.286757 0.768262 -0.758964
H9    H     H_    0.324512 0.196740 0.734268 0.311304
C30   C     C_2   0.596286 0.667339 0.047574 1.049760
O19   O     O_2   0.634399 0.737521 0.950737 -0.591007
O20   O     O_R   0.625749 0.713213 0.231867 -0.755657
H10   H     H_    0.677864 0.800094 0.265382 0.330784

loop_
_geom_bond_atom_site_label_1
_geom_bond_atom_site_label_2
_ccdc_geom_bond_type
C25   O13   D    
C24   O11   D    
C30   O20   S    
C3    C21   A    
N1    N2    D    
Cu1   O8    S    
C4    C22   A    
O10   H5    S    
C18   C20   A    
Cu2   O3    S    
C13   C15   A    
C1    O1    A    
Cu1   Cu2   S    
Cu1   O4    S    
C10   H2    S    
C27   N3    T    
C3    H3    S    
Cu2   O7    S    
C7    O7    A    
C1    O3    A    
C29   O17   D    
C25   O14   S    
C16   C18   A    
C2    C6    S    
O12   H6    S    
C24   O12   S    
C6    C28   S    
C2    O4    A    
C28   N4    T    
Cu2   O6    S    
C15   C21   A    
C8    O8    A    
C8    C11   S    
C1    C5    S    
N2    C30   S    
C10   C12   A    
C2    O2    A    
C17   C19   A    
C12   C14   A    
C17   C18   A    
Cu1   O5    S    
C9    C11   A    
C5    C6    D    
O14   H7    S    
C14   C16   A    
C7    C12   S    
C13   C23   S    
C11   C13   A    
C29   O18   S    
O18   H9    S    
C9    H1    S    
C26   O15   D    
C23   O9    D    
Cu1   N2    S    
N1    C29   S    
C3    C20   A    
C23   O10   S    
O20   H10   S    
C8    O6    A    
Cu2   O2    S    
C15   C17   A    
C21   C25   S    
Cu2   N1    S    
C22   C26   S    
C16   C22   A    
C4    H4    S    
O16   H8    S    
C4    C19   A    
C7    O5    A    
C5    C27   S    
C30   O19   D    
C9    C19   A    
C10   C20   A    
C14   C24   S    
C26   O16   S    
Cu1   O1    S    
