data_mof_unit_62579.cif
_audit_creation_date              2012-12-11T14:27:25-0500
_audit_creation_method            fapswitch 2.2
_symmetry_space_group_name_H-M    P1
_symmetry_Int_Tables_number       1
_space_group_crystal_system       triclinic
_cell_length_a                    8.233399
_cell_length_b                    14.970968
_cell_length_c                    15.028383
_cell_angle_alpha                 97.235721
_cell_angle_beta                  99.27742
_cell_angle_gamma                 98.093417
_cell_volume                      1788.91915045

loop_
_atom_site_label
_atom_site_type_symbol
_atom_type_description
_atom_site_fract_x
_atom_site_fract_y
_atom_site_fract_z
_atom_type_partial_charge
Ba1   Ba    Ba6+2 0.154720 0.543770 0.458160 1.782547
Ba2   Ba    Ba6+2 0.655440 0.456220 0.541760 1.747309
Br1   Br    Br    0.033879 0.588125 0.738105 -0.576414
Br2   Br    Br    0.735050 0.064065 0.675703 -0.488503
Br3   Br    Br    0.776068 0.526542 0.005274 -0.604325
C1    C     C_3   0.347919 0.762118 0.122225 0.298339
C2    C     C_R   0.896861 0.789440 0.514231 0.070614
C3    C     C_R   0.074702 0.234790 0.527084 -0.288361
C4    C     C_3   0.837262 0.767499 0.165693 0.738615
C5    C     C_R   0.176277 0.173320 0.556713 -0.017709
C6    C     C_R   0.114555 0.079942 0.544044 -0.077480
C7    C     C_R   0.948899 0.044852 0.499190 0.052317
C8    C     C_R   0.849850 0.108171 0.462574 -0.009180
C9    C     C_R   0.879233 0.949013 0.488741 0.063560
C10   C     C_R   0.710689 0.919013 0.443366 0.037042
C11   C     C_R   0.620015 0.982152 0.405475 0.011624
C12   C     C_3   0.386045 0.739203 0.218673 0.368603
C13   C     C_R   0.689083 0.073667 0.413013 0.019422
C14   C     C_R   0.968586 0.882425 0.524914 -0.054080
C15   C     C_R   0.732536 0.762458 0.468833 -0.281732
C16   C     C_3   0.865337 0.796974 0.075350 -0.244558
C17   C     C_R   0.914645 0.204293 0.476532 0.054339
C18   C     C_R   0.251376 0.447021 0.763696 -0.214693
C19   C     C_R   0.147452 0.414234 0.821739 0.005746
C20   C     C_R   0.208571 0.427726 0.915930 -0.111818
C21   C     C_R   0.361704 0.486694 0.953334 0.037311
C22   C     C_R   0.436739 0.538146 0.893882 -0.042153
C23   C     C_3   0.586224 0.731274 0.670671 0.331181
C24   C     C_R   0.390445 0.514232 0.799708 0.058438
C25   C     C_R   0.613210 0.533684 0.084307 0.152444
C26   C     C_R   0.675573 0.558373 0.178327 -0.036254
C27   C     C_R   0.414587 0.484728 0.211117 0.039915
C28   C     C_3   0.647623 0.289930 0.251051 0.715703
C29   C     C_R   0.343523 0.473587 0.118545 -0.148923
C30   C     C_R   0.439616 0.499418 0.052998 -0.017999
C31   C     C_R   0.575701 0.533299 0.241135 -0.334968
C32   C     C_3   0.703184 0.335871 0.173303 0.294246
C33   C     C_3   0.070488 0.716540 0.768663 0.788222
C34   C     C_3   0.625511 0.835013 0.690921 0.284334
C35   C     C_3   0.963218 0.740846 0.838923 -0.278325
C36   C     C_3   0.214695 0.267639 0.337142 0.322802
C37   C     C_3   0.136688 0.167885 0.304506 -0.262531
C38   C     C_3   0.975701 0.207247 0.781678 0.280251
C39   C     C_3   0.908125 0.107204 0.781156 0.489467
C40   C     C_3   0.439227 0.257525 0.780467 0.411348
C41   C     C_3   0.477831 0.229628 0.874493 -0.204882
C42   C     C_R   0.636866 0.826024 0.436180 -0.007574
Cl1   Cl    Cl    0.812240 0.266855 0.105706 -0.571774
Cl2   Cl    Cl    0.278944 0.754821 0.826068 -0.566348
Cl3   Cl    Cl    0.438473 0.882957 0.686420 -0.498467
Cl4   Cl    Cl    0.440031 0.876026 0.116996 -0.508347
Cl5   Cl    Cl    0.069973 0.040186 0.776293 -0.635565
Cl6   Cl    Cl    0.839586 0.866334 0.245517 -0.657396
Cl7   Cl    Cl    0.502305 0.188827 0.203497 -0.596485
H1    H     H_    0.314982 0.670386 0.218661 0.005187
H2    H     H_    0.015525 0.163224 0.258025 0.195503
H3    H     H_    0.116355 0.132596 0.363002 0.019817
H4    H     H_    0.219798 0.131327 0.267736 0.195541
H5    H     H_    0.521158 0.737041 0.236666 -0.056536
H6    H     H_    0.397405 0.714206 0.074871 -0.011331
H7    H     H_    0.699045 0.705348 0.654049 -0.111236
H8    H     H_    0.484482 0.711625 0.610186 0.063483
H9    H     H_    0.705655 0.857620 0.759148 0.107921
H10   H     H_    0.693546 0.860981 0.639135 -0.006155
H11   H     H_    0.763525 0.832952 0.048022 0.164340
H12   H     H_    0.593151 0.350909 0.128218 0.005591
H13   H     H_    0.025635 0.213197 0.717746 -0.004428
H14   H     H_    0.076901 0.230032 0.842263 -0.014579
H15   H     H_    0.855704 0.098925 0.843814 0.102498
H16   H     H_    0.308797 0.269939 0.768779 -0.158687
H17   H     H_    0.524743 0.321580 0.779567 0.071667
H18   H     H_    0.462019 0.285127 0.927263 0.073111
H19   H     H_    0.608326 0.216685 0.888568 0.176567
H20   H     H_    0.391740 0.166699 0.878328 0.181830
H21   H     H_    0.675074 0.692113 0.464497 0.053505
H22   H     H_    0.493638 0.961580 0.368538 0.118611
H23   H     H_    0.789176 0.400299 0.202621 0.004096
H24   H     H_    0.092489 0.901065 0.564759 0.147343
H25   H     H_    0.125596 0.306756 0.537441 0.056049
H26   H     H_    0.200125 0.036604 0.568702 0.131568
H27   H     H_    0.611893 0.117136 0.380561 0.122323
H28   H     H_    0.132888 0.393918 0.957954 0.104088
H29   H     H_    0.214519 0.441951 0.099128 0.136208
H30   H     H_    0.712237 0.725383 0.152855 -0.122898
H31   H     H_    0.531849 0.597142 0.920051 0.112483
H32   H     H_    0.627851 0.545457 0.313240 0.080608
H33   H     H_    0.209623 0.431852 0.690538 0.072721
H34   H     H_    0.974063 0.816115 0.856014 0.160125
H35   H     H_    0.986476 0.843337 0.084217 0.160168
H36   H     H_    0.864990 0.735866 0.025345 0.070555
H37   H     H_    0.588817 0.338031 0.292612 -0.159685
H38   H     H_    0.003496 0.712597 0.902256 0.120927
H39   H     H_    0.831612 0.711318 0.813234 0.102173
H40   H     H_    0.123979 0.303414 0.368029 -0.001373
H41   H     H_    0.328142 0.270827 0.389160 0.041431
H42   H     H_    0.211191 0.754239 0.099225 0.070317
O1    O     O_2   0.174040 0.723040 0.553850 -0.423272
O2    O     O_2   0.812137 0.429498 0.821629 -0.401876
O3    O     O_3   0.847051 0.259042 0.787192 -0.594613
O4    O     O_3   0.901550 0.609570 0.550800 -0.474934
O5    O     O_3   0.408230 0.452130 0.390190 -0.505806
O6    O     O_2   0.675480 0.547140 0.721810 -0.430213
O7    O     O_3   0.540773 0.696686 0.747571 -0.581137
O8    O     O_2   0.510199 0.174898 0.546008 -0.444107
O9    O     O_3   0.461484 0.187810 0.714026 -0.510121
O10   O     O_3   0.370320 0.665070 0.388210 -0.504120
O11   O     O_2   0.299673 0.825862 0.451564 -0.445982
O12   O     O_3   0.256454 0.306667 0.262293 -0.573920
O13   O     O_3   0.035975 0.764779 0.695133 -0.601338
O14   O     O_3   0.338359 0.804178 0.281121 -0.537664
O15   O     O_2   0.134800 0.452800 0.278160 -0.438886
O16   O     O_3   0.937630 0.618610 0.340820 -0.470897
O17   O     O_2   0.015402 0.555781 0.185071 -0.437012
O18   O     O_3   0.968259 0.722875 0.199661 -0.577275
O19   O     O_2   0.636250 0.276900 0.446120 -0.485974
O20   O     O_3   0.908740 0.390420 0.449120 -0.487601
O21   O     O_3   0.439970 0.334920 0.611710 -0.510303
O22   O     O_3   0.787187 0.264377 0.300891 -0.636595
O23   O     O_3   0.402050 0.547860 0.609740 -0.481245
O24   O     O_3   0.872650 0.381380 0.659100 -0.435427
P1    P     P_3+3 0.004160 0.709210 0.580280 1.084964
P2    P     P_3+3 0.305010 0.425580 0.290930 1.033517
P3    P     P_3+3 0.894531 0.613955 0.223087 1.032098
P4    P     P_3+3 0.806120 0.290780 0.419650 0.995239
P5    P     P_3+3 0.923078 0.370755 0.774372 1.052227
P6    P     P_3+3 0.412083 0.782727 0.391053 1.018681
P7    P     P_3+3 0.500212 0.577597 0.723483 1.034849
P8    P     P_3+3 0.396338 0.216787 0.606116 1.038398

loop_
_geom_bond_atom_site_label_1
_geom_bond_atom_site_label_2
_ccdc_geom_bond_type
C36   O12   S    
C40   H17   S    
C36   C37   S    
C10   C42   A    
C35   H39   S    
O13   P1    S    
C12   O14   S    
C37   H4    S    
O3    P5    S    
C33   Cl2   S    
C16   H35   S    
C40   C41   S    
C34   H10   S    
C21   C22   A    
C8    C13   A    
C4    O18   S    
C18   C24   A    
C38   O3    S    
Ba1   Ba2   S    
C28   H37   S    
Ba1   O16   S    
C25   C26   A    
C22   C24   A    
Ba2   O6    S    
C10   C11   A    
C13   H27   S    
Ba1   O4    S    
C29   C30   A    
Ba1   O23   S    
C22   H31   S    
Ba1   P2    S    
O1    P1    D    
C37   H2    S    
Ba2   O20   S    
O2    P5    D    
Br1   C33   S    
C38   H14   S    
O17   P3    D    
C3    H25   S    
C3    C17   A    
C18   C19   A    
Ba1   O20   S    
C1    Cl4   S    
O7    P7    S    
C12   H1    S    
C41   H18   S    
Ba1   O10   S    
C23   H7    S    
C39   Cl5   S    
Ba2   O4    S    
C28   O22   S    
C18   H33   S    
O15   P2    D    
C2    P1    S    
C5    P8    S    
C37   H3    S    
Ba2   O21   S    
C40   O9    S    
C16   H36   S    
C27   P2    S    
C19   C20   A    
O16   P3    S    
O6    P7    D    
C5    C6    A    
Ba1   O1    S    
Ba2   O24   S    
O24   P5    S    
Br2   C39   S    
Ba2   O5    S    
C31   H32   S    
C20   C21   A    
C32   H23   S    
C28   C32   S    
C15   H21   S    
C32   Cl1   S    
C27   C29   A    
C14   H24   S    
C38   C39   S    
C1    H6    S    
Ba2   O19   S    
C36   H40   S    
O8    P8    D    
C6    C7    A    
C32   H12   S    
C9    C10   A    
C20   H28   S    
C39   H15   S    
C11   C13   A    
O22   P4    S    
C35   H38   S    
C33   O13   S    
O14   P6    S    
O18   P3    S    
C25   C30   A    
C3    C5    A    
C12   H5    S    
C2    C14   A    
C24   P7    S    
C19   P5    S    
C4    Cl6   S    
C29   H29   S    
Ba1   O5    S    
C41   H20   S    
C42   P6    S    
Br3   C25   S    
C28   Cl7   S    
C1    C12   S    
O4    P1    S    
O19   P4    D    
O20   P4    S    
O9    P8    S    
C16   H11   S    
C40   H16   S    
C11   H22   S    
C9    C14   A    
O11   P6    D    
O12   P2    S    
Ba2   O23   S    
C27   C31   A    
C17   P4    S    
Ba2   P4    S    
C34   H9    S    
O10   P6    S    
C1    H42   S    
O5    P2    S    
C23   C34   S    
C35   H34   S    
C7    C9    A    
C26   P3    S    
Ba1   O15   S    
C33   C35   S    
C23   O7    S    
C4    C16   S    
C36   H41   S    
C8    C17   A    
O21   P8    S    
Ba1   P1    S    
C15   C42   A    
C6    H26   S    
C4    H30   S    
C21   C30   S    
C34   Cl3   S    
C7    C8    A    
C38   H13   S    
C2    C15   A    
C26   C31   A    
C41   H19   S    
O23   P7    S    
C23   H8    S    
