data_mof_unit_32693.cif
_audit_creation_date              2012-12-11T14:42:19-0500
_audit_creation_method            fapswitch 2.2
_symmetry_space_group_name_H-M    P1
_symmetry_Int_Tables_number       1
_space_group_crystal_system       triclinic
_cell_length_a                    18.901699
_cell_length_b                    11.057218
_cell_length_c                    18.746914
_cell_angle_alpha                 90.193918
_cell_angle_beta                  91.374918
_cell_angle_gamma                 90.043971
_cell_volume                      3916.95698534

loop_
_atom_site_label
_atom_site_type_symbol
_atom_type_description
_atom_site_fract_x
_atom_site_fract_y
_atom_site_fract_z
_atom_type_partial_charge
C1    C     C_R   0.730104 0.947931 0.850476 0.547704
C2    C     C_R   0.256573 0.377988 0.913947 -0.025347
C3    C     C_1   0.666051 0.716100 0.902206 0.284416
C4    C     C_R   0.243795 0.878301 0.086448 -0.020492
C5    C     C_R   0.756573 0.877988 0.913947 -0.025347
C6    C     C_R   0.790272 0.296953 0.053869 -0.014713
C7    C     C_R   0.210503 0.295370 0.945881 -0.014690
C8    C     C_R   0.290272 0.796953 0.053869 -0.014713
C9    C     C_R   0.710503 0.795369 0.945881 -0.014690
C10   C     C_R   0.789299 0.286077 0.979769 0.069318
C11   C     C_R   0.211163 0.283830 0.020048 0.081808
C12   C     C_R   0.289299 0.786077 0.979769 0.069318
C13   C     C_R   0.269888 0.947566 0.149973 0.536121
C14   C     C_R   0.711163 0.783830 0.020048 0.081808
C15   C     C_R   0.732157 0.336331 0.938860 -0.014654
C16   C     C_R   0.269614 0.330548 0.060898 -0.003057
C17   C     C_R   0.232157 0.836331 0.938860 -0.014654
C18   C     C_R   0.769614 0.830548 0.060898 -0.003057
C19   C     C_R   0.568477 0.186428 0.525443 -0.080340
C20   C     C_R   0.555890 0.186928 0.452931 -0.116715
C21   C     C_R   0.068477 0.686428 0.525443 -0.080341
C22   C     C_R   0.055890 0.686930 0.452931 -0.116715
C23   C     C_R   0.487641 0.164158 0.428079 0.069334
C24   C     C_R   0.230104 0.447931 0.850476 0.547704
C25   C     C_R   0.512509 0.167736 0.571810 0.073767
C26   C     C_R   0.987641 0.664158 0.428079 0.069335
C27   C     C_R   0.012510 0.667735 0.571810 0.073768
C28   C     C_R   0.432101 0.138562 0.474259 -0.071762
C29   C     C_R   0.444516 0.141399 0.547056 -0.104665
C30   C     C_R   0.932100 0.638564 0.474259 -0.071762
C31   C     C_R   0.944516 0.641401 0.547057 -0.104665
C32   C     C_R   0.791205 0.305683 0.529559 -0.140819
C33   C     C_R   0.178798 0.411430 0.447820 -0.131612
C34   C     C_R   0.291205 0.805683 0.529559 -0.140819
C35   C     C_R   0.769888 0.447566 0.149973 0.536121
C36   C     C_R   0.678798 0.911429 0.447820 -0.131612
C37   C     C_R   0.805435 0.337443 0.461010 0.087940
C38   C     C_R   0.165671 0.430234 0.519149 0.071592
C39   C     C_R   0.305435 0.837442 0.461010 0.087940
C40   C     C_R   0.665671 0.930233 0.519149 0.071591
C41   C     C_R   0.562348 0.183019 0.857392 0.548531
C42   C     C_R   0.469554 0.178019 0.149754 0.562319
C43   C     C_R   0.062348 0.683019 0.857392 0.548531
C44   C     C_R   0.969554 0.678019 0.149754 0.562319
C45   C     C_R   0.755550 0.407917 0.421790 -0.012679
C46   C     C_R   0.680759 0.406454 0.049808 -0.034184
C47   C     C_R   0.220194 0.475779 0.564407 -0.014958
C48   C     C_R   0.255550 0.907916 0.421790 -0.012679
C49   C     C_R   0.720194 0.975779 0.564407 -0.014958
C50   C     C_R   0.693961 0.448057 0.454126 -0.145198
C51   C     C_R   0.287299 0.496540 0.537170 -0.142181
C52   C     C_R   0.193961 0.948057 0.454126 -0.145198
C53   C     C_R   0.787299 0.996540 0.537170 -0.142181
C54   C     C_R   0.682877 0.424557 0.525675 0.072783
C55   C     C_R   0.302496 0.464301 0.467946 0.077149
C56   C     C_R   0.182877 0.924557 0.525675 0.072782
C57   C     C_R   0.320932 0.401446 0.949985 -0.039524
C58   C     C_R   0.802496 0.964301 0.467946 0.077149
C59   C     C_R   0.732427 0.351807 0.563958 -0.020993
C60   C     C_R   0.247550 0.421258 0.422087 -0.001624
C61   C     C_R   0.232427 0.851807 0.563958 -0.020993
C62   C     C_R   0.747550 0.921258 0.422087 -0.001625
C63   C     C_R   0.725677 0.314869 0.860777 0.548196
C64   C     C_R   0.274978 0.312393 0.139408 0.568648
C65   C     C_R   0.225677 0.814870 0.860777 0.548196
C66   C     C_R   0.774978 0.812393 0.139408 0.568648
C67   C     C_R   0.708844 0.999776 0.639678 0.537984
C68   C     C_R   0.180759 0.906454 0.049808 -0.034184
C69   C     C_R   0.273280 0.955504 0.352660 0.547689
C70   C     C_R   0.208844 0.499776 0.639678 0.537984
C71   C     C_R   0.773280 0.455504 0.352660 0.547689
C72   C     C_R   0.529083 0.176115 0.645482 0.541940
C73   C     C_R   0.470090 0.175859 0.354880 0.543288
C74   C     C_R   0.029083 0.676115 0.645482 0.541940
C75   C     C_R   0.970090 0.675859 0.354880 0.543288
C76   C     C_R   0.725960 0.317425 0.638366 0.530340
C77   C     C_R   0.261051 0.362845 0.353850 0.566550
C78   C     C_R   0.225960 0.817425 0.638366 0.530340
C79   C     C_R   0.820932 0.901446 0.949985 -0.039524
C80   C     C_R   0.761051 0.862845 0.353850 0.566550
C81   C     C_2   0.553354 0.184126 0.934716 -0.126994
C82   C     C_2   0.490256 0.170274 0.076244 -0.070366
C83   C     C_2   0.053354 0.684126 0.934716 -0.126994
C84   C     C_2   0.990256 0.670274 0.076244 -0.070365
C85   C     C_2   0.545077 0.105831 0.054367 0.075313
C86   C     C_2   0.552110 0.087263 0.977334 0.077453
C87   C     C_2   0.045077 0.605831 0.054367 0.075313
C88   C     C_2   0.052111 0.587263 0.977334 0.077453
C89   C     C_R   0.676411 0.391240 0.975488 -0.176192
C90   C     C_R   0.743795 0.378301 0.086448 -0.020492
C91   C     C_R   0.326990 0.379722 0.023832 -0.166804
C92   C     C_R   0.176411 0.891240 0.975488 -0.176192
C93   C     C_R   0.826990 0.879722 0.023832 -0.166804
C94   C     C_1   0.617340 0.424748 0.089422 0.240941
C95   C     C_1   0.383639 0.421664 0.909639 0.243145
C96   C     C_1   0.117340 0.924748 0.089422 0.240940
C97   C     C_1   0.883639 0.921664 0.909639 0.243146
C98   C     C_1   0.837589 0.221352 0.096602 0.289878
C99   C     C_1   0.166051 0.216100 0.902206 0.284416
C100  C     C_1   0.337589 0.721352 0.096602 0.289878
Cr1   Cr    Cr6+3 0.769270 0.163730 0.750710 1.072573
Cr2   Cr    Cr6+3 0.385840 0.322500 0.252290 1.103206
Cr3   Cr    Cr6+3 0.114160 0.822500 0.747710 1.096336
Cr4   Cr    Cr6+3 0.885840 0.822500 0.252290 1.103206
Cr5   Cr    Cr6+3 0.230730 0.163730 0.249290 1.082812
Cr6   Cr    Cr6+3 0.269270 0.663730 0.750710 1.072573
Cr7   Cr    Cr6+3 0.730730 0.663730 0.249290 1.082812
Cr8   Cr    Cr6+3 0.612620 0.009790 0.748780 1.100583
Cr9   Cr    Cr6+3 0.387380 0.009790 0.251220 1.097754
Cr10  Cr    Cr6+3 0.112620 0.509790 0.748780 1.100583
Cr11  Cr    Cr6+3 0.887380 0.509790 0.251220 1.097754
Cr12  Cr    Cr6+3 0.614160 0.322500 0.747710 1.096336
H1    H     H_    0.656423 0.504418 0.425018 0.175671
H2    H     H_    0.376300 0.400306 0.052004 0.162711
H3    H     H_    0.129364 0.920868 0.946551 0.161609
H4    H     H_    0.876300 0.900306 0.052004 0.162711
H5    H     H_    0.621697 0.200543 0.545907 0.086188
H6    H     H_    0.598428 0.205551 0.416800 0.116385
H7    H     H_    0.121697 0.700545 0.545907 0.086189
H8    H     H_    0.098427 0.705556 0.416800 0.116385
H9    H     H_    0.378868 0.121491 0.453771 0.125007
H10   H     H_    0.401861 0.125249 0.583424 0.131477
H11   H     H_    0.878868 0.621495 0.453772 0.125006
H12   H     H_    0.330251 0.528841 0.571427 0.173592
H13   H     H_    0.901860 0.625254 0.583424 0.131477
H14   H     H_    0.829609 0.249577 0.557561 0.175157
H15   H     H_    0.135987 0.377100 0.413995 0.179893
H16   H     H_    0.329608 0.749576 0.557561 0.175156
H17   H     H_    0.635986 0.877099 0.413995 0.179893
H18   H     H_    0.156423 0.004418 0.425018 0.175671
H19   H     H_    0.830252 0.028842 0.571427 0.173592
H20   H     H_    0.453771 0.210365 0.037325 0.072718
H21   H     H_    0.550910 0.272683 0.959506 0.090767
H22   H     H_    0.953771 0.710365 0.037325 0.072718
H23   H     H_    0.050910 0.772683 0.959506 0.090767
H24   H     H_    0.629364 0.420868 0.946551 0.161609
I1    I     I_    0.624969 0.044632 0.126558 -0.282000
I2    I     I_    0.412222 0.464383 0.447865 -0.249059
I3    I     I_    0.092314 0.011054 0.567769 -0.200160
I4    I     I_    0.912223 0.964385 0.447865 -0.249059
I5    I     I_    0.882509 0.207833 0.937031 -0.207238
I6    I     I_    0.116415 0.209311 0.063358 -0.199715
I7    I     I_    0.382509 0.707834 0.937031 -0.207237
I8    I     I_    0.616415 0.709310 0.063358 -0.199715
I9    I     I_    0.531092 0.912314 0.939306 -0.180799
I10   I     I_    0.124969 0.544632 0.126558 -0.282000
I11   I     I_    0.031092 0.412314 0.939306 -0.180799
I12   I     I_    0.910675 0.289058 0.431872 -0.233478
I13   I     I_    0.065158 0.368023 0.552183 -0.238332
I14   I     I_    0.410675 0.789056 0.431871 -0.233479
I15   I     I_    0.565159 0.868023 0.552183 -0.238332
I16   I     I_    0.592314 0.511054 0.567769 -0.200159
N1    N     N_1   0.566455 0.438514 0.121546 -0.226398
N2    N     N_1   0.433991 0.437024 0.876969 -0.213422
N3    N     N_1   0.066455 0.938514 0.121546 -0.226398
N4    N     N_1   0.933991 0.937023 0.876969 -0.213423
N5    N     N_1   0.875139 0.160851 0.130639 -0.219438
N6    N     N_1   0.130808 0.152637 0.867279 -0.217438
N7    N     N_1   0.375138 0.660850 0.130639 -0.219438
N8    N     N_1   0.630808 0.652637 0.867278 -0.217438
O1    O     O_R   0.784320 0.290430 0.830510 -0.450265
O2    O     O_R   0.456080 0.282180 0.333210 -0.477663
O3    O     O_R   0.043920 0.782180 0.666790 -0.484838
O4    O     O_R   0.956080 0.782180 0.333210 -0.477663
O5    O     O_R   0.679040 0.374160 0.674430 -0.448526
O6    O     O_R   0.320960 0.374160 0.325570 -0.461311
O7    O     O_R   0.179040 0.874160 0.674430 -0.448526
O8    O     O_R   0.820960 0.874160 0.325570 -0.461311
O9    O     O_3   0.665350 0.165340 0.749070 -0.362694
O10   O     O_3   0.334650 0.165340 0.250930 -0.312312
O11   O     O_3   0.165350 0.665340 0.749070 -0.362694
O12   O     O_R   0.215680 0.290430 0.169490 -0.447714
O13   O     O_3   0.834650 0.665340 0.250930 -0.312312
O14   O     O_R   0.762640 0.040960 0.825200 -0.492633
O15   O     O_R   0.237360 0.040960 0.174800 -0.499367
O16   O     O_R   0.262640 0.540960 0.825200 -0.492633
O17   O     O_R   0.737360 0.540960 0.174800 -0.499367
O18   O     O_R   0.667400 0.923970 0.829950 -0.489140
O19   O     O_R   0.332600 0.923970 0.170050 -0.497366
O20   O     O_R   0.167400 0.423970 0.829950 -0.489140
O21   O     O_R   0.832600 0.423970 0.170050 -0.497366
O22   O     O_R   0.553960 0.081340 0.821780 -0.450081
O23   O     O_R   0.284320 0.790430 0.830510 -0.450265
O24   O     O_R   0.446040 0.081340 0.178220 -0.472247
O25   O     O_R   0.053960 0.581340 0.821780 -0.450081
O26   O     O_R   0.946040 0.581340 0.178220 -0.472247
O27   O     O_R   0.543180 0.283240 0.826740 -0.482532
O28   O     O_R   0.456820 0.283240 0.173260 -0.498419
O29   O     O_R   0.043180 0.783240 0.826740 -0.482532
O30   O     O_R   0.956820 0.783240 0.173260 -0.498419
O31   O     O_R   0.678360 0.375140 0.822710 -0.485116
O32   O     O_R   0.321640 0.375140 0.177290 -0.478616
O33   O     O_R   0.178360 0.875140 0.822710 -0.485116
O34   O     O_R   0.715680 0.790430 0.169490 -0.447714
O35   O     O_R   0.821640 0.875140 0.177290 -0.478616
O36   O     O_R   0.785050 0.289380 0.670560 -0.501364
O37   O     O_R   0.214950 0.289380 0.329440 -0.511177
O38   O     O_R   0.285050 0.789380 0.670560 -0.501364
O39   O     O_R   0.714950 0.789380 0.329440 -0.511177
O40   O     O_R   0.763320 0.039990 0.676930 -0.517266
O41   O     O_R   0.236680 0.039990 0.323070 -0.509451
O42   O     O_R   0.263320 0.539990 0.676930 -0.517266
O43   O     O_R   0.736680 0.539990 0.323070 -0.509451
O44   O     O_R   0.668130 0.922920 0.670000 -0.450060
O45   O     O_R   0.554640 0.080370 0.673500 -0.496031
O46   O     O_R   0.331870 0.922920 0.330000 -0.474366
O47   O     O_R   0.168130 0.422920 0.670000 -0.450060
O48   O     O_R   0.831870 0.422920 0.330000 -0.474366
O49   O     O_R   0.445360 0.080370 0.326500 -0.489988
O50   O     O_R   0.054640 0.580370 0.673500 -0.496031
O51   O     O_R   0.945360 0.580370 0.326500 -0.489987
O52   O     O_R   0.543920 0.282180 0.666790 -0.484838

loop_
_geom_bond_atom_site_label_1
_geom_bond_atom_site_label_2
_ccdc_geom_bond_type
C58   C62   A    
C87   C88   S    
C49   C53   A    
Cr10  O25   S    
C69   O41   A    
Cr5   O12   S    
C85   I1    S    
C45   C71   S    
C43   C83   S    
Cr6   O11   S    
C14   C18   A    
C2    C7    A    
C42   C82   S    
C84   C87   D    
Cr11  O21   S    
C48   C69   S    
C4    C8    A    
Cr12  O27   S    
C20   H6    S    
C66   O35   A    
C2    C57   A    
C46   C89   A    
C72   O52   A    
C85   C86   S    
C71   O43   A    
C39   I14   S    
C84   H22   S    
C69   O46   A    
C68   C96   S    
C55   I2    S    
C7    C99   S    
C74   O50   A    
C1    C5    S    
Cr12  O52   S    
C73   O49   A    
C28   C29   A    
C87   I10   S    
C79   C93   A    
C10   C15   A    
Cr3   O7    S    
C74   O3    A    
C36   C62   A    
C96   N3    T    
C15   C89   A    
C43   O25   A    
C42   O28   A    
C40   C49   A    
C92   H3    S    
C33   H15   S    
C41   O27   A    
C63   O1    A    
C11   C16   A    
C97   N4    T    
C32   H14   S    
C4    C13   S    
C67   O44   A    
C76   O36   A    
C44   O30   A    
C54   C59   A    
Cr4   O35   S    
C19   C20   A    
C12   C17   A    
C24   O20   A    
Cr2   O32   S    
C20   C23   A    
Cr1   O9    S    
Cr10  O47   S    
C53   H19   S    
C5    C79   A    
C27   C74   S    
C57   C91   A    
C38   I13   S    
C83   H23   S    
C81   C86   D    
Cr1   O36   S    
Cr2   O2    S    
Cr6   O38   S    
Cr10  O11   S    
Cr5   O37   S    
C83   C88   D    
C21   C27   A    
Cr4   O30   S    
C66   O34   A    
Cr2   O6    S    
C89   H24   S    
C21   C22   A    
Cr7   O17   S    
Cr3   O11   S    
C51   H12   S    
Cr1   O14   S    
Cr10  O50   S    
C17   C92   A    
C23   C73   S    
Cr9   O49   S    
C64   O32   A    
C65   O33   A    
C35   O17   A    
C25   C29   A    
C60   C77   S    
C14   I8    S    
C1    O14   A    
Cr1   O40   S    
Cr5   O10   S    
C27   C31   A    
C34   C39   A    
C36   C40   A    
C67   O40   A    
C4    C68   A    
C56   I3    S    
C28   H9    S    
C82   H20   S    
C54   I16   S    
C10   I5    S    
Cr7   O13   S    
C42   O24   A    
C70   O47   A    
C6    C90   A    
C80   O39   A    
C70   O42   A    
C34   C61   A    
Cr2   O28   S    
C40   I15   S    
C75   O4    A    
C93   H4    S    
C64   O12   A    
C7    C11   A    
C9    C14   A    
C47   C70   S    
C5    C9    A    
C73   O2    A    
C3    C9    S    
Cr6   O42   S    
C1    O18   A    
Cr9   O19   S    
Cr5   O41   S    
Cr12  O9    S    
C46   C94   S    
C98   N5    T    
Cr10  O20   S    
C61   C78   S    
C8    C12   A    
C41   C81   S    
C29   H10   S    
C26   C75   S    
C78   O7    A    
Cr8   O18   S    
C76   O5    A    
Cr8   O44   S    
C25   C72   S    
C50   C54   A    
C32   C37   A    
Cr8   O9    S    
C43   O29   A    
C38   C47   A    
C72   O45   A    
Cr3   O29   S    
Cr9   O24   S    
C71   O48   A    
C62   C80   S    
C33   C60   A    
C2    C24   S    
C3    N8    T    
C41   O22   A    
C23   C28   A    
C31   H13   S    
C37   C45   A    
C24   O16   A    
C86   I9    S    
C6    C98   S    
Cr9   O10   S    
C65   O23   A    
C58   I4    S    
C13   O15   A    
C18   C66   S    
Cr11  O26   S    
C15   C63   S    
C57   C95   S    
C49   C67   S    
Cr11  O13   S    
Cr3   O3    S    
C79   C97   S    
Cr8   O45   S    
C44   C84   S    
C22   H8    S    
Cr4   O4    S    
C47   C51   A    
C53   C58   A    
C12   I7    S    
C81   H21   S    
Cr4   O13   S    
C46   C90   A    
C35   O21   A    
C82   C85   D    
Cr7   O43   S    
C17   C65   S    
C33   C38   A    
C91   H2    S    
Cr8   O22   S    
C95   N2    T    
C52   H18   S    
C50   H1    S    
Cr1   O1    S    
C77   O6    A    
Cr4   O8    S    
C21   H7    S    
C13   O19   A    
C36   H17   S    
Cr12  O31   S    
Cr7   O39   S    
C100  N7    T    
Cr5   O15   S    
C30   C31   A    
Cr2   O10   S    
C94   N1    T    
C63   O31   A    
Cr12  O5    S    
C59   C76   S    
C68   C92   A    
C88   I11   S    
C78   O38   A    
C51   C55   A    
C37   I12   S    
C8    C100  S    
Cr9   O46   S    
C19   C25   A    
C11   I6    S    
Cr11  O51   S    
Cr6   O23   S    
C6    C10   A    
C35   C90   S    
C48   C52   A    
C30   H11   S    
C19   H5    S    
C16   C91   A    
C34   H16   S    
C22   C26   A    
C99   N6    T    
C44   O26   A    
C18   C93   A    
Cr6   O16   S    
C56   C61   A    
C75   O51   A    
C45   C50   A    
C16   C64   S    
C32   C59   A    
C55   C60   A    
C77   O37   A    
Cr11  O48   S    
C80   O8    A    
Cr7   O34   S    
C52   C56   A    
Cr3   O33   S    
C39   C48   A    
C26   C30   A    
