data_mof_unit_6745.cif
_audit_creation_date              2012-12-11T15:55:49-0500
_audit_creation_method            fapswitch 2.2
_symmetry_space_group_name_H-M    P1
_symmetry_Int_Tables_number       1
_space_group_crystal_system       triclinic
_cell_length_a                    11.082712
_cell_length_b                    11.057582
_cell_length_c                    18.652347
_cell_angle_alpha                 90.687712
_cell_angle_beta                  91.049934
_cell_angle_gamma                 59.458919
_cell_volume                      1968.34615444

loop_
_atom_site_label
_atom_site_type_symbol
_atom_type_description
_atom_site_fract_x
_atom_site_fract_y
_atom_site_fract_z
_atom_type_partial_charge
C1    C     C_R   0.358824 0.769532 0.396663 0.575202
C2    C     C_R   0.617404 0.158505 0.156204 0.033238
C3    C     C_R   0.364661 0.352554 0.156128 -0.014715
C4    C     C_R   0.487809 0.268753 0.268427 -0.174191
C5    C     C_R   0.490464 0.266347 0.193960 -0.050150
C6    C     C_R   0.062639 0.652857 0.344450 -0.022678
C7    C     C_R   0.925454 0.754403 0.361224 -0.082069
C8    C     C_R   0.673207 0.015487 0.171467 -0.121028
C9    C     C_R   0.759558 0.912879 0.122117 -0.074295
C10   C     C_R   0.252614 0.465072 0.192094 0.003578
C11   C     C_R   0.239784 0.453754 0.267129 -0.067100
C12   C     C_R   0.385401 0.356636 0.385996 0.537681
C13   C     C_R   0.815156 0.756327 0.324094 -0.096703
C14   C     C_R   0.843778 0.655104 0.271814 -0.074527
C15   C     C_R   0.980927 0.542639 0.261902 -0.036453
C16   C     C_R   0.094881 0.541452 0.297454 0.048668
C17   C     C_R   0.364033 0.354662 0.306806 -0.033848
C18   C     C_R   0.848834 0.337031 0.180403 0.006391
C19   C     C_R   0.922483 0.237257 0.233961 -0.044125
C20   C     C_R   0.871596 0.261420 0.302397 0.081919
C21   C     C_R   0.687290 0.491419 0.269592 -0.185715
C22   C     C_R   0.730990 0.465308 0.198417 -0.171312
C23   C     C_R   0.712699 0.415296 0.394971 0.563363
C24   C     C_3   0.965332 0.084943 0.238286 -0.222071
C25   C     C_3   0.901380 0.116039 0.312379 0.026590
C26   C     C_R   0.754787 0.387401 0.321364 0.014306
C27   C     C_R   0.363191 0.840898 0.174600 0.010818
C28   C     C_R   0.390823 0.919176 0.224535 -0.004358
C29   C     C_R   0.392996 0.896677 0.297579 -0.009626
C30   C     C_R   0.345244 0.710922 0.271822 -0.146429
C31   C     C_R   0.355169 0.727034 0.198626 -0.148612
C32   C     C_3   0.320986 0.073734 0.233369 -0.266812
C33   C     C_3   0.327356 0.050000 0.313476 -0.271413
C34   C     C_R   0.345358 0.770832 0.603718 0.546972
C35   C     C_R   0.354393 0.802599 0.321738 0.041937
C36   C     C_R   0.306895 0.311621 0.811032 -0.012448
C37   C     C_R   0.373636 0.193914 0.766527 0.054351
C38   C     C_R   0.376343 0.204749 0.694203 0.000319
C39   C     C_R   0.215648 0.456323 0.704506 0.030308
C40   C     C_R   0.222390 0.442064 0.779617 -0.188560
C41   C     C_3   0.514097 0.063194 0.769883 -0.255853
C42   C     C_3   0.515342 0.071358 0.688689 -0.281235
C43   C     C_R   0.312183 0.336323 0.662044 0.023883
C44   C     C_R   0.792533 0.352627 0.839915 0.030020
C45   C     C_R   0.368411 0.352025 0.595487 0.561663
C46   C     C_R   0.793716 0.458825 0.800234 0.000901
C47   C     C_R   0.764974 0.471641 0.728728 -0.029261
C48   C     C_R   0.687871 0.305902 0.734548 -0.157059
C49   C     C_R   0.727238 0.283515 0.808347 -0.168144
C50   C     C_3   0.911439 0.486987 0.789800 -0.234576
C51   C     C_3   0.882238 0.493494 0.710140 -0.048865
C52   C     C_R   0.717153 0.394164 0.693187 0.011659
C53   C     C_R   0.294672 0.852119 0.824334 0.030251
C54   C     C_R   0.182611 0.929628 0.777253 0.057395
C55   C     C_R   0.197956 0.918161 0.704512 0.018062
C56   C     C_R   0.697630 0.413624 0.615529 0.558254
C57   C     C_R   0.446031 0.771977 0.721619 -0.172410
C58   C     C_R   0.429612 0.781374 0.795889 -0.170461
C59   C     C_3   0.037245 0.956027 0.772411 -0.242058
C60   C     C_3   0.052577 0.948865 0.690947 -0.262711
C61   C     C_R   0.327811 0.828175 0.675278 0.013355
C62   C     C_R   0.910254 0.315481 0.111025 0.526582
C63   C     C_R   0.330488 0.298509 0.090342 0.563386
C64   C     C_R   0.309650 0.898003 0.104414 0.544262
C65   C     C_R   0.875641 0.313568 0.906847 0.530236
C66   C     C_R   0.296303 0.288194 0.885779 0.550460
C67   C     C_R   0.793469 0.951299 0.057339 0.070971
C68   C     C_R   0.275073 0.893693 0.898438 0.544846
C69   C     C_R   0.746899 0.093581 0.045071 -0.087432
C70   C     C_R   0.660935 0.196184 0.094401 -0.095713
Cr1   Cr    Cr6+3 0.601740 0.606840 0.505840 1.039952
Cr2   Cr    Cr6+3 0.291500 0.601560 0.495070 1.069900
Cr3   Cr    Cr6+3 0.606780 0.291630 0.499130 1.035595
Cr4   Cr    Cr6+3 0.062440 0.063060 0.008240 1.039525
Cr5   Cr    Cr6+3 0.062950 0.375000 0.998920 1.058391
Cr6   Cr    Cr6+3 0.374550 0.061770 0.992470 1.032233
H1    H     H_    0.583416 0.197454 0.296434 0.134755
H2    H     H_    0.708735 0.840807 0.332562 0.106175
H3    H     H_    0.759744 0.670460 0.236373 0.109119
H4    H     H_    0.000347 0.466666 0.220068 0.129167
H5    H     H_    0.606387 0.594223 0.285116 0.125927
H6    H     H_    0.677496 0.546881 0.158564 0.128519
H7    H     H_    0.080712 0.014435 0.239129 0.182939
H8    H     H_    0.909279 0.054914 0.198593 0.162455
H9    H     H_    0.806524 0.107472 0.315116 0.125889
H10   H     H_    0.336740 0.623563 0.289901 0.125634
H11   H     H_    0.794144 0.804076 0.133109 0.174323
H12   H     H_    0.351157 0.655511 0.160542 0.155212
H13   H     H_    0.213004 0.130932 0.210472 0.139572
H14   H     H_    0.389502 0.111016 0.215256 0.158719
H15   H     H_    0.401410 0.074087 0.342224 0.149992
H16   H     H_    0.222416 0.097282 0.337759 0.197756
H17   H     H_    0.157479 0.530615 0.814014 0.176703
H18   H     H_    0.508994 0.971862 0.789411 0.166245
H19   H     H_    0.594604 0.079993 0.796953 0.141083
H20   H     H_    0.602716 0.082956 0.669308 0.155370
H21   H     H_    0.905292 0.838166 0.398471 0.150334
H22   H     H_    0.505542 0.986776 0.661390 0.150041
H23   H     H_    0.643485 0.249075 0.709309 0.123730
H24   H     H_    0.717417 0.205737 0.838241 0.121683
H25   H     H_    0.014081 0.397062 0.806785 0.194656
H26   H     H_    0.887073 0.589764 0.813256 0.154022
H27   H     H_    0.842385 0.598442 0.685774 0.144067
H28   H     H_    0.550473 0.713322 0.700696 0.137069
H29   H     H_    0.521376 0.734577 0.830759 0.129940
H30   H     H_    0.962599 0.061742 0.792520 0.171763
H31   H     H_    0.028062 0.869900 0.796440 0.212071
H32   H     H_    0.049797 0.861187 0.663993 0.200285
H33   H     H_    0.986281 0.052286 0.664601 0.184086
H34   H     H_    0.769854 0.126509 0.995409 0.150683
H35   H     H_    0.618395 0.305859 0.081375 0.108873
H36   H     H_    0.142142 0.670352 0.361649 0.192671
H37   H     H_    0.640840 0.983636 0.218498 0.101778
O1    O     O_R   0.748670 0.497520 0.427970 -0.466689
O2    O     O_R   0.300170 0.471020 0.567120 -0.444132
O3    O     O_R   0.491630 0.259030 0.574940 -0.541988
O4    O     O_R   0.718640 0.304340 0.577850 -0.479405
O5    O     O_3   0.500010 0.500010 0.500020 -0.325645
O6    O     O_R   0.186620 0.923750 0.087000 -0.508915
O7    O     O_R   0.957350 0.194160 0.084660 -0.512233
O8    O     O_R   0.935120 0.407280 0.085350 -0.499124
O9    O     O_R   0.203800 0.365060 0.067090 -0.455246
O10   O     O_R   0.417470 0.174910 0.067830 -0.514864
O11   O     O_R   0.375160 0.946380 0.070880 -0.500947
O12   O     O_R   0.476470 0.723930 0.429450 -0.525957
O13   O     O_R   0.160500 0.919670 0.926690 -0.479275
O14   O     O_R   0.933140 0.190380 0.936050 -0.506065
O15   O     O_R   0.909010 0.403210 0.925030 -0.524096
O16   O     O_R   0.179590 0.361290 0.918480 -0.513309
O17   O     O_R   0.391360 0.170840 0.907510 -0.516582
O18   O     O_R   0.350950 0.942600 0.922260 -0.507683
O19   O     O_3   0.166650 0.166610 0.999880 -0.265878
O20   O     O_R   0.264730 0.744140 0.416740 -0.506073
O21   O     O_R   0.309440 0.472410 0.418220 -0.516074
O22   O     O_R   0.501630 0.260530 0.414310 -0.530200
O23   O     O_R   0.727920 0.305730 0.428950 -0.459687
O24   O     O_R   0.738670 0.496020 0.588600 -0.474541
O25   O     O_R   0.467190 0.722540 0.578350 -0.534835
O26   O     O_R   0.254720 0.742640 0.577370 -0.483359
Br1   Br    Br    0.026082 0.033238 0.393316 -0.521483
C71   C     C_2   0.095936 0.591564 0.675993 0.567263
O27   O     O_2   0.063946 0.608252 0.612383 -0.458069
O28   O     O_R   0.005918 0.693827 0.724562 -0.780158
H38   H     H_    0.917197 0.771246 0.701083 0.317561
C72   C     C_2   0.995091 0.370649 0.668296 0.600748
O29   O     O_2   0.017107 0.386990 0.606185 -0.439659
O30   O     O_R   0.072233 0.238393 0.699735 -0.729986
H39   H     H_    0.145730 0.168106 0.666075 0.337360
C73   C     C_2   0.870150 0.844345 0.001191 0.526422
O31   O     O_2   0.906921 0.876356 0.946650 -0.540085
O32   O     O_R   0.899019 0.706627 0.009992 -0.686440
H40   H     H_    0.951307 0.643759 0.967954 0.351527
C74   C     C_2   0.159279 0.597426 0.150667 0.577128
O33   O     O_2   0.066007 0.701711 0.180055 -0.538512
O34   O     O_R   0.190845 0.607983 0.079484 -0.687460
H41   H     H_    0.132822 0.706489 0.059757 0.360938

loop_
_geom_bond_atom_site_label_1
_geom_bond_atom_site_label_2
_ccdc_geom_bond_type
C44   C49   A    
C7    C13   A    
C21   C26   A    
Cr4   O19   S    
C63   O10   A    
C67   C73   S    
Cr5   O9    S    
C41   C42   S    
O30   H39   S    
C15   H4    S    
C40   H17   S    
C72   O29   D    
C57   C58   A    
C73   O31   D    
Cr1   O24   S    
C41   H18   S    
C41   H19   S    
C53   C54   A    
Cr4   O6    S    
Cr2   O2    S    
C64   O6    A    
C23   O23   A    
C42   H20   S    
C22   H6    S    
C21   C22   A    
C28   C29   A    
C24   H7    S    
C1    O12   A    
C38   C42   S    
C73   O32   S    
C30   C31   A    
Cr6   O18   S    
C36   C66   S    
C20   C25   S    
C51   C72   S    
C51   H27   S    
C15   C16   A    
C29   C33   S    
C34   O26   A    
C18   C19   A    
C56   O4    A    
C23   C26   S    
C48   H23   S    
C53   C68   S    
C60   H33   S    
C46   C47   A    
C52   C56   S    
Cr6   O17   S    
Cr2   O26   S    
C32   H14   S    
C39   C71   S    
C8    C9    A    
C12   O22   A    
C12   C17   S    
O32   H40   S    
Cr5   O15   S    
C74   O34   S    
C62   O7    A    
C60   H32   S    
C66   O16   A    
C59   C60   S    
C12   O21   A    
C55   C60   S    
C44   C65   S    
C1    O20   A    
C10   C74   S    
Cr5   O8    S    
C72   O30   S    
C44   C46   A    
Cr1   O25   S    
C54   C59   S    
C59   H30   S    
Cr3   O4    S    
C27   C31   A    
Cr6   O11   S    
C65   O15   A    
Cr3   O22   S    
C28   C32   S    
C25   Br1   S    
C24   C25   S    
C27   C64   S    
C33   H16   S    
C39   C40   A    
C18   C62   S    
C39   C43   A    
C64   O11   A    
C34   O25   A    
C34   C61   S    
C59   H31   S    
Cr1   O1    S    
C67   C69   A    
C68   O18   A    
C9    C67   A    
C37   C38   A    
C43   C45   S    
C11   C16   S    
C45   O2    A    
Cr2   O21   S    
Cr4   O14   S    
Cr3   O23   S    
C36   C40   A    
C25   H9    S    
C50   C51   S    
C14   H3    S    
Cr3   O3    S    
C47   C52   A    
C8    H37   S    
C4    C17   A    
C30   C35   A    
C48   C49   A    
C69   H34   S    
C21   H5    S    
C50   H26   S    
C32   H13   S    
C2    C5    S    
C30   H10   S    
C68   O13   A    
O34   H41   S    
C63   O9    A    
Cr5   O19   S    
C1    C35   S    
C57   H28   S    
C46   C50   S    
C54   C55   A    
C36   C37   A    
Cr3   O5    S    
C7    H21   S    
Cr1   O5    S    
C18   C22   A    
Cr6   O10   S    
C6    H36   S    
C31   H12   S    
C65   O14   A    
C2    C8    A    
C4    C5    A    
C3    C5    A    
C42   H22   S    
C11   C17   A    
C47   C51   S    
C53   C58   A    
C57   C61   A    
C6    C7    A    
C3    C63   S    
Cr4   O7    S    
C29   C35   A    
C70   H35   S    
C58   H29   S    
C32   C33   S    
C19   C20   A    
C71   O28   S    
C19   C24   S    
C24   H8    S    
C38   C43   A    
C3    C10   A    
C2    C70   A    
C71   O27   D    
C9    H11   S    
C49   H24   S    
C56   O24   A    
Cr6   O19   S    
C45   O3    A    
Cr2   O20   S    
Cr4   O13   S    
C20   C26   A    
C55   C61   A    
C37   C41   S    
C69   C70   A    
C10   C11   A    
C13   H2    S    
C6    C16   A    
Cr5   O16   S    
C4    H1    S    
C48   C52   A    
C50   H25   S    
Cr2   O5    S    
C27   C28   A    
C14   C15   A    
Cr1   O12   S    
C66   O17   A    
C74   O33   D    
C13   C14   A    
C62   O8    A    
O28   H38   S    
C23   O1    A    
C33   H15   S    
