data_mof_unit_17062.cif
_audit_creation_date              2012-12-10T17:54:27-0500
_audit_creation_method            fapswitch 2.2
_symmetry_space_group_name_H-M    P1
_symmetry_Int_Tables_number       1
_space_group_crystal_system       triclinic
_cell_length_a                    27.73187
_cell_length_b                    10.765464
_cell_length_c                    9.948711
_cell_angle_alpha                 88.972853
_cell_angle_beta                  89.742667
_cell_angle_gamma                 94.858841
_cell_volume                      2958.94940617

loop_
_atom_site_label
_atom_site_type_symbol
_atom_type_description
_atom_site_fract_x
_atom_site_fract_y
_atom_site_fract_z
_atom_type_partial_charge
C1    C     C_R   0.504254 0.261710 0.501304 0.943282
C2    C     C_R   0.972009 0.403677 0.482214 0.045829
C3    C     C_R   0.978143 0.634109 0.482417 0.046536
C4    C     C_R   0.406141 0.503017 0.500316 0.951481
C5    C     C_R   0.949820 0.517777 0.484306 0.074648
C6    C     C_R   0.942230 0.290467 0.492807 -0.210430
C7    C     C_R   0.892266 0.289406 0.498969 -0.127679
C8    C     C_R   0.870104 0.400934 0.495483 -0.029856
C9    C     C_R   0.898684 0.515485 0.488511 -0.050225
C10   C     C_R   0.875999 0.627714 0.485733 -0.030932
C11   C     C_R   0.825454 0.623222 0.489193 0.558544
C12   C     C_R   0.281141 0.538231 0.369902 -0.116615
C13   C     C_R   0.819692 0.400805 0.499240 0.546219
C14   C     C_R   0.722544 0.512654 0.373512 0.514291
C15   C     C_R   0.671976 0.509642 0.375506 -0.339400
C16   C     C_R   0.497087 0.739650 0.499375 0.911092
C17   C     C_R   0.672135 0.497957 0.619644 -0.214070
C18   C     C_R   0.722266 0.500819 0.618062 -0.202455
C19   C     C_R   0.747296 0.508339 0.495683 0.294538
C20   C     C_R   0.023019 0.406212 0.471564 0.047203
C21   C     C_R   0.051407 0.522091 0.478103 0.071932
C22   C     C_R   0.029279 0.635988 0.486395 0.045709
C23   C     C_R   0.253692 0.526985 0.487621 0.301915
C24   C     C_R   0.046827 0.296432 0.453980 -0.213812
C25   C     C_R   0.109290 0.748498 0.501398 -0.136060
C26   C     C_R   0.954121 0.744910 0.476236 -0.210421
C27   C     C_R   0.904034 0.741489 0.478202 -0.131462
C28   C     C_R   0.593886 0.500708 0.499656 0.855100
C29   C     C_R   0.059279 0.748066 0.500145 -0.212523
C30   C     C_R   0.531604 0.111235 0.744137 -0.130128
C31   C     C_R   0.526329 0.042503 0.864001 -0.210763
C32   C     C_R   0.496299 0.932018 0.868396 -0.305621
C33   C     C_R   0.475869 0.882394 0.748569 0.578496
C34   C     C_R   0.102546 0.523954 0.477143 -0.051870
C35   C     C_R   0.493067 0.937064 0.624030 -0.059613
C36   C     C_R   0.511736 0.061552 0.624326 0.021212
C37   C     C_R   0.509704 0.130188 0.503268 -0.192535
C38   C     C_R   0.506065 0.069586 0.381114 -0.302881
C39   C     C_R   0.503727 0.941742 0.377966 0.518493
C40   C     C_R   0.175535 0.415807 0.466655 0.509159
C41   C     C_R   0.494468 0.873478 0.499497 -0.219019
C42   C     C_R   0.447553 0.299391 0.142131 0.575689
C43   C     C_R   0.441587 0.185387 0.076914 -0.395168
C44   C     C_R   0.439441 0.185762 0.939993 -0.383820
C45   C     C_R   0.125044 0.412182 0.464840 -0.023375
C46   C     C_R   0.447386 0.298675 0.867077 0.595306
C47   C     C_R   0.474270 0.401952 0.929831 0.002203
C48   C     C_R   0.474163 0.402468 0.074705 -0.012561
C49   C     C_R   0.525457 0.589608 0.069146 -0.108331
C50   C     C_R   0.525117 0.590434 0.926587 -0.107564
C51   C     C_R   0.181735 0.636673 0.491302 0.512294
C52   C     C_R   0.275627 0.510699 0.611847 -0.239334
C53   C     C_R   0.325768 0.503519 0.619683 0.427825
C54   C     C_R   0.330773 0.531490 0.375747 -0.316826
C55   C     C_3   0.410999 0.773797 0.865094 -0.256480
C56   C     C_R   0.096874 0.299587 0.451177 -0.139441
C57   C     C_3   0.556297 0.906160 0.209467 -0.333756
C58   C     C_3   0.378466 0.247133 0.273834 -0.318069
C59   C     C_3   0.390801 0.219314 0.704770 -0.226021
C60   C     C_R   0.131311 0.637439 0.489378 -0.027569
C61   C     C_R   0.353571 0.512439 0.499664 -0.119512
C62   C     C_R   0.646660 0.502456 0.498385 -0.064367
H1    H     H_    0.351206 0.539896 0.282512 0.196973
H2    H     H_    0.552512 0.200718 0.745247 0.159146
H3    H     H_    0.542116 0.080112 0.955531 0.169340
H4    H     H_    0.263848 0.550677 0.273776 0.144596
H5    H     H_    0.488541 0.887581 0.965183 0.184452
H6    H     H_    0.547149 0.660943 0.121118 0.151712
H7    H     H_    0.430207 0.099596 0.130767 0.198477
H8    H     H_    0.426157 0.099586 0.893926 0.185630
H9    H     H_    0.545835 0.664637 0.871708 0.142008
H10   H     H_    0.113410 0.212823 0.438720 0.187719
H11   H     H_    0.652606 0.513305 0.281400 0.160000
H12   H     H_    0.253354 0.502121 0.701826 0.129930
H13   H     H_    0.871039 0.200277 0.506606 0.193518
H14   H     H_    0.956356 0.200463 0.499829 0.139322
H15   H     H_    0.027872 0.206224 0.439517 0.138991
H16   H     H_    0.377266 0.714742 0.844145 0.219281
H17   H     H_    0.400069 0.865611 0.898255 0.131170
H18   H     H_    0.430273 0.725990 0.946015 0.175156
H19   H     H_    0.559020 0.870058 0.106506 0.172304
H20   H     H_    0.580892 0.856231 0.275427 0.175725
H21   H     H_    0.568902 0.006927 0.202053 0.158016
H22   H     H_    0.381259 0.147074 0.298873 0.166647
H23   H     H_    0.130664 0.836685 0.512627 0.191817
H24   H     H_    0.356892 0.258806 0.180988 0.168431
H25   H     H_    0.358383 0.285119 0.357944 0.185192
H26   H     H_    0.362317 0.201067 0.783451 0.160076
H27   H     H_    0.407890 0.133314 0.678012 0.143099
H28   H     H_    0.372604 0.250907 0.612888 0.173913
H29   H     H_    0.725847 0.521893 0.178332 0.328655
H30   H     H_    0.322895 0.481668 0.814636 0.317096
H31   H     H_    0.972889 0.836401 0.467001 0.137633
H32   H     H_    0.653413 0.492272 0.715609 0.171747
H33   H     H_    0.887356 0.828918 0.473630 0.188449
H34   H     H_    0.741818 0.497320 0.711849 0.161181
H35   H     H_    0.045345 0.837366 0.513698 0.139740
H36   H     H_    0.506904 0.120798 0.286390 0.188309
N1    N     N_R   0.202486 0.526790 0.480760 -0.347896
N2    N     N_R   0.798688 0.510900 0.495548 -0.338114
N3    N     N_R   0.499540 0.498800 0.142780 -0.098187
N4    N     N_R   0.499520 0.498720 0.857170 -0.089838
O1    O     O_R   0.500000 0.316780 0.614690 -0.598057
O2    O     O_R   0.571250 0.499990 0.614680 -0.645103
O3    O     O_R   0.571240 0.499970 0.385350 -0.634588
O4    O     O_2   0.197665 0.309449 0.455399 -0.561919
O5    O     O_3   0.439257 0.784793 0.746486 -0.591238
O6    O     O_3   0.507828 0.885006 0.254995 -0.598468
O7    O     O_3   0.425008 0.312159 0.264627 -0.555225
O8    O     O_3   0.426215 0.314349 0.742882 -0.530108
O9    O     O_3   0.748635 0.519587 0.254703 -0.752801
O10   O     O_3   0.347724 0.486523 0.742246 -0.741266
O11   O     O_2   0.791766 0.291852 0.505721 -0.546622
O12   O     O_2   0.209870 0.744354 0.504225 -0.554740
O13   O     O_2   0.803103 0.729859 0.486074 -0.545308
O14   O     O_R   0.500000 0.316750 0.385360 -0.584254
O15   O     O_R   0.428760 0.500030 0.614650 -0.474371
O16   O     O_R   0.428750 0.500010 0.385320 -0.579787
O17   O     O_R   0.500000 0.683250 0.614640 -0.592363
O18   O     O_R   0.500000 0.683220 0.385310 -0.579253
Zn1   Zn    Zn3+2 0.500000 0.500020 0.653130 1.025094
Zn2   Zn    Zn3+2 0.500000 0.499980 0.346870 1.000527

loop_
_geom_bond_atom_site_label_1
_geom_bond_atom_site_label_2
_ccdc_geom_bond_type
C10   C27   A    
C23   N1    S    
C8    C13   A    
C49   H6    S    
C30   H2    S    
C58   O7    S    
C18   H34   S    
C27   H33   S    
C35   C36   A    
C33   O5    S    
C38   H36   S    
C58   H25   S    
C40   N1    A    
C7    C8    A    
C39   C41   A    
C31   C32   A    
C12   C23   A    
C26   C27   A    
O14   Zn2   S    
C36   C37   A    
C22   C29   A    
C42   O7    S    
C52   H12   S    
C16   O18   A    
C49   N3    A    
C30   C31   A    
C54   H1    S    
C59   O8    S    
C18   C19   A    
O16   Zn2   S    
H29   O9    S    
O15   Zn1   S    
C59   H26   S    
C53   C61   A    
C59   H27   S    
C20   C24   A    
C45   C56   A    
C44   C46   A    
C8    C9    A    
C56   H10   S    
C57   H21   S    
C44   H8    S    
C25   C60   A    
N4    Zn1   S    
C11   O13   S    
C9    C10   A    
C1    O1    A    
C1    C37   S    
C26   H31   S    
C43   H7    S    
C47   N4    A    
C21   C22   A    
C34   C60   A    
C4    O16   A    
C2    C6    A    
C58   H24   S    
O18   Zn2   S    
O17   Zn1   S    
C25   C29   A    
C39   O6    S    
C51   O12   S    
C2    C20   A    
C16   O17   A    
C55   H16   S    
H30   O10   S    
C7    H13   S    
C21   C34   A    
C12   H4    S    
C4    C61   S    
C55   O5    S    
C11   N2    A    
C59   H28   S    
C43   C44   A    
C5    C9    A    
C37   C38   A    
C58   H22   S    
C17   C62   A    
C51   N1    A    
C55   H17   S    
C28   O2    A    
C47   C48   A    
C28   O3    A    
C25   H23   S    
C17   C18   A    
C34   C45   A    
C42   C48   A    
C20   C21   A    
C14   O9    S    
C32   H5    S    
C53   O10   S    
C15   H11   S    
C50   N4    A    
C46   O8    S    
C57   H19   S    
C4    O15   A    
C51   C60   A    
C2    C5    A    
C42   C43   A    
O1    Zn1   S    
C52   C53   A    
C40   O4    S    
C31   H3    S    
C1    O14   A    
C46   C47   A    
C14   C15   A    
C14   C19   A    
C3    C26   A    
C3    C5    A    
C19   N2    S    
C6    H14   S    
C6    C7    A    
O2    Zn1   S    
C54   C61   A    
C29   H35   S    
C24   C56   A    
N3    Zn2   S    
C30   C36   A    
C32   C33   A    
C13   N2    A    
C50   H9    S    
C55   H18   S    
C23   C52   A    
C38   C39   A    
C48   N3    A    
C33   C35   A    
C15   C62   A    
O3    Zn2   S    
C35   C41   A    
C12   C54   A    
C10   C11   A    
C24   H15   S    
C57   O6    S    
C40   C45   A    
C49   C50   A    
C57   H20   S    
C3    C22   A    
C17   H32   S    
C16   C41   S    
C13   O11   S    
C28   C62   S    
