data_mof_unit_9907.cif
_audit_creation_date              2012-12-10T17:03:37-0500
_audit_creation_method            fapswitch 2.2
_symmetry_space_group_name_H-M    P1
_symmetry_Int_Tables_number       1
_space_group_crystal_system       triclinic
_cell_length_a                    10.034534
_cell_length_b                    10.727792
_cell_length_c                    13.080113
_cell_angle_alpha                 90.054096
_cell_angle_beta                  71.249659
_cell_angle_gamma                 90.472419
_cell_volume                      1333.27777306

loop_
_atom_site_label
_atom_site_type_symbol
_atom_type_description
_atom_site_fract_x
_atom_site_fract_y
_atom_site_fract_z
_atom_type_partial_charge
C1    C     C_R   0.500302 0.737370 0.500802 0.932224
C2    C     C_R   0.380189 0.439155 0.814681 -0.115016
C3    C     C_2   0.620274 0.067681 0.479792 -0.164281
C4    C     C_R   0.423989 0.482606 0.702163 0.863238
C5    C     C_2   0.506799 0.131611 0.479451 -0.322196
C6    C     C_2   0.620556 0.933416 0.474138 -0.162337
C7    C     C_2   0.499570 0.869333 0.505815 -0.330336
C8    C     C_2   0.089401 0.406232 0.465072 0.508443
C9    C     C_2   0.931230 0.401296 0.484862 -0.288820
C10   C     C_R   0.501465 0.262723 0.495482 0.923667
C11   C     C_R   0.577289 0.498941 0.295608 0.877326
C12   C     C_R   0.441018 0.407544 0.977814 0.103812
C13   C     C_R   0.797952 0.435277 0.006929 -0.296633
C14   C     C_R   0.622145 0.480056 0.178735 -0.180932
C15   C     C_R   0.236840 0.436006 0.875448 -0.219311
C16   C     C_R   0.195751 0.409308 0.985194 -0.164206
C17   C     C_R   0.296014 0.401395 0.037399 -0.187763
C18   C     C_3   0.884815 0.636241 0.162104 0.112413
C19   C     C_3   0.976863 0.692528 0.054596 -0.399345
C20   C     C_3   0.001610 0.831647 0.065562 -0.940716
C21   C     C_3   0.139579 0.247904 0.335264 0.058804
C22   C     C_3   0.077948 0.117338 0.368370 -0.351170
C23   C     C_R   0.481089 0.404985 0.864516 0.087103
C24   C     C_3   0.024129 0.059714 0.282262 -0.968106
C25   C     C_R   0.547988 0.420925 0.025879 0.074349
C26   C     C_R   0.691157 0.409122 0.962460 0.111014
C27   C     C_R   0.725309 0.374702 0.854480 -0.230012
C28   C     C_R   0.620913 0.371200 0.806004 -0.190574
C29   C     C_R   0.516429 0.456414 0.133119 -0.331982
C30   C     C_R   0.764673 0.475999 0.113738 0.492806
H1    H     H_    0.416508 0.088688 0.464640 0.160027
H2    H     H_    0.156813 0.454242 0.838330 0.155570
H3    H     H_    0.257592 0.387576 0.123571 0.121609
H4    H     H_    0.085874 0.400895 0.031398 0.197560
H5    H     H_    0.651528 0.341894 0.722661 0.182483
H6    H     H_    0.714250 0.113550 0.486074 0.169639
H7    H     H_    0.936178 0.655029 0.224270 0.167557
H8    H     H_    0.780978 0.683946 0.190257 0.114932
H9    H     H_    0.080244 0.645306 0.027733 0.243362
H10   H     H_    0.925046 0.678832 0.992032 0.220307
H11   H     H_    0.899801 0.881647 0.093783 0.269058
H12   H     H_    0.721803 0.887048 0.446987 0.165545
H13   H     H_    0.065321 0.870339 0.985997 0.270416
H14   H     H_    0.059868 0.847001 0.123728 0.265506
H15   H     H_    0.239237 0.237424 0.267250 0.159116
H16   H     H_    0.069441 0.304617 0.302819 0.139170
H17   H     H_    0.160616 0.056597 0.380914 0.223884
H18   H     H_    0.989926 0.121293 0.445708 0.209154
H19   H     H_    0.937408 0.116522 0.271646 0.277129
H20   H     H_    0.983176 0.964262 0.307534 0.256189
H21   H     H_    0.110714 0.054032 0.204082 0.270861
H22   H     H_    0.397293 0.912467 0.538136 0.147747
H23   H     H_    0.084192 0.568312 0.541261 0.105838
H24   H     H_    0.882449 0.311694 0.481864 0.179813
H25   H     H_    0.901791 0.584143 0.491907 0.153680
H26   H     H_    0.833354 0.356568 0.806185 0.147905
H27   H     H_    0.907026 0.428835 0.957278 0.137799
H28   H     H_    0.408515 0.469821 0.181911 0.186818
N1    N     N_2   0.148270 0.498670 0.498870 -0.216972
N2    N     N_2   0.852610 0.498640 0.498840 -0.204282
O1    O     O_R   0.386950 0.680940 0.500020 -0.619237
O2    O     O_3   0.173444 0.304207 0.421822 -0.603245
O3    O     O_R   0.613110 0.680900 0.499980 -0.615365
O4    O     O_R   0.330780 0.500000 0.653640 -0.614947
O5    O     O_R   0.556930 0.499960 0.653610 -0.608352
O6    O     O_R   0.386890 0.319100 0.500020 -0.555527
O7    O     O_R   0.613050 0.319060 0.499980 -0.633205
O8    O     O_R   0.443070 0.500040 0.346390 -0.602209
O9    O     O_R   0.669220 0.500000 0.346360 -0.574518
O10   O     O_3   0.872634 0.505089 0.154278 -0.658908
Zn1   Zn    Zn3+2 0.349000 0.500030 0.500020 0.969388
Zn2   Zn    Zn3+2 0.651000 0.499970 0.499980 0.937240

loop_
_geom_bond_atom_site_label_1
_geom_bond_atom_site_label_2
_ccdc_geom_bond_type
C12   C17   A    
C18   O10   S    
O9    Zn2   S    
C2    C4    S    
C11   O9    A    
O6    Zn1   S    
C23   C28   A    
C6    C7    D    
O5    Zn2   S    
C4    O4    A    
C22   H18   S    
C19   C20   S    
C18   H8    S    
C12   C25   A    
C3    C6    S    
O1    Zn1   S    
C24   H21   S    
C22   H17   S    
H23   N1    S    
C15   H2    S    
C10   O7    A    
H25   N2    S    
C11   O8    A    
C24   H20   S    
C2    C15   A    
C12   C23   A    
C26   C27   A    
C17   H3    S    
C3    H6    S    
C14   C30   A    
O8    Zn1   S    
C27   C28   A    
C1    O3    A    
C21   C22   S    
C20   H14   S    
C18   H7    S    
C7    H22   S    
C20   H11   S    
C21   H15   S    
C2    C23   A    
C10   O6    A    
C8    N1    D    
C25   C29   A    
C4    O5    A    
C11   C14   S    
C22   C24   S    
C13   C26   A    
C21   O2    S    
C13   H27   S    
C19   H10   S    
N2    Zn2   S    
C14   C29   A    
C15   C16   A    
C21   H16   S    
C3    C5    D    
C13   C30   A    
C5    C10   S    
C20   H13   S    
O3    Zn2   S    
C30   O10   S    
C19   H9    S    
C18   C19   S    
C6    H12   S    
O4    Zn1   S    
N1    Zn1   S    
C24   H19   S    
C27   H26   S    
C16   C17   A    
O7    Zn2   S    
C9    H24   S    
C16   H4    S    
C25   C26   A    
C1    C7    S    
C29   H28   S    
C28   H5    S    
C8    O2    S    
C8    C9    S    
C5    H1    S    
C9    N2    D    
C1    O1    A    
