data_mof_unit_29301.cif
_audit_creation_date              2012-12-10T17:46:24-0500
_audit_creation_method            fapswitch 2.2
_symmetry_space_group_name_H-M    P1
_symmetry_Int_Tables_number       1
_space_group_crystal_system       triclinic
_cell_length_a                    20.936265
_cell_length_b                    21.755478
_cell_length_c                    14.800183
_cell_angle_alpha                 90.522691
_cell_angle_beta                  128.666225
_cell_angle_gamma                 89.141627
_cell_volume                      5262.9024929

loop_
_atom_site_label
_atom_site_type_symbol
_atom_type_description
_atom_site_fract_x
_atom_site_fract_y
_atom_site_fract_z
_atom_type_partial_charge
C1    C     C_R   0.601550 0.912876 0.629828 0.863490
C2    C     C_R   0.397830 0.086622 0.369052 0.877512
C3    C     C_R   0.397988 0.913806 0.368832 0.849875
C4    C     C_R   0.600723 0.087034 0.629637 0.871768
C5    C     C_R   0.101849 0.413060 0.630104 0.861167
C6    C     C_R   0.897472 0.586347 0.368628 0.872013
C7    C     C_R   0.897758 0.413825 0.368790 0.854483
C8    C     C_R   0.100865 0.586830 0.629804 0.866858
C9    C     C_R   0.249363 0.814994 0.849799 0.127926
C10   C     C_R   0.689156 0.211936 0.098681 0.134939
C11   C     C_R   0.641164 0.746616 0.030137 0.173723
C12   C     C_R   0.321536 0.215822 0.911288 0.160378
C13   C     C_R   0.770122 0.307297 0.868249 0.160114
C14   C     C_R   0.191959 0.711005 0.099874 0.135280
C15   C     C_R   0.153287 0.259419 0.048314 0.192667
C16   C     C_R   0.832955 0.725785 0.927335 0.164245
C17   C     C_R   0.322104 0.007284 0.666206 0.537065
C18   C     C_R   0.672828 0.971430 0.330333 0.567750
C19   C     C_R   0.822870 0.506314 0.668547 0.554065
C20   C     C_R   0.174738 0.478410 0.330806 0.574940
C21   C     C_R   0.349977 0.003643 0.601872 0.131492
C22   C     C_R   0.648290 0.988243 0.395956 0.141253
C23   C     C_R   0.849903 0.501955 0.602831 0.127780
C24   C     C_R   0.149277 0.493449 0.396069 0.133710
C25   C     C_R   0.488150 0.998728 0.776316 0.785986
C26   C     C_R   0.512108 0.005060 0.224402 0.784641
C27   C     C_R   0.988624 0.497740 0.776318 0.784338
C28   C     C_R   0.010729 0.498823 0.223949 0.789230
C29   C     C_R   0.460935 0.995594 0.844324 -0.199166
C30   C     C_R   0.534394 0.988628 0.153138 -0.208888
C31   C     C_R   0.961931 0.497055 0.845021 -0.194207
C32   C     C_R   0.036312 0.494107 0.154118 -0.214433
C33   C     C_R   0.376787 0.005355 0.785900 -0.186064
C34   C     C_R   0.616666 0.971121 0.210206 -0.188111
C35   C     C_R   0.878607 0.509108 0.787873 -0.177635
C36   C     C_R   0.118658 0.477420 0.210851 -0.176464
C37   C     C_R   0.512580 0.984137 0.966810 -0.080636
C38   C     C_R   0.480306 0.991471 0.028779 -0.075534
C39   C     C_R   0.013533 0.487079 0.967552 -0.072244
C40   C     C_R   0.984104 0.502738 0.031050 -0.090132
C41   C     C_R   0.394896 0.998434 0.963180 0.620324
C42   C     C_R   0.592790 0.960209 0.028317 0.612519
C43   C     C_R   0.905160 0.529139 0.969133 0.614166
C44   C     C_R   0.091399 0.459137 0.028147 0.607763
C45   C     C_R   0.345677 0.008626 0.845804 -0.208349
C46   C     C_R   0.643581 0.954785 0.147467 -0.178364
C47   C     C_R   0.851525 0.526794 0.849784 -0.173584
C48   C     C_R   0.144274 0.457848 0.147794 -0.148643
C49   C     C_R   0.648864 0.142222 0.692597 -0.268396
C50   C     C_R   0.342022 0.863187 0.297695 -0.273435
C51   C     C_R   0.339743 0.136375 0.293742 -0.272277
C52   C     C_R   0.656586 0.860424 0.698643 -0.279551
C53   C     C_R   0.148199 0.642277 0.691572 -0.267816
C54   C     C_R   0.840245 0.363891 0.296846 -0.271815
C55   C     C_R   0.837249 0.634438 0.290762 -0.273721
C56   C     C_R   0.156388 0.360208 0.697979 -0.282478
C57   C     C_R   0.703004 0.240343 0.695495 0.526210
C58   C     C_R   0.258667 0.778684 0.272457 0.515289
C59   C     C_R   0.241054 0.215797 0.246818 0.529344
C60   C     C_R   0.762223 0.787395 0.746970 0.537092
C61   C     C_R   0.200467 0.740294 0.691167 0.528293
C62   C     C_R   0.749714 0.283376 0.265551 0.517579
C63   C     C_R   0.723684 0.702276 0.227606 0.531337
C64   C     C_R   0.251321 0.280021 0.733567 0.531309
C65   C     C_R   0.664615 0.185462 0.639674 0.558252
C66   C     C_R   0.307392 0.828602 0.335931 0.564778
C67   C     C_R   0.301174 0.173236 0.325166 0.546603
C68   C     C_R   0.706939 0.834023 0.676449 0.547306
C69   C     C_R   0.164347 0.684630 0.638208 0.550990
C70   C     C_R   0.800561 0.332289 0.330677 0.560819
C71   C     C_R   0.788266 0.664369 0.311933 0.542429
C72   C     C_R   0.199559 0.329248 0.667464 0.551049
C73   C     C_R   0.669214 0.155568 0.800212 -0.301947
C74   C     C_R   0.325182 0.848151 0.192700 -0.295513
C75   C     C_R   0.326079 0.149065 0.190268 -0.271489
C76   C     C_R   0.657002 0.835334 0.785773 -0.264596
C77   C     C_R   0.168875 0.656136 0.799104 -0.307200
C78   C     C_R   0.825618 0.347237 0.194183 -0.298324
C79   C     C_R   0.828955 0.650556 0.192532 -0.265089
C80   C     C_R   0.162117 0.338695 0.791468 -0.281918
C81   C     C_R   0.702766 0.212721 0.855374 0.008218
C82   C     C_R   0.272332 0.799536 0.122604 0.008870
C83   C     C_R   0.272947 0.196719 0.115984 -0.008512
C84   C     C_R   0.709484 0.785957 0.854978 -0.011548
C85   C     C_R   0.199317 0.714382 0.851195 0.005019
C86   C     C_R   0.770909 0.299770 0.122563 0.006162
C87   C     C_R   0.771284 0.694960 0.113464 -0.008726
C88   C     C_R   0.210235 0.286694 0.855924 -0.010345
C89   C     C_R   0.726779 0.253495 0.806773 -0.122525
C90   C     C_R   0.240599 0.762525 0.165264 -0.130198
C91   C     C_R   0.221604 0.224355 0.137277 -0.116237
C92   C     C_R   0.768546 0.765499 0.842321 -0.105739
C93   C     C_R   0.217305 0.756954 0.797330 -0.103434
C94   C     C_R   0.735788 0.264647 0.162216 -0.125891
C95   C     C_R   0.711314 0.715062 0.123891 -0.111098
C96   C     C_R   0.261308 0.260033 0.832848 -0.094773
C97   C     C_R   0.712856 0.230120 0.957103 0.082872
C98   C     C_R   0.252342 0.786164 0.012870 0.088931
C99   C     C_R   0.269082 0.217103 0.021152 0.091122
C100  C     C_R   0.706858 0.758785 0.939929 0.086360
C101  C     C_R   0.211530 0.731145 0.954701 0.083504
C102  C     C_R   0.753851 0.285023 0.015394 0.080388
C103  C     C_R   0.770657 0.718444 0.023237 0.085101
C104  C     C_R   0.210392 0.262353 0.945129 0.075254
C105  C     C_R   0.268283 0.827843 0.956942 -0.222130
C106  C     C_R   0.678913 0.195936 0.998094 -0.183165
C107  C     C_R   0.640385 0.768772 0.940888 -0.164805
C108  C     C_R   0.325297 0.196355 0.004496 -0.194855
C109  C     C_R   0.776252 0.324358 0.964648 -0.188848
C110  C     C_R   0.179930 0.695896 0.997778 -0.181982
C111  C     C_R   0.150461 0.279751 0.956467 -0.139524
C112  C     C_R   0.834357 0.705206 0.017798 -0.152951
Cu1   Cu    Cu3+1 0.526640 0.000000 0.436960 1.049634
Cu2   Cu    Cu3+1 0.473360 0.000000 0.563040 1.048512
Cu3   Cu    Cu3+1 0.026640 0.500000 0.436960 1.050816
Cu4   Cu    Cu3+1 0.973360 0.500000 0.563040 1.047765
H1    H     H_    0.356385 0.873979 0.169257 0.217426
H2    H     H_    0.658438 0.119928 0.839153 0.216570
H3    H     H_    0.618229 0.856734 0.801987 0.237338
H4    H     H_    0.356135 0.120116 0.167635 0.252033
H5    H     H_    0.860408 0.370632 0.174198 0.218439
H6    H     H_    0.160644 0.620014 0.840191 0.214083
H7    H     H_    0.130500 0.364704 0.815379 0.246738
H8    H     H_    0.866500 0.626297 0.177131 0.248095
H9    H     H_    0.291525 0.872958 0.992175 0.194906
H10   H     H_    0.640657 0.157720 0.948870 0.175231
H11   H     H_    0.584989 0.791528 0.869590 0.159329
H12   H     H_    0.375420 0.166118 0.065985 0.168743
H13   H     H_    0.798455 0.369775 0.998439 0.175012
H14   H     H_    0.141532 0.657765 0.948443 0.175812
H15   H     H_    0.097589 0.306716 0.890588 0.176768
H16   H     H_    0.888262 0.680115 0.086004 0.176989
H17   H     H_    0.280608 0.014519 0.800132 0.227873
H18   H     H_    0.705119 0.937183 0.190892 0.238009
H19   H     H_    0.789289 0.543058 0.805343 0.226851
H20   H     H_    0.205342 0.439202 0.191247 0.237050
N1    N     N_R   0.433280 0.000000 0.657760 -0.278950
N2    N     N_R   0.566720 0.000000 0.342240 -0.276630
N3    N     N_R   0.933280 0.500000 0.657760 -0.279343
N4    N     N_R   0.066720 0.500000 0.342240 -0.276812
O1    O     O_R   0.600040 0.935040 0.546740 -0.568104
O2    O     O_R   0.399960 0.064960 0.453260 -0.569456
O3    O     O_R   0.399960 0.935040 0.453260 -0.568253
O4    O     O_R   0.600040 0.064960 0.546740 -0.566508
O5    O     O_R   0.100040 0.435040 0.546740 -0.566936
O6    O     O_R   0.899960 0.564960 0.453260 -0.563427
O7    O     O_R   0.899960 0.435040 0.453260 -0.570905
O8    O     O_R   0.100040 0.564960 0.546740 -0.564913
O9    O     O_R   0.555010 0.935070 0.653220 -0.538481
O10   O     O_R   0.444990 0.064930 0.346780 -0.513709
O11   O     O_R   0.444990 0.935070 0.346780 -0.562578
O12   O     O_R   0.555010 0.064930 0.653220 -0.532085
O13   O     O_R   0.055010 0.435070 0.653220 -0.537581
O14   O     O_R   0.944990 0.564930 0.346780 -0.535280
O15   O     O_R   0.944990 0.435070 0.346780 -0.537623
O16   O     O_R   0.055010 0.564930 0.653220 -0.536782
C113  C     C_3   0.263045 0.865448 0.794135 -0.281925
C114  C     C_3   0.343728 0.855581 0.814812 -0.678211
H21   H     H_    0.394580 0.872971 0.901839 0.211876
H22   H     H_    0.355813 0.806291 0.809922 0.271242
H23   H     H_    0.342336 0.880975 0.749012 0.261970
H24   H     H_    0.210423 0.870052 0.700836 0.268799
H25   H     H_    0.264237 0.910572 0.830083 0.206982
C115  C     C_3   0.653290 0.171887 0.141021 -0.306189
C116  C     C_3   0.607981 0.114454 0.071030 -0.884373
H26   H     H_    0.553804 0.125962 0.981168 0.256078
H27   H     H_    0.649846 0.082719 0.070667 0.284228
H28   H     H_    0.585920 0.091247 0.112860 0.256985
H29   H     H_    0.704064 0.155821 0.230075 0.262716
H30   H     H_    0.609604 0.199937 0.143210 0.255976
C117  C     C_3   0.562015 0.749704 0.013588 -0.357752
C118  C     C_3   0.550675 0.811626 0.050736 -0.685453
H31   H     H_    0.607282 0.825646 0.136395 0.304677
H32   H     H_    0.534153 0.846582 0.985209 0.235304
H33   H     H_    0.500471 0.808815 0.056599 0.234734
H34   H     H_    0.509178 0.742012 0.920958 0.182348
H35   H     H_    0.558807 0.712029 0.060611 0.242166
C119  C     C_3   0.388172 0.192202 0.906528 -0.337908
C120  C     C_3   0.449012 0.242906 0.938350 -0.707376
H36   H     H_    0.418260 0.284250 0.883346 0.280411
H37   H     H_    0.482167 0.256804 0.029908 0.241262
H38   H     H_    0.493833 0.225930 0.927064 0.243364
H39   H     H_    0.423540 0.153788 0.968685 0.179931
H40   H     H_    0.361696 0.171715 0.821035 0.266848
C121  C     C_3   0.816008 0.345293 0.839704 -0.300178
C122  C     C_3   0.901056 0.363610 0.947740 -0.897464
H41   H     H_    0.896660 0.402297 0.992691 0.273357
H42   H     H_    0.932551 0.324554 0.009109 0.269833
H43   H     H_    0.938247 0.378009 0.922104 0.262346
H44   H     H_    0.827775 0.318555 0.787390 0.265376
H45   H     H_    0.779778 0.387203 0.790984 0.255431
C123  C     C_3   0.153945 0.672174 0.140159 -0.301344
C124  C     C_3   0.097934 0.620730 0.060441 -0.904309
H46   H     H_    0.046693 0.638279 0.973079 0.258053
H47   H     H_    0.133247 0.584771 0.054342 0.283270
H48   H     H_    0.071676 0.600700 0.098827 0.261510
H49   H     H_    0.203806 0.650593 0.224484 0.267079
H50   H     H_    0.116433 0.702633 0.151568 0.255331
C125  C     C_3   0.077450 0.269562 0.039262 -0.351853
C126  C     C_3   0.002607 0.238961 0.930376 -0.859088
H51   H     H_    0.980408 0.265353 0.851606 0.269648
H52   H     H_    0.017918 0.191144 0.922305 0.266576
H53   H     H_    0.952025 0.236772 0.935472 0.254198
H54   H     H_    0.083356 0.249350 0.112348 0.266226
H55   H     H_    0.066074 0.319652 0.037890 0.227546
C127  C     C_3   0.905554 0.708082 0.932122 -0.332856
C128  C     C_3   0.961863 0.762762 0.966836 -0.726795
H56   H     H_    0.927900 0.803556 0.911712 0.279316
H57   H     H_    0.992308 0.775535 0.058213 0.243003
H58   H     H_    0.009385 0.750233 0.958204 0.246792
H59   H     H_    0.942910 0.671258 0.997130 0.197187
H60   H     H_    0.885270 0.687336 0.849446 0.262734
F1    F     F_    0.354965 0.984017 0.004830 -0.654367
F2    F     F_    0.620344 0.934193 0.974712 -0.637682
F3    F     F_    0.879911 0.561034 0.020892 -0.661218
F4    F     F_    0.115659 0.428818 0.973622 -0.653014
F5    F     F_    0.323338 0.841116 0.438371 -0.602836
F6    F     F_    0.638100 0.176651 0.530194 -0.603163
F7    F     F_    0.704083 0.853675 0.587165 -0.607743
F8    F     F_    0.323627 0.169857 0.433006 -0.605789
F9    F     F_    0.813056 0.346842 0.430063 -0.608795
F10   F     F_    0.141619 0.673762 0.531257 -0.610643
F11   F     F_    0.192254 0.346401 0.573340 -0.596573
F12   F     F_    0.803275 0.657730 0.414602 -0.613686
F13   F     F_    0.216462 0.777209 0.634351 -0.611686
F14   F     F_    0.715206 0.255358 0.306845 -0.627245
F15   F     F_    0.677286 0.729188 0.252210 -0.617220
F16   F     F_    0.289216 0.251799 0.696284 -0.609621
F17   F     F_    0.707172 0.282949 0.632973 -0.604711
F18   F     F_    0.231543 0.746535 0.320374 -0.628924
F19   F     F_    0.209145 0.252896 0.284228 -0.605745
F20   F     F_    0.808222 0.764183 0.718882 -0.614304
F21   F     F_    0.439839 0.032378 0.179686 -0.625565
F22   F     F_    0.567964 0.007026 0.826588 -0.611634
F23   F     F_    0.930935 0.494007 0.176306 -0.617465
F24   F     F_    0.068866 0.503249 0.826499 -0.615177
C129  C     C_3   0.716367 0.996608 0.524714 -0.254154
C130  C     C_3   0.763267 0.055672 0.548509 -0.766981
H61   H     H_    0.720696 0.095772 0.510932 0.305970
H62   H     H_    0.809647 0.062638 0.643351 0.233290
H63   H     H_    0.795306 0.053202 0.510747 0.287751
H64   H     H_    0.696098 0.998436 0.576790 0.233471
H65   H     H_    0.759523 0.956799 0.559213 0.266881
C131  C     C_3   0.283227 0.003315 0.470916 -0.276594
C132  C     C_3   0.228054 0.060924 0.425837 -0.633882
H66   H     H_    0.260850 0.100619 0.484500 0.313509
H67   H     H_    0.206936 0.073055 0.338161 0.207997
H68   H     H_    0.172747 0.052493 0.418328 0.277669
H69   H     H_    0.305173 0.999286 0.421476 0.229294
H70   H     H_    0.244774 0.962094 0.446823 0.230941
C133  C     C_3   0.216769 0.498909 0.525662 -0.263167
C134  C     C_3   0.266673 0.557030 0.555620 -0.741134
H71   H     H_    0.225753 0.597962 0.516870 0.310060
H72   H     H_    0.310408 0.562947 0.651030 0.229428
H73   H     H_    0.302097 0.554059 0.523051 0.290386
H74   H     H_    0.195766 0.499412 0.576770 0.232198
H75   H     H_    0.258147 0.458079 0.557420 0.258176
C135  C     C_3   0.782921 0.498577 0.472017 -0.276670
C136  C     C_3   0.719125 0.550873 0.422575 -0.614553
H76   H     H_    0.745086 0.592279 0.478533 0.312924
H77   H     H_    0.696608 0.563362 0.334329 0.217980
H78   H     H_    0.665222 0.536084 0.414461 0.276616
H79   H     H_    0.805435 0.499461 0.423101 0.233010
H80   H     H_    0.751064 0.454024 0.450822 0.245332
F25   F     F_    0.240290 0.009369 0.611269 -0.665176
F26   F     F_    0.752679 0.956647 0.384420 -0.644833
F27   F     F_    0.741548 0.507324 0.616347 -0.654949
F28   F     F_    0.254898 0.464848 0.384921 -0.639922

loop_
_geom_bond_atom_site_label_1
_geom_bond_atom_site_label_2
_ccdc_geom_bond_type
C2    O10   A    
C12   C119  S    
C117  C118  S    
C88   C96   A    
C11   C117  S    
C113  C114  S    
C29   C33   A    
C33   C45   A    
Cu1   O11   S    
C5    C56   S    
C115  H30   S    
C135  H79   S    
C28   N4    A    
C21   N1    A    
C6    C55   S    
C136  H78   S    
C53   C69   A    
C76   C84   A    
C79   C87   A    
C119  C120  S    
C133  H74   S    
C121  H44   S    
C12   C96   A    
C24   N4    A    
C99   C108  A    
C130  H63   S    
C30   C38   A    
C116  H26   S    
C98   C105  A    
C57   C89   A    
C129  H64   S    
C42   F2    S    
Cu2   O2    S    
C23   N3    A    
C115  C116  S    
C35   C47   A    
C51   C75   A    
C66   F5    S    
C16   C127  S    
C50   C74   A    
C65   F6    S    
C6    O6    A    
C61   C93   A    
C12   C108  A    
C10   C94   A    
C9    C105  A    
Cu3   Cu4   S    
C63   C95   A    
C125  H55   S    
C70   F9    S    
C57   F17   S    
C131  C132  S    
C62   C70   A    
C69   F10   S    
C42   C46   A    
Cu2   N1    S    
C19   F27   S    
C37   C42   A    
C78   H5    S    
C14   C90   A    
C13   C109  A    
C77   H6    S    
C86   C94   A    
C114  H23   S    
C59   C67   A    
C85   C93   A    
C127  H59   S    
C58   C66   A    
C40   C43   A    
C119  H40   S    
C20   C24   A    
C23   C135  S    
Cu1   O1    S    
C126  H51   S    
C124  H47   S    
C87   C95   A    
C128  H58   S    
C17   F25   S    
C1    O9    A    
C34   C46   A    
C123  H50   S    
C18   C22   A    
C113  H25   S    
C119  H39   S    
C52   C68   A    
C118  H33   S    
C22   C129  S    
C81   C89   A    
C78   C86   A    
C32   C40   A    
C99   C104  A    
C43   F3    S    
C125  C126  S    
C116  H27   S    
C44   F4    S    
C129  C130  S    
C114  H22   S    
C82   C98   A    
C20   F28   S    
C115  H29   S    
C8    O8    A    
C17   C33   A    
C74   C82   A    
C32   C36   A    
C73   C81   A    
C88   C104  A    
C3    C50   S    
C118  H32   S    
C121  H45   S    
C7    O7    A    
C60   C92   A    
C25   C29   A    
C4    O12   A    
C130  H62   S    
C76   H3    S    
C5    O5    A    
C131  H69   S    
C30   C34   A    
C27   C31   A    
C128  H56   S    
C84   C100  A    
C15   C111  A    
C133  C134  S    
C68   F7    S    
C13   C121  S    
C64   C96   A    
C38   C41   A    
C39   C40   A    
C18   F26   S    
C129  H65   S    
C127  C128  S    
C63   F15   S    
C28   F23   S    
C56   C72   A    
C101  C110  A    
C62   F14   S    
C72   F11   S    
Cu3   O8    S    
C100  C103  A    
C27   N3    A    
C25   N1    A    
C103  C112  A    
C59   F19   S    
C117  H34   S    
C53   C77   A    
C37   C38   A    
C58   F18   S    
C46   H18   S    
C55   C79   A    
C14   C123  S    
C54   C70   A    
C22   N2    A    
C28   C32   A    
C124  H48   S    
C9    C113  S    
C3    O3    A    
C51   C67   A    
C123  H49   S    
C112  H16   S    
C84   C92   A    
C18   C34   A    
C41   F1    S    
Cu4   O13   S    
C6    O14   A    
C49   C65   A    
C27   F24   S    
C58   C90   A    
C134  H73   S    
C87   C103  A    
C97   C106  A    
C26   F21   S    
C111  H15   S    
C63   C71   A    
C25   F22   S    
C26   C30   A    
C116  H28   S    
C132  H67   S    
Cu3   O14   S    
C11   C107  A    
C125  H54   S    
C2    O2    A    
C49   C73   A    
C10   C106  A    
Cu4   O7    S    
C122  H42   S    
C136  H76   S    
C86   C102  A    
C9    C93   A    
C64   F16   S    
C85   C101  A    
C118  H31   S    
C16   C112  A    
C134  H72   S    
Cu1   Cu2   S    
C59   C91   A    
Cu2   O12   S    
C11   C95   A    
C14   C110  A    
C74   H1    S    
C106  H10   S    
C130  H61   S    
C67   F8    S    
C100  C107  A    
C10   C115  S    
C73   H2    S    
Cu3   O15   S    
C60   F20   S    
C3    O11   A    
Cu1   O10   S    
C48   H20   S    
C24   C133  S    
C135  H80   S    
C75   H4    S    
C97   C102  A    
C57   C65   A    
C26   N2    A    
C82   C90   A    
C8    C53   S    
C4    O4    A    
C104  C111  A    
C50   C66   A    
C16   C92   A    
C39   C44   A    
C21   C131  S    
C13   C89   A    
C98   C101  A    
C83   C91   A    
C79   H8    S    
Cu3   O5    S    
C110  H14   S    
C45   H17   S    
C56   C80   A    
Cu1   O4    S    
C105  H9    S    
C52   C76   A    
Cu2   O9    S    
C61   C69   A    
C123  C124  S    
Cu4   N3    S    
C122  H43   S    
C62   C94   A    
C135  C136  S    
C4    C49   S    
C71   F12   S    
C80   C88   A    
C136  H77   S    
C19   C35   A    
C133  H75   S    
Cu4   O6    S    
C75   C83   A    
C121  C122  S    
C114  H21   S    
C120  H38   S    
C81   C97   A    
C77   C85   A    
C126  H53   S    
C5    O13   A    
C31   C39   A    
C15   C125  S    
C36   C48   A    
C31   C35   A    
C47   H19   S    
C64   C72   A    
Cu2   O3    S    
C8    O16   A    
C1    C52   S    
C61   F13   S    
Cu4   O16   S    
C1    O1    A    
C2    C51   S    
C131  H70   S    
C15   C91   A    
C120  H36   S    
C20   C36   A    
C127  H60   S    
C19   C23   A    
C7    O15   A    
Cu3   N4    S    
C60   C68   A    
C126  H52   S    
C124  H46   S    
C132  H68   S    
C29   C37   A    
C128  H57   S    
C41   C45   A    
Cu1   N2    S    
C117  H35   S    
C102  C109  A    
C83   C99   A    
C107  H11   S    
C7    C54   S    
C120  H37   S    
C122  H41   S    
C132  H66   S    
C109  H13   S    
C43   C47   A    
C113  H24   S    
C55   C71   A    
C108  H12   S    
C44   C48   A    
C134  H71   S    
C54   C78   A    
C80   H7    S    
C17   C21   A    
