data_mof_unit_27223.cif
_audit_creation_date              2012-12-10T18:35:02-0500
_audit_creation_method            fapswitch 2.2
_symmetry_space_group_name_H-M    P1
_symmetry_Int_Tables_number       1
_space_group_crystal_system       triclinic
_cell_length_a                    15.135887
_cell_length_b                    13.860367
_cell_length_c                    10.802746
_cell_angle_alpha                 90.172145
_cell_angle_beta                  90.705752
_cell_angle_gamma                 90.00817
_cell_volume                      2266.11453612

loop_
_atom_site_label
_atom_site_type_symbol
_atom_type_description
_atom_site_fract_x
_atom_site_fract_y
_atom_site_fract_z
_atom_type_partial_charge
C1    C     C_R   0.330070 0.499994 0.499178 0.794430
C2    C     C_R   0.670180 0.499937 0.497403 0.789511
C3    C     C_R   0.233968 0.499961 0.495614 -0.029009
C4    C     C_R   0.766692 0.499583 0.490582 -0.054879
C5    C     C_R   0.187200 0.427287 0.556017 -0.179769
C6    C     C_R   0.812994 0.411998 0.487694 -0.171715
C7    C     C_R   0.095376 0.427478 0.552999 -0.147819
C8    C     C_R   0.904727 0.411787 0.483172 -0.154611
C9    C     C_R   0.049166 0.498910 0.486547 0.101810
C10   C     C_R   0.951780 0.499151 0.483886 0.083589
C11   C     C_R   0.541082 0.108094 0.595961 -0.264906
C12   C     C_R   0.459807 0.107700 0.403205 -0.263030
C13   C     C_R   0.540671 0.209576 0.593900 0.084446
C14   C     C_R   0.459699 0.209182 0.405762 0.091989
C15   C     C_R   0.500528 0.054651 0.499492 0.131901
C16   C     C_R   0.432935 0.891970 0.439518 -0.270998
C17   C     C_R   0.567898 0.892096 0.559523 -0.236792
C18   C     C_R   0.434324 0.790506 0.440093 0.086779
C19   C     C_R   0.565957 0.790654 0.559479 0.109254
C20   C     C_R   0.500511 0.945275 0.499440 0.109167
C21   C     C_R   0.503748 0.499926 0.262512 0.785925
C22   C     C_R   0.505179 0.500264 0.737609 0.792870
C23   C     C_R   0.632201 0.620315 0.133394 -0.345369
C24   C     C_R   0.633816 0.621558 0.876282 -0.326256
C25   C     C_R   0.688619 0.684016 0.073111 0.316770
C26   C     C_R   0.691163 0.683074 0.942476 0.391079
C27   C     C_R   0.572060 0.562156 0.937054 0.033769
C28   C     C_R   0.571607 0.561420 0.067630 0.047831
C29   C     C_R   0.511826 0.499682 0.129060 -0.050205
C30   C     C_R   0.512578 0.500557 0.871605 -0.055864
C31   C     C_R   0.457536 0.436408 0.062429 -0.201800
C32   C     C_R   0.457895 0.436866 0.934912 -0.196121
C33   C     C_R   0.096697 0.570802 0.424500 -0.143389
C34   C     C_R   0.905087 0.586707 0.484407 -0.104551
C35   C     C_R   0.188501 0.572025 0.430464 -0.177899
C36   C     C_R   0.813317 0.586759 0.485668 -0.069367
Cu1   Cu    Cu3+1 0.500000 0.596430 0.500000 0.956007
Cu2   Cu    Cu3+1 0.500000 0.403570 0.500000 0.946294
H1    H     H_    0.412580 0.388320 0.109434 0.146287
H2    H     H_    0.413188 0.388986 0.885193 0.153148
H3    H     H_    0.378261 0.927848 0.393649 0.137097
H4    H     H_    0.622762 0.928008 0.605223 0.168585
H5    H     H_    0.382230 0.751124 0.392751 0.124506
H6    H     H_    0.617840 0.751375 0.606719 0.173355
H7    H     H_    0.637572 0.616706 0.232879 0.211040
H8    H     H_    0.638989 0.619810 0.776806 0.206406
H9    H     H_    0.063169 0.625576 0.370343 0.151590
H10   H     H_    0.939220 0.655328 0.486279 0.145952
H11   H     H_    0.224051 0.627997 0.382055 0.141416
H12   H     H_    0.778964 0.655142 0.484476 0.209251
H13   H     H_    0.221673 0.371587 0.607576 0.147691
H14   H     H_    0.778494 0.343549 0.488943 0.164623
H15   H     H_    0.060754 0.372488 0.604244 0.135411
H16   H     H_    0.938661 0.343130 0.479105 0.138133
H17   H     H_    0.572119 0.072311 0.673953 0.149557
H18   H     H_    0.429001 0.071612 0.324989 0.134634
H19   H     H_    0.572875 0.248976 0.668287 0.132230
H20   H     H_    0.427472 0.248279 0.331434 0.121997
N1    N     N_R   0.500000 0.258690 0.500000 -0.176606
N2    N     N_R   0.500000 0.741330 0.500000 -0.186537
O1    O     O_R   0.371460 0.581430 0.500010 -0.584942
O2    O     O_R   0.628540 0.581430 0.499990 -0.588874
O3    O     O_R   0.371470 0.418560 0.500010 -0.583452
O4    O     O_R   0.628530 0.418560 0.499990 -0.584679
O5    O     O_R   0.500000 0.581450 0.319650 -0.587930
O6    O     O_R   0.500000 0.581450 0.680350 -0.578341
O7    O     O_R   0.500010 0.418580 0.319650 -0.588104
O8    O     O_R   0.499990 0.418580 0.680350 -0.592218
S1    S     S_3+6 0.754613 0.761454 0.167227 0.056178
O9    O     O_2   0.845754 0.719337 0.179443 -0.229670
O10   O     O_2   0.760962 0.860535 0.112004 -0.201555
O11   O     O_3   0.711250 0.771322 0.309350 -0.557854
H21   H     H_    0.653474 0.803548 0.296299 0.347012
S2    S     S_3+6 0.764679 0.756351 0.857603 0.036380
O12   O     O_2   0.729169 0.857575 0.853686 -0.275486
O13   O     O_2   0.854870 0.756636 0.917305 -0.197819
O14   O     O_3   0.773665 0.714933 0.712182 -0.599792
H22   H     H_    0.809163 0.764244 0.669003 0.372310

loop_
_geom_bond_atom_site_label_1
_geom_bond_atom_site_label_2
_ccdc_geom_bond_type
C4    C36   A    
C23   H7    S    
C24   C27   A    
Cu1   O2    S    
C36   H12   S    
O14   H22   S    
C14   N1    A    
S2    O13   D    
C28   C29   A    
C24   C26   A    
C13   H19   S    
C17   C20   A    
S1    O10   D    
C17   H4    S    
C22   O6    A    
C17   C19   A    
C11   C15   A    
S2    O14   S    
Cu1   O5    S    
C35   H11   S    
C9    C10   S    
C23   C25   A    
C26   S2    S    
C21   O7    A    
C27   C30   A    
C9    C33   A    
C1    O3    A    
C2    O4    A    
Cu2   O4    S    
C15   C20   S    
C14   H20   S    
S2    O12   D    
C4    C6    A    
C8    H16   S    
C5    C7    A    
C6    C8    A    
C25   C26   A    
C21   C29   S    
C1    C3    S    
S1    O11   S    
C2    C4    S    
Cu1   Cu2   S    
C31   C32   A    
C12   C15   A    
C3    C35   A    
C16   C20   A    
Cu1   O6    S    
C10   C34   A    
C23   C28   A    
C22   O8    A    
C12   H18   S    
C18   N2    A    
C12   C14   A    
C33   H9    S    
C25   S1    S    
C7    H15   S    
C11   H17   S    
C19   H6    S    
Cu2   O3    S    
C7    C9    A    
C22   C30   S    
C21   O5    A    
C8    C10   A    
Cu2   O8    S    
O11   H21   S    
C3    C5    A    
C1    O1    A    
Cu1   O1    S    
C13   N1    A    
C19   N2    A    
C24   H8    S    
C29   C31   A    
C18   H5    S    
C30   C32   A    
C11   C13   A    
C33   C35   A    
C31   H1    S    
C34   C36   A    
C32   H2    S    
S1    O9    D    
Cu1   N2    S    
Cu2   N1    S    
C34   H10   S    
Cu2   O7    S    
C16   C18   A    
C27   C28   A    
C5    H13   S    
C6    H14   S    
C16   H3    S    
C2    O2    A    
