data_mof_unit_49350.cif
_audit_creation_date              2012-12-10T16:32:38-0500
_audit_creation_method            fapswitch 2.2
_symmetry_space_group_name_H-M    P1
_symmetry_Int_Tables_number       1
_space_group_crystal_system       triclinic
_cell_length_a                    16.947983
_cell_length_b                    16.927222
_cell_length_c                    16.988796
_cell_angle_alpha                 65.522475
_cell_angle_beta                  65.562161
_cell_angle_gamma                 65.558652
_cell_volume                      3861.75637299

loop_
_atom_site_label
_atom_site_type_symbol
_atom_type_description
_atom_site_fract_x
_atom_site_fract_y
_atom_site_fract_z
_atom_type_partial_charge
C1    C     C_R   0.590503 0.035482 0.589980 0.186541
C2    C     C_R   0.821660 0.565098 0.031595 0.906591
C3    C     C_R   0.433994 0.971025 0.177509 0.907746
C4    C     C_R   0.564979 0.031442 0.821910 0.904279
C5    C     C_R   0.562972 0.821545 0.036260 0.898313
C6    C     C_R   0.436027 0.178314 0.966362 0.910597
C7    C     C_R   0.035079 0.563568 0.821587 0.904090
C8    C     C_R   0.967433 0.435621 0.178244 0.908349
C9    C     C_R   0.821841 0.032705 0.564419 0.911600
C10   C     C_R   0.178143 0.967507 0.435614 0.909082
C11   C     C_R   0.542546 0.023822 0.540851 -0.257533
C12   C     C_R   0.403389 0.984147 0.403025 0.244281
C13   C     C_R   0.451617 0.000707 0.448235 -0.239397
C14   C     C_R   0.034899 0.535890 0.541373 -0.236338
C15   C     C_R   0.998534 0.451650 0.451327 -0.229339
C16   C     C_R   0.538337 0.543487 0.027776 -0.267510
C17   C     C_R   0.456349 0.452025 0.990068 -0.267560
C18   C     C_R   0.584203 0.954613 0.498124 0.327679
C19   C     C_R   0.408209 0.068873 0.492677 0.321220
C20   C     C_R   0.962406 0.497539 0.584267 0.296455
C21   C     C_R   0.071425 0.490142 0.407797 0.317943
C22   C     C_R   0.494989 0.588612 0.958672 0.344958
C23   C     C_R   0.050080 0.584489 0.587627 0.198246
C24   C     C_R   0.499244 0.406566 0.059586 0.333104
C25   C     C_R   0.541672 0.947269 0.446630 0.329155
C26   C     C_R   0.455486 0.082395 0.535873 0.295613
C27   C     C_R   0.456568 0.542450 0.938631 0.335107
C28   C     C_R   0.538711 0.453181 0.078913 0.294559
C29   C     C_R   0.945405 0.453461 0.540659 0.317128
C30   C     C_R   0.090311 0.530544 0.453890 0.292763
C31   C     C_R   0.549918 0.036902 0.680003 -0.152076
C32   C     C_R   0.442590 0.982686 0.313404 -0.138348
C33   C     C_R   0.047622 0.676080 0.547723 -0.158009
C34   C     C_R   0.979172 0.406399 0.404763 0.250416
C35   C     C_R   0.976864 0.316490 0.444839 -0.152388
C36   C     C_R   0.677454 0.549758 0.041838 -0.159908
C37   C     C_R   0.318595 0.447211 0.970883 -0.147563
C38   C     C_R   0.317765 0.970586 0.447747 -0.162173
C39   C     C_R   0.679500 0.040356 0.548741 -0.178527
C40   C     C_R   0.451440 0.319559 0.961674 -0.175507
C41   C     C_R   0.543731 0.676892 0.054348 -0.179501
C42   C     C_R   0.968008 0.449809 0.318120 -0.157575
C43   C     C_R   0.054474 0.543804 0.676855 -0.163247
C44   C     C_R   0.598050 0.044842 0.726082 -0.091708
C45   C     C_R   0.585613 0.589184 0.045470 0.176271
C46   C     C_R   0.398868 0.963434 0.271639 -0.081298
C47   C     C_R   0.050265 0.724535 0.596903 -0.094317
C48   C     C_R   0.960470 0.273070 0.400214 -0.081710
C49   C     C_R   0.724914 0.597758 0.047982 -0.091814
C50   C     C_R   0.273674 0.401144 0.958002 -0.085535
C51   C     C_R   0.273435 0.957161 0.401697 -0.083728
C52   C     C_R   0.725817 0.046766 0.597428 -0.086994
C53   C     C_R   0.403116 0.274302 0.952939 -0.079428
C54   C     C_R   0.594673 0.724564 0.055094 -0.095009
C55   C     C_R   0.955960 0.402549 0.273770 -0.083116
C56   C     C_R   0.408763 0.406306 0.972710 0.196034
C57   C     C_R   0.054117 0.595148 0.724735 -0.103415
C58   C     C_R   0.682931 0.055236 0.682856 -0.267610
C59   C     C_R   0.316883 0.946751 0.317102 -0.263607
C60   C     C_R   0.059193 0.682177 0.682400 -0.261843
C61   C     C_R   0.945401 0.317800 0.317610 -0.263741
C62   C     C_R   0.681813 0.682345 0.059654 -0.252814
C63   C     C_R   0.317644 0.317562 0.944476 -0.268906
C64   C     C_3   0.436509 0.229492 0.517571 0.128076
C65   C     C_3   0.395869 0.300376 0.567607 -0.858112
C66   C     C_3   0.661224 0.897686 0.331755 0.137986
C67   C     C_R   0.970169 0.177857 0.434432 0.905428
C68   C     C_3   0.688349 0.842373 0.268412 -0.850113
C69   C     C_3   0.239682 0.504372 0.432112 0.133796
C70   C     C_3   0.314827 0.549570 0.388231 -0.854647
C71   C     C_3   0.879937 0.346980 0.658780 0.143190
C72   C     C_3   0.820659 0.289995 0.677912 -0.864379
C73   C     C_3   0.515421 0.423133 0.229074 0.147152
C74   C     C_3   0.561139 0.371329 0.303820 -0.865766
C75   C     C_3   0.475232 0.562877 0.791258 0.116625
C76   C     C_3   0.449113 0.636287 0.708905 -0.808990
C77   C     C_3   0.257197 0.126907 0.564763 0.143753
C78   C     C_R   0.032589 0.821609 0.564620 0.907106
C79   C     C_3   0.165224 0.169470 0.547262 -0.842539
C80   C     C_3   0.650293 0.819273 0.587991 0.123824
C81   C     C_3   0.655274 0.738188 0.566321 -0.841113
C82   C     C_3   0.574640 0.255072 0.111085 0.136509
C83   C     C_3   0.559330 0.161982 0.156609 -0.835077
C84   C     C_3   0.559571 0.697419 0.846737 0.102357
C85   C     C_3   0.552187 0.797184 0.820342 -0.818770
C86   C     C_3   0.130979 0.558515 0.256356 0.134209
C87   C     C_3   0.172768 0.538972 0.165584 -0.814322
C88   C     C_3   0.836308 0.582670 0.664823 0.134902
C89   C     C_R   0.178058 0.434680 0.969525 0.908684
C90   C     C_3   0.803361 0.607921 0.751529 -0.858869
H1    H     H_    0.482972 0.027878 0.714840 0.178475
H2    H     H_    0.473758 0.710105 0.054108 0.194117
H3    H     H_    0.971918 0.518564 0.284224 0.150370
H4    H     H_    0.052348 0.474274 0.710482 0.180629
H5    H     H_    0.719072 0.061301 0.718974 0.185636
H6    H     H_    0.283175 0.933872 0.283427 0.183152
H7    H     H_    0.060492 0.720189 0.719685 0.188537
H8    H     H_    0.934090 0.283227 0.283592 0.182231
H9    H     H_    0.719263 0.719242 0.062672 0.185119
H10   H     H_    0.282144 0.282460 0.935836 0.184128
H11   H     H_    0.408036 0.256380 0.459861 0.168038
H12   H     H_    0.505721 0.999149 0.275563 0.161590
H13   H     H_    0.511318 0.217533 0.491273 0.143264
H14   H     H_    0.421844 0.274175 0.626724 0.267687
H15   H     H_    0.414674 0.363303 0.522286 0.202442
H16   H     H_    0.320831 0.316543 0.591573 0.244100
H17   H     H_    0.719148 0.876346 0.358126 0.198864
H18   H     H_    0.649097 0.970792 0.291752 0.102221
H19   H     H_    0.632380 0.861169 0.240162 0.269587
H20   H     H_    0.749305 0.855610 0.211817 0.199235
H21   H     H_    0.704145 0.768833 0.305725 0.260300
H22   H     H_    0.261240 0.446556 0.405023 0.170748
H23   H     H_    0.038444 0.710462 0.480948 0.173963
H24   H     H_    0.229506 0.478291 0.506484 0.138349
H25   H     H_    0.294666 0.607897 0.413811 0.267667
H26   H     H_    0.377811 0.500526 0.404497 0.201624
H27   H     H_    0.328098 0.574342 0.313654 0.245638
H28   H     H_    0.856081 0.371661 0.718270 0.193100
H29   H     H_    0.951226 0.302269 0.651636 0.109815
H30   H     H_    0.841705 0.263374 0.620296 0.267443
H31   H     H_    0.827119 0.231846 0.739729 0.202783
H32   H     H_    0.748595 0.331883 0.688637 0.255248
H33   H     H_    0.457618 0.397282 0.246917 0.172043
H34   H     H_    0.991756 0.279336 0.508722 0.156994
H35   H     H_    0.489385 0.496430 0.225019 0.143628
H36   H     H_    0.619327 0.395534 0.287756 0.268936
H37   H     H_    0.512368 0.382155 0.368874 0.198817
H38   H     H_    0.585923 0.297563 0.310795 0.244983
H39   H     H_    0.469238 0.498532 0.794645 0.148739
H40   H     H_    0.547619 0.553307 0.781297 0.098629
H41   H     H_    0.454755 0.701523 0.703563 0.255760
H42   H     H_    0.495131 0.616539 0.646654 0.208488
H43   H     H_    0.378314 0.645491 0.714730 0.258436
H44   H     H_    0.260293 0.167351 0.600141 0.196873
H45   H     H_    0.712729 0.484187 0.029460 0.176303
H46   H     H_    0.261573 0.056095 0.609982 0.111457
H47   H     H_    0.159376 0.133473 0.509142 0.284924
H48   H     H_    0.110388 0.165251 0.612452 0.190726
H49   H     H_    0.156954 0.241990 0.507105 0.255557
H50   H     H_    0.584207 0.837954 0.639157 0.127796
H51   H     H_    0.704356 0.797948 0.619562 0.155925
H52   H     H_    0.719840 0.718976 0.514015 0.259677
H53   H     H_    0.651005 0.679937 0.628558 0.182253
H54   H     H_    0.597080 0.753710 0.542797 0.289199
H55   H     H_    0.612981 0.259821 0.147474 0.196697
H56   H     H_    0.282819 0.512891 0.982855 0.184471
H57   H     H_    0.616913 0.259670 0.039639 0.102580
H58   H     H_    0.516317 0.155145 0.126666 0.290952
H59   H     H_    0.625290 0.108218 0.147742 0.189402
H60   H     H_    0.524783 0.152970 0.230056 0.246132
H61   H     H_    0.566040 0.681986 0.786575 0.146272
H62   H     H_    0.621954 0.656789 0.868191 0.135156
H63   H     H_    0.539038 0.815815 0.880494 0.285790
H64   H     H_    0.616607 0.810565 0.771795 0.184270
H65   H     H_    0.495611 0.840274 0.790141 0.245982
H66   H     H_    0.173200 0.592504 0.258781 0.199847
H67   H     H_    0.284731 0.973317 0.516661 0.154082
H68   H     H_    0.061192 0.605874 0.259609 0.108426
H69   H     H_    0.134883 0.502063 0.160610 0.279057
H70   H     H_    0.170631 0.603610 0.109794 0.204010
H71   H     H_    0.244490 0.496614 0.158282 0.258796
H72   H     H_    0.780257 0.570815 0.657669 0.165090
H73   H     H_    0.855487 0.641373 0.607271 0.136245
H74   H     H_    0.860089 0.614015 0.763193 0.274513
H75   H     H_    0.750420 0.674330 0.745638 0.190070
H76   H     H_    0.775238 0.555273 0.809959 0.243209
H77   H     H_    0.713357 0.035997 0.480197 0.174792
H78   H     H_    0.520820 0.286102 0.963058 0.156288
O1    O     O_R   0.982940 0.138950 0.510160 -0.648208
O2    O     O_R   0.982940 0.510160 0.138950 -0.648246
O3    O     O_R   0.861050 0.017060 0.489840 -0.633346
O4    O     O_R   0.138950 0.982940 0.510160 -0.646324
O5    O     O_R   0.867700 0.025880 0.612340 -0.630508
O6    O     O_R   0.132300 0.974120 0.387660 -0.626113
O7    O     O_R   0.025880 0.612340 0.867700 -0.627682
O8    O     O_R   0.974120 0.387660 0.132300 -0.625855
O9    O     O_R   0.612340 0.867700 0.025880 -0.626830
O10   O     O_R   0.387660 0.132300 0.974120 -0.626100
O11   O     O_R   0.387660 0.974120 0.132300 -0.626523
O12   O     O_R   0.017060 0.861050 0.489840 -0.633787
O13   O     O_R   0.612340 0.025880 0.867700 -0.629555
O14   O     O_R   0.132300 0.387660 0.974120 -0.630709
O15   O     O_R   0.867700 0.612340 0.025880 -0.630497
O16   O     O_R   0.974120 0.132300 0.387660 -0.627856
O17   O     O_R   0.025880 0.867700 0.612340 -0.629224
O18   O     O_3   0.414190 0.149508 0.578462 -0.617826
O19   O     O_3   0.583213 0.880368 0.403117 -0.591802
O20   O     O_3   0.160400 0.569356 0.411434 -0.617844
O21   O     O_3   0.870444 0.421108 0.580216 -0.595419
O22   O     O_3   0.579939 0.409485 0.147093 -0.619794
O23   O     O_R   0.138950 0.510160 0.982940 -0.640545
O24   O     O_3   0.415788 0.588934 0.869917 -0.570072
O25   O     O_3   0.325747 0.130192 0.480899 -0.587385
O26   O     O_3   0.666139 0.891796 0.508450 -0.620577
O27   O     O_3   0.489414 0.322158 0.117040 -0.582763
O28   O     O_3   0.480703 0.680927 0.916281 -0.565893
O29   O     O_3   0.131330 0.475453 0.326152 -0.589074
O30   O     O_3   0.908753 0.501860 0.670446 -0.618641
O31   O     O_R   0.861050 0.489840 0.017060 -0.633694
O32   O     O_R   0.510160 0.982940 0.138950 -0.652607
O33   O     O_R   0.489840 0.017060 0.861050 -0.636479
O34   O     O_R   0.489840 0.861050 0.017060 -0.639193
O35   O     O_R   0.510160 0.138950 0.982940 -0.648175
O36   O     O_R   0.017060 0.489840 0.861050 -0.629659
Zn1   Zn    Zn3+2 0.004880 0.004880 0.583590 0.930732
Zn2   Zn    Zn3+2 0.995120 0.995120 0.416410 0.953338
Zn3   Zn    Zn3+2 0.004880 0.583590 0.004880 0.940488
Zn4   Zn    Zn3+2 0.995120 0.416410 0.995120 0.954554
Zn5   Zn    Zn3+2 0.583590 0.004880 0.004880 0.923467
Zn6   Zn    Zn3+2 0.416410 0.995120 0.995120 0.957921

loop_
_geom_bond_atom_site_label_1
_geom_bond_atom_site_label_2
_ccdc_geom_bond_type
C16   C28   A    
C64   H13   S    
C66   C68   S    
C11   C18   A    
C10   O6    A    
C6    O10   A    
C72   H31   S    
C18   O26   S    
C42   H3    S    
O15   Zn3   S    
C73   C74   S    
O33   Zn6   S    
C79   H49   S    
C61   H8    S    
C34   C42   A    
O7    Zn3   S    
C66   H17   S    
C75   C76   S    
C13   C25   A    
C82   H57   S    
C48   C61   A    
O16   Zn2   S    
C27   O24   S    
C67   O1    A    
C9    C52   S    
O11   Zn6   S    
C7    O36   A    
C78   O12   A    
O4    Zn1   S    
O34   Zn6   S    
O1    Zn1   S    
C46   C59   A    
C69   H22   S    
C3    O11   A    
C35   C48   A    
C70   H27   S    
O9    Zn5   S    
C1    C31   A    
C43   H4    S    
C23   C43   A    
C87   H70   S    
O10   Zn6   S    
O13   Zn5   S    
C34   C35   A    
C85   H65   S    
C88   O30   S    
C19   C26   A    
C86   H66   S    
C53   C63   A    
C77   O25   S    
C25   O19   S    
C47   C60   A    
C37   C56   A    
C81   H54   S    
C74   H38   S    
O36   Zn4   S    
C44   C58   A    
C40   C56   A    
C7    O7    A    
C79   H48   S    
C9    O5    A    
C77   H46   S    
C37   H56   S    
C15   C34   S    
O14   Zn4   S    
C73   O22   S    
C75   H40   S    
C68   H19   S    
C83   H60   S    
C85   H64   S    
C39   C52   A    
C66   O19   S    
C12   C32   A    
C39   H77   S    
C50   C63   A    
C22   O28   S    
C18   C25   A    
C14   C30   A    
O12   Zn2   S    
C10   C51   S    
C8    C55   S    
C65   H15   S    
C8    O2    A    
C15   C29   A    
C20   C29   A    
C77   C79   S    
C64   H11   S    
C69   H24   S    
C17   C24   A    
C31   C44   A    
C13   C19   A    
C2    O31   A    
C17   C27   A    
O17   Zn1   S    
C5    C54   S    
C84   C85   S    
C60   H7    S    
C66   H18   S    
C5    O34   A    
C1    C39   A    
C86   C87   S    
C57   C60   A    
C85   H63   S    
C38   C51   A    
C4    C44   S    
C11   C26   A    
C23   C33   A    
C80   H50   S    
C82   C83   S    
C62   H9    S    
C90   H74   S    
C68   H21   S    
C30   O20   S    
C14   C23   S    
C90   H76   S    
C58   H5    S    
C63   H10   S    
C2    C49   S    
C14   C20   A    
C42   C55   A    
C50   C89   S    
C74   H37   S    
C17   C56   S    
C15   C21   A    
C5    O9    A    
C72   H30   S    
C3    O32   A    
C89   O23   A    
C36   C45   A    
C78   O17   A    
C68   H20   S    
C47   C78   S    
C71   O21   S    
O3    Zn2   S    
C86   H68   S    
C69   O20   S    
C20   O30   S    
C82   O27   S    
C52   C58   A    
C84   H62   S    
C81   H52   S    
C79   H47   S    
C88   C90   S    
C19   O25   S    
C4    O13   A    
C31   H1    S    
C22   C27   A    
C90   H75   S    
C33   C47   A    
C29   O21   S    
C9    O3    A    
C51   C59   A    
C77   H44   S    
C6    C53   S    
C36   H45   S    
C65   H16   S    
C82   H55   S    
C80   O26   S    
O2    Zn3   S    
C35   H34   S    
C16   C22   A    
C49   C62   A    
C71   H28   S    
C72   H32   S    
O23   Zn3   S    
C32   C46   A    
C24   C28   A    
C38   H67   S    
C21   O29   S    
C80   C81   S    
C28   O22   S    
C16   C45   S    
C76   H43   S    
C8    O8    A    
C70   H25   S    
C88   H73   S    
C54   C62   A    
C21   C30   A    
C3    C46   S    
C33   H23   S    
O32   Zn5   S    
C24   O27   S    
C71   H29   S    
C70   H26   S    
C89   O14   A    
O8    Zn4   S    
C75   O24   S    
C6    O35   A    
C87   H71   S    
C76   H42   S    
C37   C50   A    
C26   O18   S    
C4    O33   A    
C74   H36   S    
C84   O28   S    
C88   H72   S    
C55   C61   A    
C64   C65   S    
O31   Zn4   S    
C76   H41   S    
C87   H69   S    
C32   H12   S    
C2    O15   A    
C48   C67   S    
C12   C38   A    
C69   C70   S    
C41   C54   A    
C40   H78   S    
C67   O16   A    
C43   C57   A    
C86   O29   S    
C40   C53   A    
C83   H58   S    
C84   H61   S    
C81   H53   S    
C41   H2    S    
C71   C72   S    
C12   C13   S    
C73   H35   S    
C80   H51   S    
C59   H6    S    
O6    Zn2   S    
C41   C45   A    
O35   Zn5   S    
O5    Zn1   S    
C1    C11   S    
C65   H14   S    
C10   O4    A    
C7    C57   S    
C64   O18   S    
C36   C49   A    
C75   H39   S    
C83   H59   S    
C73   H33   S    
