data_mof_unit_45387.cif
_audit_creation_date              2012-12-10T18:23:19-0500
_audit_creation_method            fapswitch 2.2
_symmetry_space_group_name_H-M    P1
_symmetry_Int_Tables_number       1
_space_group_crystal_system       triclinic
_cell_length_a                    27.79
_cell_length_b                    10.649914
_cell_length_c                    9.487948
_cell_angle_alpha                 91.534694
_cell_angle_beta                  89.242493
_cell_angle_gamma                 89.831026
_cell_volume                      2806.79569209

loop_
_atom_site_label
_atom_site_type_symbol
_atom_type_description
_atom_site_fract_x
_atom_site_fract_y
_atom_site_fract_z
_atom_type_partial_charge
C1    C     C_R   0.500278 0.259732 0.498566 0.877698
C2    C     C_R   0.500101 0.740239 0.501447 0.874579
C3    C     C_R   0.101843 0.490305 0.459376 -0.044048
C4    C     C_R   0.899266 0.506520 0.463581 -0.045198
C5    C     C_R   0.125245 0.379308 0.498703 -0.031302
C6    C     C_R   0.875131 0.622729 0.474944 -0.036338
C7    C     C_R   0.097994 0.271736 0.524013 -0.106932
C8    C     C_R   0.901999 0.733773 0.478261 -0.100955
C9    C     C_R   0.129163 0.598090 0.433259 -0.046627
C10   C     C_R   0.872649 0.394753 0.467379 -0.041858
C11   C     C_R   0.354538 0.490738 0.500554 -0.165231
C12   C     C_R   0.645532 0.507685 0.497915 -0.165708
C13   C     C_R   0.973824 0.384195 0.442685 -0.013655
C14   C     C_R   0.027486 0.608556 0.419671 -0.019664
C15   C     C_R   0.976703 0.614873 0.441635 0.058980
C16   C     C_R   0.024321 0.381766 0.462483 0.069001
C17   C     C_R   0.950030 0.501913 0.449159 0.069908
C18   C     C_R   0.051128 0.493578 0.446873 0.070706
C19   C     C_R   0.945853 0.274053 0.420847 -0.059603
C20   C     C_R   0.056032 0.711850 0.375830 -0.050901
C21   C     C_R   0.896036 0.279388 0.443560 -0.174565
C22   C     C_R   0.106164 0.706741 0.388763 -0.172616
C23   C     C_R   0.407675 0.497419 0.500433 0.903112
C24   C     C_R   0.592339 0.502594 0.499502 0.895221
C25   C     C_R   0.048371 0.272990 0.506592 -0.130375
C26   C     C_R   0.951981 0.729685 0.465391 -0.126131
C27   C     C_3   0.538344 0.043183 0.567979 -0.029516
C28   C     C_3   0.462359 0.956748 0.432106 -0.033132
C29   C     C_3   0.540912 0.954864 0.436847 -0.153131
C30   C     C_3   0.459781 0.044983 0.563269 -0.154498
C31   C     C_3   0.500378 0.877087 0.503234 -0.046713
C32   C     C_3   0.500296 0.122819 0.496857 -0.047968
C33   C     C_3   0.498471 0.963979 0.635403 -0.157421
C34   C     C_3   0.502233 0.035898 0.364742 -0.161272
C35   C     C_3   0.523114 0.594955 0.051670 0.048468
C36   C     C_3   0.476861 0.405123 0.948283 0.045779
C37   C     C_3   0.479953 0.599653 0.954950 0.007467
C38   C     C_3   0.520023 0.400372 0.044938 0.007783
C39   C     C_3   0.543645 0.495134 0.946929 -0.120000
C40   C     C_3   0.456346 0.504889 0.053037 -0.121067
C41   C     C_R   0.175483 0.379164 0.513501 0.561524
C42   C     C_R   0.824551 0.624854 0.482789 0.562847
C43   C     C_R   0.179416 0.592973 0.445491 0.568327
C44   C     C_R   0.822564 0.401011 0.485786 0.563242
C45   C     C_R   0.276548 0.566209 0.588035 -0.118654
C46   C     C_R   0.721966 0.441558 0.391993 -0.123708
C47   C     C_R   0.326809 0.574864 0.587272 -0.058766
C48   C     C_R   0.672015 0.429734 0.401536 -0.053956
C49   C     C_R   0.330624 0.402526 0.410796 -0.080233
C50   C     C_R   0.670709 0.589594 0.591935 -0.081671
C51   C     C_R   0.280226 0.401502 0.408340 -0.118246
C52   C     C_R   0.721261 0.588999 0.589796 -0.116361
C53   C     C_R   0.253163 0.482187 0.496751 0.289249
C54   C     C_R   0.747094 0.516908 0.488854 0.281284
Cu1   Cu    Cu3+1 0.500010 0.499990 0.643150 1.013758
Cu2   Cu    Cu3+1 0.499990 0.500010 0.356850 1.013108
H1    H     H_    0.498765 0.934932 0.746585 0.195945
H2    H     H_    0.501811 0.064662 0.253515 0.196413
H3    H     H_    0.580374 0.490815 0.899534 0.175327
H4    H     H_    0.419617 0.509141 0.100446 0.174046
H5    H     H_    0.261634 0.337106 0.337553 0.186973
H6    H     H_    0.740724 0.646856 0.665290 0.194389
H7    H     H_    0.114880 0.185975 0.557678 0.199302
H8    H     H_    0.884566 0.824396 0.492810 0.207498
H9    H     H_    0.741979 0.384474 0.315096 0.187709
H10   H     H_    0.255128 0.630729 0.653317 0.182447
H11   H     H_    0.875051 0.194241 0.431192 0.218025
H12   H     H_    0.127525 0.786659 0.357712 0.221389
H13   H     H_    0.028939 0.189001 0.533423 0.154639
H14   H     H_    0.970938 0.817458 0.478507 0.175000
H15   H     H_    0.574377 0.916470 0.387008 0.169890
H16   H     H_    0.426316 0.083304 0.613181 0.174241
N1    N     N_R   0.201561 0.484971 0.486392 -0.459944
N2    N     N_R   0.799097 0.514722 0.487798 -0.455852
N3    N     N_3   0.500040 0.499970 0.858290 -0.221180
N4    N     N_3   0.499960 0.500030 0.141710 -0.220592
O1    O     O_R   0.500020 0.316850 0.620870 -0.583640
O2    O     O_R   0.499980 0.683150 0.379130 -0.583320
O3    O     O_R   0.500000 0.316860 0.379090 -0.575446
O4    O     O_R   0.500000 0.683140 0.620910 -0.574194
O5    O     O_R   0.430270 0.500020 0.620880 -0.545709
O6    O     O_R   0.569730 0.499980 0.379120 -0.549736
O7    O     O_R   0.430250 0.500030 0.379090 -0.580209
O8    O     O_R   0.569750 0.499970 0.620910 -0.578811
O9    O     O_2   0.198046 0.274414 0.555304 -0.512886
O10   O     O_2   0.801143 0.736008 0.482486 -0.517624
O11   O     O_2   0.797513 0.293788 0.501785 -0.515309
O12   O     O_2   0.206024 0.694773 0.414879 -0.512011
C55   C     C_2   0.356742 0.309268 0.318964 0.868671
O13   O     O_2   0.341282 0.281565 0.202104 -0.559825
O14   O     O_R   0.397965 0.249780 0.367179 -0.784367
H17   H     H_    0.412301 0.188548 0.294415 0.332465
C56   C     C_2   0.645735 0.678943 0.691315 0.871168
O15   O     O_2   0.662150 0.699809 0.808592 -0.561704
O16   O     O_R   0.604549 0.742896 0.649518 -0.779561
H18   H     H_    0.591052 0.801302 0.726501 0.334723
C57   C     C_1   0.579994 0.091856 0.645353 0.321668
N5    N     N_1   0.612776 0.130338 0.706576 -0.201435
C58   C     C_1   0.420797 0.908382 0.354048 0.320272
N6    N     N_1   0.388094 0.870191 0.292239 -0.198723
C59   C     C_1   0.455462 0.713221 0.910137 0.362222
N7    N     N_1   0.435834 0.804001 0.879217 -0.251191
C60   C     C_1   0.544136 0.285992 0.088758 0.364981
N8    N     N_1   0.563390 0.194325 0.118426 -0.252762
C61   C     C_2   0.551783 0.702619 0.110746 0.881983
O17   O     O_2   0.537413 0.810326 0.098863 -0.614502
O18   O     O_R   0.595353 0.679058 0.176910 -0.724128
H19   H     H_    0.611696 0.758795 0.211643 0.336515
C62   C     C_2   0.448168 0.297531 0.889058 0.885932
O19   O     O_2   0.462508 0.189782 0.900806 -0.613012
O20   O     O_R   0.404618 0.321215 0.822834 -0.723671
H20   H     H_    0.388297 0.241538 0.787821 0.338023
C63   C     C_2   0.649770 0.322443 0.324943 0.897404
O21   O     O_2   0.663355 0.292991 0.205423 -0.555072
O22   O     O_R   0.615955 0.248859 0.394707 -0.785519
H21   H     H_    0.608956 0.167057 0.342348 0.340819
C64   C     C_2   0.348468 0.683274 0.663493 0.891704
O23   O     O_2   0.332206 0.718375 0.778364 -0.551206
O24   O     O_R   0.385195 0.750944 0.598838 -0.786256
H22   H     H_    0.392294 0.833134 0.650318 0.340047
C65   C     C_2   0.965646 0.161522 0.344797 0.852626
O25   O     O_2   0.949100 0.057369 0.366256 -0.607896
O26   O     O_R   0.001598 0.176582 0.242127 -0.721781
H23   H     H_    0.009307 0.096074 0.187321 0.359531
C66   C     C_2   0.036311 0.817171 0.295140 0.847392
O27   O     O_2   0.054242 0.921593 0.306561 -0.593591
O28   O     O_R   0.998481 0.795738 0.201782 -0.728371
H24   H     H_    0.988578 0.874128 0.151218 0.345632

loop_
_geom_bond_atom_site_label_1
_geom_bond_atom_site_label_2
_ccdc_geom_bond_type
C43   N1    A    
C37   C59   S    
Cu1   Cu2   S    
C56   O15   D    
Cu2   N4    S    
C27   C29   S    
C1    O1    A    
C14   C18   A    
C11   C47   A    
O20   H20   S    
C51   H5    S    
C12   C48   A    
C57   N5    T    
Cu2   O2    S    
O26   H23   S    
C38   N4    S    
C27   C33   S    
C61   O18   S    
C59   N7    T    
Cu2   O3    S    
C23   O7    A    
C11   C49   A    
C43   O12   S    
C35   C37   S    
C37   C40   S    
C62   O20   S    
C38   C39   S    
Cu1   O1    S    
C9    C22   A    
O22   H21   S    
C8    C26   A    
C3    C18   A    
C24   O6    A    
C22   H12   S    
C54   N2    S    
C27   C57   S    
O16   H18   S    
C28   C30   S    
C49   C51   A    
C50   C52   A    
O18   H19   S    
C31   C33   S    
C42   O10   S    
C39   N3    S    
Cu1   O5    S    
C44   O11   S    
C60   N8    T    
Cu1   N3    S    
C37   N3    S    
C28   C34   S    
C56   O16   S    
C21   H11   S    
C52   C54   A    
C45   C47   A    
C10   C21   A    
C46   C48   A    
C35   N4    S    
C9    C43   A    
C42   N2    A    
C13   C19   A    
C10   C44   A    
C14   C20   A    
C36   C40   S    
C46   H9    S    
C4    C6    A    
O14   H17   S    
C5    C7    A    
C15   C26   A    
C6    C8    A    
C41   N1    A    
C29   C34   S    
C1    C32   S    
C40   N4    S    
C2    C31   S    
C51   C53   A    
C32   C34   S    
C35   C39   S    
C38   C60   S    
C35   C61   S    
C36   N3    S    
C12   C50   A    
C58   N6    T    
C39   H3    S    
C46   C54   A    
C44   N2    A    
C3    C9    A    
C7    H7    S    
C65   O25   D    
C8    H8    S    
C4    C17   A    
C28   C58   S    
C20   C22   A    
C66   O27   D    
C1    O3    A    
C40   H4    S    
C55   O14   S    
C4    C10   A    
O28   H24   S    
C55   O13   D    
C36   C62   S    
C2    O2    A    
Cu2   O7    S    
C34   H2    S    
C63   O21   D    
C16   C25   A    
C15   C17   A    
C5    C41   A    
C19   C65   S    
C33   H1    S    
C23   O5    A    
C30   C33   S    
C19   C21   A    
C27   C32   S    
C28   C31   S    
C53   N1    S    
C49   C55   S    
C3    C5    A    
C30   H16   S    
O24   H22   S    
C50   C56   S    
Cu2   O6    S    
C41   O9    S    
C61   O17   D    
C12   C24   S    
C7    C25   A    
C13   C17   A    
C64   O24   S    
C24   O8    A    
C20   C66   S    
C29   C31   S    
C52   H6    S    
C62   O19   D    
C36   C38   S    
C30   C32   S    
Cu1   O4    S    
C26   H14   S    
C11   C23   S    
C65   O26   S    
C2    O4    A    
C45   C53   A    
C47   C64   S    
C25   H13   S    
C16   C18   A    
C6    C42   A    
C13   C16   A    
C45   H10   S    
C66   O28   S    
C14   C15   A    
C29   H15   S    
Cu1   O8    S    
C64   O23   D    
C48   C63   S    
C63   O22   S    
