data_mof_unit_40399.cif
_audit_creation_date              2012-12-10T17:23:41-0500
_audit_creation_method            fapswitch 2.2
_symmetry_space_group_name_H-M    P1
_symmetry_Int_Tables_number       1
_space_group_crystal_system       triclinic
_cell_length_a                    9.640187
_cell_length_b                    10.811887
_cell_length_c                    17.255805
_cell_angle_alpha                 93.854061
_cell_angle_beta                  84.802838
_cell_angle_gamma                 89.673144
_cell_volume                      1786.97798749

loop_
_atom_site_label
_atom_site_type_symbol
_atom_type_description
_atom_site_fract_x
_atom_site_fract_y
_atom_site_fract_z
_atom_type_partial_charge
C1    C     C_R   0.498622 0.737253 0.504380 0.800683
C2    C     C_R   0.352185 0.451670 0.774643 -0.295927
C3    C     C_R   0.465464 0.601039 0.153138 -0.149053
C4    C     C_R   0.460384 0.598423 0.233587 -0.229530
C5    C     C_R   0.607499 0.414142 0.219180 -0.266991
C6    C     C_R   0.608705 0.413276 0.138026 0.519486
C7    C     C_R   0.536149 0.506853 0.104811 0.104630
C8    C     C_2   0.422947 0.534080 0.983829 0.474572
C9    C     C_2   0.536269 0.505973 0.019647 -0.311912
C10   C     C_R   0.530995 0.504951 0.266567 -0.076068
C11   C     C_R   0.309854 0.885664 0.619098 -0.159979
C12   C     C_R   0.480288 0.501262 0.649804 0.770020
C13   C     C_R   0.218938 0.957297 0.671533 -0.152411
C14   C     C_R   0.220438 0.085781 0.671393 -0.153647
C15   C     C_R   0.312966 0.143460 0.618884 -0.156007
C16   C     C_R   0.404305 0.072909 0.563733 0.022502
C17   C     C_R   0.402380 0.941887 0.563889 0.099280
C18   C     C_R   0.496777 0.871405 0.510575 -0.176716
C19   C     C_R   0.596570 0.929035 0.462782 -0.294839
C20   C     C_R   0.605528 0.056933 0.465532 0.477005
C21   C     C_R   0.502408 0.129429 0.511108 -0.235794
C22   C     C_R   0.871458 0.366586 0.381010 -0.123281
C23   C     C_R   0.500362 0.262999 0.503533 0.862869
C24   C     C_R   0.946409 0.329575 0.311281 -0.286896
C25   C     C_R   0.089069 0.332803 0.306801 -0.256873
C26   C     C_R   0.155424 0.359291 0.374943 0.529806
C27   C     C_R   0.083288 0.431940 0.439998 0.094121
C28   C     C_R   0.933786 0.433708 0.441063 0.133259
C29   C     C_R   0.916993 0.564357 0.555992 -0.043550
C30   C     C_R   0.064489 0.564325 0.556006 -0.065246
C31   C     C_R   0.519390 0.500437 0.350518 0.854218
C32   C     C_R   0.465868 0.507196 0.734676 -0.076317
C33   C     C_R   0.563975 0.571642 0.776160 -0.163950
C34   C     C_R   0.547582 0.582294 0.857064 -0.296016
C35   C     C_R   0.435115 0.525524 0.897626 -0.042502
C36   C     C_R   0.338491 0.457205 0.856121 0.526115
Cu1   Cu    Cu3+1 0.359340 0.500010 0.500010 0.965700
Cu2   Cu    Cu3+1 0.640660 0.499990 0.499990 0.945993
H1    H     H_    0.651393 0.616332 0.745965 0.148425
H2    H     H_    0.668698 0.873982 0.422317 0.174310
H3    H     H_    0.308689 0.786593 0.623946 0.139250
H4    H     H_    0.148701 0.912934 0.713394 0.127908
H5    H     H_    0.151482 0.141208 0.713210 0.134198
H6    H     H_    0.314481 0.243424 0.624120 0.147667
H7    H     H_    0.854668 0.617661 0.601935 0.127162
H8    H     H_    0.766280 0.336941 0.386850 0.243050
H9    H     H_    0.895060 0.286730 0.263297 0.192091
H10   H     H_    0.402550 0.669992 0.270223 0.148400
H11   H     H_    0.147448 0.292135 0.254584 0.174879
H12   H     H_    0.111507 0.617435 0.601926 0.126216
H13   H     H_    0.661305 0.341466 0.245067 0.146081
H14   H     H_    0.631776 0.475987 0.984887 0.165393
H15   H     H_    0.414296 0.676897 0.128873 0.169112
H16   H     H_    0.275635 0.401830 0.742855 0.154236
H17   H     H_    0.622734 0.635104 0.888208 0.152492
N1    N     N_R   0.852190 0.498790 0.499250 -0.188219
N2    N     N_R   0.148060 0.498710 0.499220 -0.189074
O1    O     O_R   0.381190 0.680360 0.500010 -0.589486
O2    O     O_R   0.618760 0.680340 0.500000 -0.578611
O3    O     O_R   0.367440 0.500030 0.613600 -0.605761
O4    O     O_R   0.605010 0.500010 0.613590 -0.588377
O5    O     O_R   0.381240 0.319660 0.500000 -0.536798
O6    O     O_R   0.618810 0.319640 0.499990 -0.575061
O7    O     O_R   0.394990 0.499990 0.386410 -0.533193
O8    O     O_R   0.632560 0.499970 0.386400 -0.606650
O9    O     O_3   0.683335 0.322694 0.091177 -0.580621
C37   C     C_3   0.601287 0.215366 0.086597 -0.340155
H18   H     H_    0.658869 0.144045 0.046743 0.190894
H19   H     H_    0.500926 0.234229 0.062035 0.162490
H20   H     H_    0.581667 0.176189 0.144549 0.165559
O10   O     O_3   0.708297 0.110613 0.417963 -0.589860
C38   C     C_3   0.838574 0.090723 0.447136 -0.323361
H21   H     H_    0.861791 0.991012 0.452735 0.157622
H22   H     H_    0.844358 0.144023 0.504170 0.178151
H23   H     H_    0.922226 0.123669 0.405530 0.184947
O11   O     O_3   0.281313 0.299980 0.378067 -0.540027
C39   C     C_3   0.261177 0.170195 0.379144 -0.329975
H24   H     H_    0.216916 0.129770 0.325961 0.143743
H25   H     H_    0.194807 0.147287 0.432332 0.163779
H26   H     H_    0.363840 0.124163 0.379921 0.188187
O12   O     O_3   0.228104 0.399272 0.894999 -0.556266
C40   C     C_3   0.264313 0.273518 0.899085 -0.290464
H27   H     H_    0.177237 0.227361 0.931863 0.195148
H28   H     H_    0.358650 0.263458 0.931036 0.151865
H29   H     H_    0.280448 0.224969 0.839955 0.142591
O13   O     O_3   0.294444 0.551631 0.026960 -0.535234
C41   C     C_3   0.227492 0.658448 0.004751 -0.273419
H30   H     H_    0.297963 0.739775 0.003869 0.117464
H31   H     H_    0.138121 0.682461 0.048387 0.184177
H32   H     H_    0.185198 0.641174 0.947304 0.186375

loop_
_geom_bond_atom_site_label_1
_geom_bond_atom_site_label_2
_ccdc_geom_bond_type
C41   H30   S    
C16   C21   A    
C3    H15   S    
C35   C36   A    
O12   C40   S    
C28   N1    A    
C39   H24   S    
C26   C27   A    
C33   H1    S    
Cu1   Cu2   S    
C15   H6    S    
C18   C19   A    
C3    C7    A    
C1    O2    A    
C5    C6    A    
C15   C16   A    
C30   N2    A    
C2    C32   A    
C34   C35   A    
C10   C31   S    
C23   O5    A    
C19   C20   A    
C16   C17   A    
C26   O11   S    
C20   O10   S    
Cu1   O1    S    
Cu2   O4    S    
C23   O6    A    
O9    C37   S    
C30   H12   S    
C34   H17   S    
C22   C28   A    
C13   C14   A    
C12   C32   S    
C9    H14   S    
C38   H23   S    
C13   H4    S    
C33   C34   A    
C39   H25   S    
C37   H18   S    
O11   C39   S    
C38   H22   S    
C2    H16   S    
O13   C41   S    
C8    C9    D    
C25   C26   A    
C29   H7    S    
C37   H19   S    
C8    C35   S    
C29   C30   A    
Cu2   O8    S    
C6    O9    S    
C36   O12   S    
C17   C18   A    
C1    C18   S    
C24   C25   A    
C22   H8    S    
C40   H28   S    
C21   C23   S    
C27   N2    A    
C22   C24   A    
C4    C10   A    
C3    C4    A    
Cu1   O7    S    
Cu2   O6    S    
C4    H10   S    
C39   H26   S    
C2    C36   A    
C31   O8    A    
C11   C17   A    
C24   H9    S    
C31   O7    A    
C38   H21   S    
C6    C7    A    
C29   N1    A    
C40   H29   S    
C37   H20   S    
C32   C33   A    
C41   H31   S    
O10   C38   S    
C1    O1    A    
C12   O4    A    
C11   C13   A    
C11   H3    S    
C8    O13   S    
C25   H11   S    
Cu1   O3    S    
C19   H2    S    
Cu2   O2    S    
C12   O3    A    
C7    C9    S    
C5    C10   A    
Cu2   N1    S    
C20   C21   A    
C40   H27   S    
C41   H32   S    
C27   C28   A    
Cu1   O5    S    
C14   C15   A    
C5    H13   S    
Cu1   N2    S    
C14   H5    S    
