data_mof_unit_17476.cif
_audit_creation_date              2012-10-26T21:08:06-0400
_audit_creation_method            fapswitch 2.2
_symmetry_space_group_name_H-M    P1
_symmetry_Int_Tables_number       1
_space_group_crystal_system       triclinic
_cell_length_a                    15.84877
_cell_length_b                    10.851874
_cell_length_c                    9.597137
_cell_angle_alpha                 90.713106
_cell_angle_beta                  91.565682
_cell_angle_gamma                 92.698153
_cell_volume                      1647.99932309

loop_
_atom_site_label
_atom_site_type_symbol
_atom_type_description
_atom_site_fract_x
_atom_site_fract_y
_atom_site_fract_z
_atom_type_partial_charge
C1    C     C_R   0.507248 0.263403 0.499982 0.549127
C2    C     C_R   0.564200 0.075008 0.879451 0.005175
C3    C     C_R   0.522222 0.959617 0.889656 -0.123890
C4    C     C_R   0.339852 0.499529 0.498008 0.561455
C5    C     C_R   0.495227 0.893282 0.769907 -0.116796
C6    C     C_R   0.507926 0.942044 0.635291 0.016019
C7    C     C_R   0.532647 0.067820 0.627549 0.011562
C8    C     C_R   0.516811 0.130028 0.501250 -0.004358
C9    C     C_R   0.498021 0.062404 0.378561 -0.160327
C10   C     C_R   0.491667 0.935141 0.380958 -0.159478
C11   C     C_R   0.495719 0.872971 0.507920 -0.001783
C12   C     C_3   0.082430 0.499264 0.488299 -0.026221
C13   C     C_R   0.613229 0.663707 0.150077 -0.112330
C14   C     C_R   0.669500 0.742071 0.081442 -0.163282
C15   C     C_R   0.670438 0.742149 0.936527 -0.030912
C16   C     C_R   0.496821 0.737880 0.501885 0.537166
C17   C     C_R   0.613986 0.661261 0.862674 -0.094112
C18   C     C_R   0.555957 0.579670 0.928699 0.125382
C19   C     C_R   0.555698 0.580229 0.077981 0.148697
C20   C     C_R   0.447450 0.423109 0.070460 -0.012007
C21   C     C_R   0.447424 0.423204 0.922560 -0.003145
C22   C     C_R   0.660036 0.500200 0.501955 0.530617
C23   C     C_3   0.979200 0.598890 0.568452 0.228053
C24   C     C_3   0.972422 0.397976 0.561782 0.234984
C25   C     C_3   0.020985 0.397875 0.424311 -0.083106
C26   C     C_1   0.249937 0.499422 0.492423 -0.015175
C27   C     C_1   0.749696 0.499869 0.507116 -0.017062
C28   C     C_3   0.035212 0.497430 0.626392 -0.069390
C29   C     C_3   0.728853 0.827160 0.854097 -0.250393
C30   C     C_3   0.784425 0.920869 0.941095 -0.314463
C31   C     C_3   0.834046 0.009256 0.847828 -0.383360
C32   C     C_3   0.917251 0.502506 0.229528 -0.261481
C33   C     C_3   0.975931 0.524221 0.107982 -0.308413
C34   C     C_3   0.916967 0.499352 0.506423 0.060718
C35   C     C_3   0.924548 0.528925 0.971539 -0.406915
C36   C     C_3   0.593759 0.142424 0.012601 -0.263121
C37   C     C_3   0.659887 0.248707 0.993577 -0.309417
C38   C     C_3   0.694214 0.299055 0.134009 -0.436515
C39   C     C_3   0.027860 0.602594 0.431224 -0.076624
C40   C     C_3   0.965095 0.501185 0.369770 -0.040631
C41   C     C_1   0.174232 0.499335 0.487988 -0.039020
C42   C     C_1   0.825251 0.499554 0.509953 0.010768
C43   C     C_R   0.569716 0.128221 0.747291 -0.077785
Cl1   Cl    Cl    0.934506 0.263955 0.649919 -0.652293
Cl2   Cl    Cl    0.950450 0.732004 0.662781 -0.673736
Cu1   Cu    Cu3+1 0.499990 0.499990 0.640660 0.912732
Cu2   Cu    Cu3+1 0.500010 0.500010 0.359340 0.909023
H1    H     H_    0.039128 0.315648 0.364199 0.139947
H2    H     H_    0.051749 0.686592 0.377294 0.139775
H3    H     H_    0.067166 0.494738 0.730541 0.132016
H4    H     H_    0.487068 0.107805 0.280457 0.126196
H5    H     H_    0.602820 0.216590 0.737242 0.143822
H6    H     H_    0.876642 0.957730 0.780908 0.240078
H7    H     H_    0.790198 0.060958 0.780657 0.175932
H8    H     H_    0.872880 0.076486 0.913474 0.174650
H9    H     H_    0.744343 0.976311 0.008404 0.162202
H10   H     H_    0.829751 0.871381 0.007975 0.175339
H11   H     H_    0.770392 0.769224 0.791877 0.188955
H12   H     H_    0.511682 0.919426 0.990896 0.112414
H13   H     H_    0.689274 0.878806 0.779617 0.157037
H14   H     H_    0.891005 0.438413 0.948689 0.179887
H15   H     H_    0.877725 0.601832 0.976748 0.172916
H16   H     H_    0.967500 0.551073 0.885818 0.197139
H17   H     H_    0.012777 0.613236 0.123735 0.174345
H18   H     H_    0.020696 0.448625 0.101708 0.173784
H19   H     H_    0.881287 0.412736 0.214602 0.150651
H20   H     H_    0.871517 0.577066 0.232686 0.153191
H21   H     H_    0.641382 0.324601 0.200317 0.205893
H22   H     H_    0.731345 0.228787 0.188215 0.152140
H23   H     H_    0.460473 0.807380 0.786940 0.161171
H24   H     H_    0.735745 0.382585 0.117722 0.144115
H25   H     H_    0.713329 0.216240 0.932539 0.171229
H26   H     H_    0.630535 0.325348 0.937294 0.178281
H27   H     H_    0.537562 0.179477 0.062132 0.141776
H28   H     H_    0.620764 0.074663 0.085324 0.140990
H29   H     H_    0.481001 0.885568 0.282879 0.137020
H30   H     H_    0.404473 0.359955 0.122870 0.117246
H31   H     H_    0.617921 0.673416 0.260128 0.188191
H32   H     H_    0.711887 0.802630 0.143886 0.117416
H33   H     H_    0.617117 0.667619 0.752897 0.187433
H34   H     H_    0.404412 0.360054 0.864569 0.130301
N1    N     N_R   0.500800 0.501210 0.147910 -0.243840
N2    N     N_R   0.500830 0.501290 0.852040 -0.252891
O1    O     O_R   0.499990 0.319640 0.618810 -0.507179
O2    O     O_R   0.500000 0.319660 0.381240 -0.512985
O3    O     O_R   0.379070 0.499980 0.618770 -0.488604
O4    O     O_R   0.379080 0.500000 0.381190 -0.487890
O5    O     O_R   0.500000 0.680340 0.618760 -0.534743
O6    O     O_R   0.500010 0.680360 0.381190 -0.519098
O7    O     O_R   0.620920 0.500000 0.618810 -0.519146
O8    O     O_R   0.620930 0.500020 0.381230 -0.531041

loop_
_geom_bond_atom_site_label_1
_geom_bond_atom_site_label_2
_ccdc_geom_bond_type
C23   Cl2   S    
C20   N1    A    
C1    C8    S    
C34   C42   S    
C33   H18   S    
C7    C8    A    
C4    O4    A    
C1    O1    A    
C29   C30   S    
C20   H30   S    
C12   C28   S    
C34   C40   S    
Cu2   O2    S    
C36   C37   S    
C25   C40   S    
C5    C6    A    
C43   H5    S    
C4    O3    A    
C30   H10   S    
C17   C18   A    
C18   C19   A    
Cu2   N1    S    
C38   H24   S    
C10   H29   S    
C21   N2    A    
C8    C9    A    
C9    H4    S    
C22   O8    A    
C7    C43   A    
C19   N1    A    
C9    C10   A    
C38   H22   S    
C16   O6    A    
C13   C14   A    
Cu2   O6    S    
C28   H3    S    
C15   C29   S    
Cu1   O5    S    
C1    O2    A    
C13   C19   A    
C24   C25   S    
C6    C11   A    
C14   H32   S    
C30   H9    S    
C17   H33   S    
C24   C34   S    
Cu2   O4    S    
C37   C38   S    
C36   H28   S    
C11   C16   S    
C29   H13   S    
C2    C43   A    
C23   C34   S    
C20   C21   A    
C18   N2    A    
C22   O7    A    
C35   H14   S    
C23   C28   S    
C31   H6    S    
C25   H1    S    
C36   H27   S    
C32   H20   S    
Cu1   O1    S    
C39   H2    S    
C21   H34   S    
C22   C27   S    
C24   Cl1   S    
C39   C40   S    
C12   C41   S    
C32   H19   S    
C2    C36   S    
C15   C17   A    
C37   H26   S    
Cu1   Cu2   S    
Cu2   O8    S    
C24   C28   S    
C38   H21   S    
C3    C5    A    
C5    H23   S    
C4    C26   S    
C6    C7    A    
Cu1   O7    S    
C12   C25   S    
C32   C33   S    
C12   C39   S    
C2    C3    A    
C27   C42   T    
C30   C31   S    
C33   H17   S    
C23   C39   S    
C33   C35   S    
C35   H15   S    
C32   C40   S    
C31   H7    S    
C10   C11   A    
C13   H31   S    
Cu1   N2    S    
C29   H11   S    
C37   H25   S    
C16   O5    A    
C14   C15   A    
C35   H16   S    
C31   H8    S    
C26   C41   T    
Cu1   O3    S    
C3    H12   S    
