data_mof_unit_30163.cif
_audit_creation_date              2013-03-05T16:18:41-0500
_audit_creation_method            fapswitch 2.2
_symmetry_space_group_name_H-M    P1
_symmetry_Int_Tables_number       1
_space_group_crystal_system       triclinic
_cell_length_a                    15.678911
_cell_length_b                    10.80664
_cell_length_c                    9.989396
_cell_angle_alpha                 89.22209
_cell_angle_beta                  88.212476
_cell_angle_gamma                 91.825101
_cell_volume                      1690.70506155

loop_
_atom_site_label
_atom_site_type_symbol
_atom_site_description
_atom_site_fract_x
_atom_site_fract_y
_atom_site_fract_z
_atom_type_partial_charge
O1    O     O_R   0.499980 0.314910 0.616040 -0.655546
O2    O     O_R   0.500040 0.314680 0.383960 -0.587271
C1    C     C_R   0.497454 0.258581 0.500027 1.015752
O3    O     O_R   0.376750 0.500100 0.616020 -0.651812
O4    O     O_R   0.376810 0.499870 0.383940 -0.589712
C2    C     C_R   0.338681 0.500632 0.501792 1.013605
Zn1   Zn    Zn3+2 0.499960 0.500150 0.654960 1.034551
Zn2   Zn    Zn3+2 0.500040 0.499850 0.345040 0.988321
O5    O     O_R   0.499960 0.685320 0.616040 -0.543648
O6    O     O_R   0.500020 0.685090 0.383960 -0.626004
O7    O     O_R   0.623190 0.500130 0.616060 -0.563739
O8    O     O_R   0.623250 0.499900 0.383980 -0.660926
C3    C     C_R   0.501851 0.741761 0.498087 1.018275
C4    C     C_R   0.661374 0.500072 0.498176 0.943050
C5    C     C_3   0.967689 0.388513 0.547120 0.290817
C6    C     C_3   0.028282 0.404104 0.425233 0.234965
H1    H     H_    0.957087 0.525882 0.265193 0.207188
C7    C     C_1   0.249812 0.499394 0.505810 -0.021366
C8    C     C_1   0.750263 0.499298 0.494091 -0.029418
C9    C     C_3   0.023132 0.478768 0.628551 -0.290554
C10   C     C_3   0.083689 0.494412 0.504120 -0.076519
C11   C     C_3   0.970682 0.588749 0.575856 -0.174226
C12   C     C_3   0.916346 0.496045 0.495209 -0.036108
C13   C     C_3   0.031834 0.601318 0.452390 0.308561
C14   C     C_3   0.976480 0.511715 0.370104 -0.328378
C15   C     C_1   0.174483 0.497294 0.506693 0.129578
C16   C     C_1   0.825589 0.498065 0.493041 0.126842
H2    H     H_    0.945587 0.666148 0.635808 0.227324
H3    H     H_    0.042992 0.463672 0.733077 0.209571
C17   C     C_3   0.543132 0.072018 0.619031 -0.502821
H4    H     H_    0.505247 0.087687 0.712269 0.189268
H5    H     H_    0.604421 0.124497 0.631053 0.274229
C18   C     C_3   0.556722 0.931576 0.608792 0.078718
H6    H     H_    0.533037 0.891314 0.705540 0.230044
H7    H     H_    0.401836 0.915277 0.636139 0.190206
C19   C     C_3   0.397909 0.065647 0.496144 0.366555
C20   C     C_3   0.542967 0.079972 0.365413 0.074646
C21   C     C_3   0.494483 0.121963 0.496256 -0.309597
H8    H     H_    0.507887 0.114670 0.278448 0.194296
C22   C     C_3   0.500292 0.878718 0.492829 -0.316786
C23   C     C_3   0.406482 0.922932 0.526198 0.017560
C24   C     C_3   0.541248 0.937706 0.358130 0.068417
H9    H     H_    0.608029 0.907399 0.349345 0.188203
C25   C     C_3   0.462563 0.381610 0.087731 -0.284083
H10   H     H_    0.396069 0.371775 0.127031 0.226029
H11   H     H_    0.496112 0.303469 0.133547 0.214494
C26   C     C_3   0.471802 0.371152 0.928141 -0.115673
H12   H     H_    0.524053 0.304441 0.913376 0.161556
H13   H     H_    0.389458 0.604117 0.147129 0.214094
C27   C     C_3   0.449538 0.601279 0.086114 -0.277917
C28   C     C_3   0.587648 0.518202 0.075965 -0.055167
N1    N     N_3   0.498170 0.499750 0.138610 -0.149094
H14   H     H_    0.621603 0.432936 0.104472 0.176998
N2    N     N_3   0.498850 0.496730 0.861320 -0.172013
C29   C     C_3   0.435592 0.590470 0.928885 0.457601
C30   C     C_3   0.587694 0.514904 0.915283 0.188243
H15   H     H_    0.623311 0.430020 0.890093 0.105338
H16   H     H_    0.481721 0.689127 0.112756 0.247229
N3    N     N_R   0.058187 0.301519 0.344990 0.251094
O9    O     O_R   0.003456 0.231359 0.283640 -0.270516
O10   O     O_R   0.139127 0.279382 0.334035 -0.291500
N4    N     N_R   0.343561 0.123037 0.600284 0.184654
O11   O     O_R   0.299342 0.055800 0.688204 -0.336485
O12   O     O_R   0.321064 0.236643 0.582572 -0.401216
N5    N     N_R   0.630435 0.133777 0.348454 0.214969
O13   O     O_R   0.649091 0.208209 0.247521 -0.373385
O14   O     O_R   0.691567 0.101115 0.425128 -0.299918
N6    N     N_R   0.503187 0.901433 0.231752 0.190611
O15   O     O_R   0.548831 0.927635 0.123773 -0.377959
O16   O     O_R   0.421093 0.895332 0.219898 -0.301734
N7    N     N_R   0.355894 0.087366 0.366790 0.243410
O17   O     O_R   0.285551 0.026187 0.341451 -0.182506
O18   O     O_R   0.366870 0.193790 0.305642 -0.415869
N8    N     N_R   0.333799 0.843179 0.484451 0.271074
O19   O     O_R   0.340538 0.762381 0.390038 -0.341820
O20   O     O_R   0.261631 0.845699 0.552202 -0.241098
N9    N     N_R   0.933574 0.269300 0.597973 0.250632
O21   O     O_R   0.985430 0.186152 0.638663 -0.257507
O22   O     O_R   0.851757 0.245065 0.602934 -0.300027
C31   C     C_3   0.397092 0.293641 0.864932 -0.361694
C32   C     C_3   0.343048 0.209694 0.962868 -0.684874
H17   H     H_    0.384809 0.154120 0.026504 0.291590
H18   H     H_    0.298575 0.263041 0.026195 0.258919
H19   H     H_    0.302199 0.144397 0.907400 0.312538
H20   H     H_    0.355082 0.348301 0.803215 0.257918
H21   H     H_    0.424863 0.227457 0.795422 0.250345
C33   C     C_3   0.336292 0.552624 0.922441 -0.483258
C34   C     C_3   0.273658 0.646833 0.982884 -0.631049
H22   H     H_    0.247382 0.613078 0.081927 0.252469
H23   H     H_    0.303957 0.739544 0.998059 0.311686
H24   H     H_    0.218739 0.657950 0.916498 0.264688
H25   H     H_    0.317077 0.539845 0.818944 0.260292
H26   H     H_    0.319618 0.466408 0.977637 0.202208
C35   C     C_3   0.643979 0.621991 0.145243 -0.393608
C36   C     C_3   0.682855 0.736178 0.071874 -0.618818
H27   H     H_    0.740845 0.713546 0.012296 0.288878
H28   H     H_    0.635975 0.782195 0.010615 0.336539
H29   H     H_    0.704537 0.804362 0.146953 0.247800
H30   H     H_    0.606533 0.660591 0.227670 0.268939
H31   H     H_    0.699737 0.577518 0.189750 0.226221
N10   N     N_R   0.642166 0.609036 0.844933 0.236098
O23   O     O_R   0.721976 0.585594 0.818658 -0.382417
O24   O     O_R   0.611759 0.707086 0.791543 -0.321149
N11   N     N_R   0.444159 0.714598 0.864830 0.237181
O25   O     O_R   0.387485 0.747169 0.779788 -0.398381
O26   O     O_R   0.486887 0.803910 0.920492 -0.366145
N12   N     N_R   0.069608 0.717778 0.400250 0.251129
O27   O     O_R   0.051868 0.821581 0.457590 -0.243458
O28   O     O_R   0.121429 0.718229 0.296013 -0.323337
N13   N     N_R   0.648321 0.903702 0.598627 0.290160
O29   O     O_R   0.699641 0.952506 0.684790 -0.249056
O30   O     O_R   0.674903 0.809654 0.530726 -0.397000

loop_
_geom_bond_atom_site_label_1
_geom_bond_atom_site_label_2
_geom_bond_distance
_ccdc_geom_bond_type
C10   C15   1.423945 S    
C6    C10   1.528956 S    
C36   H27   1.106835 S    
C7    C15   1.180321 T    
C33   C34   1.552042 S    
N11   O26   1.298509 A    
C32   H17   1.110920 S    
C36   H29   1.111731 S    
C5    N9    1.457821 S    
N9    O21   1.300344 A    
Zn1   O7    1.958889 S    
C31   H20   1.096854 S    
N8    O20   1.301464 A    
C30   N10   1.464885 S    
O4    C2    1.303875 A    
O7    C4    1.304301 A    
C5    C6    1.524963 S    
C30   H15   1.116585 S    
C17   C21   1.563298 S    
C28   C30   1.605965 S    
C20   C24   1.539543 S    
O5    C3    1.318483 A    
N13   O29   1.301896 A    
C3    C22   1.481272 S    
C31   H21   1.094412 S    
C23   N8    1.480622 S    
C1    C21   1.476663 S    
N6    O15   1.298634 A    
N5    O14   1.299967 A    
C20   N5    1.476336 S    
C27   N1    1.456991 S    
N12   O27   1.300461 A    
C12   C16   1.424656 S    
C8    C16   1.181264 T    
Zn2   N1    2.063248 S    
N4    O12   1.299440 A    
C19   N7    1.487762 S    
C25   N1    1.479820 S    
C22   C24   1.589336 S    
N3    O9    1.300306 A    
N10   O24   1.291199 A    
C11   H2    1.110382 S    
C33   H25   1.095160 S    
C24   N6    1.465967 S    
N12   O28   1.300476 A    
C19   C23   1.577956 S    
C26   C31   1.571764 S    
O3    Zn1   1.982418 S    
C19   N4    1.479475 S    
N11   O25   1.301559 A    
C32   H18   1.107582 S    
C25   H11   1.109990 S    
C9    H3    1.110276 S    
N9    O22   1.300347 A    
C5    C9    1.542829 S    
C2    C7    1.392328 S    
N2    C30   1.517183 S    
N3    O10   1.300428 A    
C18   C22   1.581367 S    
N8    O19   1.298103 A    
C28   N1    1.524321 S    
C27   H16   1.100650 S    
N10   O23   1.303994 A    
C13   C14   1.542429 S    
O3    C2    1.304173 A    
N7    O18   1.298917 A    
C29   N11   1.478754 S    
O1    C1    1.317439 A    
C6    N3    1.457793 S    
C20   C21   1.571071 S    
C26   H12   1.116069 S    
C34   H24   1.111611 S    
C35   H31   1.112719 S    
Zn2   O8    1.982418 S    
N4    O11   1.300986 A    
C36   H28   1.097768 S    
C18   H6    1.103238 S    
C13   N12   1.456516 S    
C34   H22   1.112137 S    
C26   N2    1.545365 S    
N6    O16   1.295931 A    
C22   C23   1.587847 S    
C34   H23   1.109399 S    
H13   C27   1.107393 S    
C11   C13   1.540220 S    
C24   H9    1.108241 S    
C32   H19   1.104128 S    
C25   H10   1.103902 S    
C6    C14   1.544668 S    
Zn1   O5    2.033297 S    
N2    C29   1.583107 S    
C17   C18   1.543617 S    
O1    Zn1   2.044410 S    
C4    C8    1.393301 S    
O2    Zn2   2.033298 S    
C9    C11   1.561489 S    
C31   C32   1.540554 S    
O6    C3    1.302113 A    
O4    Zn2   1.958889 S    
C25   C26   1.602113 S    
C27   C29   1.597836 S    
H1    C14   1.110261 S    
C19   C21   1.613853 S    
O2    C1    1.299956 A    
O8    C4    1.304271 A    
N7    O17   1.301191 A    
C20   H8    1.109912 S    
C17   H5    1.110778 S    
C17   H4    1.106866 S    
C35   H30   1.091530 S    
C33   H26   1.096350 S    
C5    C12   1.528583 S    
C12   C14   1.545970 S    
C29   C33   1.600576 S    
C35   C36   1.526785 S    
H7    C23   1.100204 S    
N13   O30   1.301843 A    
C28   C35   1.585280 S    
C9    C10   1.544528 S    
Zn2   O6    2.044410 S    
N5    O13   1.301431 A    
C10   C13   1.527281 S    
C11   C12   1.545581 S    
C18   N13   1.477474 S    
Zn1   N2    2.060761 S    
C28   H14   1.116766 S    
