data_mof_unit_48188.cif
_audit_creation_date              2012-12-10T17:08:14-0500
_audit_creation_method            fapswitch 2.2
_symmetry_space_group_name_H-M    P1
_symmetry_Int_Tables_number       1
_space_group_crystal_system       triclinic
_cell_length_a                    23.55213
_cell_length_b                    10.974822
_cell_length_c                    9.866825
_cell_angle_alpha                 111.884748
_cell_angle_beta                  98.723264
_cell_angle_gamma                 90.490219
_cell_volume                      2333.31638335

loop_
_atom_site_label
_atom_site_type_symbol
_atom_type_description
_atom_site_fract_x
_atom_site_fract_y
_atom_site_fract_z
_atom_type_partial_charge
C1    C     C_R   0.496316 0.252841 0.439392 0.764648
C2    C     C_R   0.504880 0.747168 0.560554 0.748541
C3    C     C_R   0.250077 0.598962 0.634807 -0.102135
C4    C     C_R   0.765300 0.437537 0.592583 -0.097067
C5    C     C_R   0.308497 0.603150 0.624618 -0.062677
C6    C     C_R   0.705636 0.432800 0.584393 -0.054709
C7    C     C_R   0.328543 0.505040 0.504653 -0.173788
C8    C     C_R   0.671861 0.492077 0.497130 -0.184562
C9    C     C_R   0.288557 0.409029 0.392136 -0.109176
C10   C     C_R   0.698671 0.545129 0.409062 -0.092531
C11   C     C_R   0.228682 0.419354 0.393448 0.026567
C12   C     C_R   0.758910 0.538853 0.409872 -0.005214
C13   C     C_R   0.210027 0.509885 0.520990 0.275489
C14   C     C_R   0.792197 0.489533 0.507490 0.266020
C15   C     C_2   0.494282 0.110515 0.403550 -0.204780
C16   C     C_2   0.508484 0.889534 0.596450 -0.204420
C17   C     C_2   0.521895 0.068779 0.506603 -0.096351
C18   C     C_2   0.520627 0.931147 0.490791 -0.089992
C19   C     C_2   0.509094 0.495992 0.076670 0.040373
C20   C     C_2   0.497185 0.485117 0.916932 0.010111
C21   C     C_R   0.391038 0.500243 0.500853 0.786342
C22   C     C_R   0.609034 0.498111 0.498869 0.759142
C23   C     C_R   0.884851 0.613949 0.577475 0.595960
C24   C     C_R   0.122510 0.399475 0.534375 0.615003
C25   C     C_R   0.881363 0.379605 0.492736 0.571592
C26   C     C_R   0.122327 0.624213 0.559389 0.562894
C27   C     C_R   0.942232 0.381931 0.518076 -0.101113
C28   C     C_R   0.064456 0.629522 0.583017 -0.102242
C29   C     C_R   0.973583 0.503886 0.554294 0.005136
C30   C     C_R   0.033763 0.509377 0.558006 0.004488
C31   C     C_R   0.944683 0.620370 0.584644 -0.038574
C32   C     C_R   0.063100 0.394061 0.534441 -0.045873
C33   C     C_R   0.972916 0.267629 0.503306 -0.044200
C34   C     C_R   0.035424 0.747913 0.624085 -0.027424
C35   C     C_R   0.032823 0.275656 0.511189 -0.093194
C36   C     C_R   0.975869 0.741044 0.622739 -0.098587
Cu1   Cu    Cu3+1 0.509980 0.521810 0.644910 0.960781
Cu2   Cu    Cu3+1 0.490020 0.478190 0.355090 0.983373
H1    H     H_    0.234723 0.668953 0.730107 0.193418
H2    H     H_    0.791692 0.397498 0.663754 0.193175
N1    N     N_R   0.854211 0.494556 0.525260 -0.433338
N2    N     N_R   0.150271 0.511176 0.538546 -0.434133
N3    N     N_2   0.475010 0.445410 0.137370 -0.242727
N4    N     N_2   0.524990 0.554590 0.862630 -0.264059
O1    O     O_R   0.505330 0.332340 0.577400 -0.563910
O2    O     O_R   0.494670 0.667660 0.422600 -0.552949
O3    O     O_R   0.488470 0.295500 0.332650 -0.578027
O4    O     O_R   0.511530 0.704500 0.667350 -0.610691
O5    O     O_R   0.426310 0.518390 0.622390 -0.578363
O6    O     O_R   0.573690 0.481610 0.377610 -0.572992
O7    O     O_R   0.409450 0.481550 0.377650 -0.608410
O8    O     O_R   0.590550 0.518450 0.622350 -0.602635
O9    O     O_2   0.857253 0.726002 0.619857 -0.542361
O10   O     O_2   0.152152 0.292903 0.526177 -0.510650
O11   O     O_2   0.849268 0.264132 0.430632 -0.536213
O12   O     O_2   0.149807 0.728261 0.549879 -0.528896
C37   C     C_2   0.945092 0.140965 0.490601 0.519710
H3    H     H_    0.907630 0.139394 0.541730 0.112652
O13   O     O_2   0.964746 0.036458 0.425599 -0.485817
C38   C     C_2   0.066074 0.880759 0.681046 0.491800
H4    H     H_    0.110627 0.896687 0.735169 0.117739
O14   O     O_2   0.041231 0.975447 0.672308 -0.512186
C39   C     C_2   0.563246 0.665871 0.955192 0.616696
H5    H     H_    0.598907 0.692859 0.911843 0.075680
O15   O     O_2   0.554178 0.737800 0.077349 -0.589088
C40   C     C_2   0.419706 0.387813 0.057223 0.567739
H6    H     H_    0.381442 0.435612 0.092392 0.044710
O16   O     O_2   0.414750 0.281893 0.953215 -0.527895
H7    H     H_    0.055985 0.188232 0.498962 0.231767
H8    H     H_    0.953729 0.831159 0.652518 0.221012
C41   C     C_2   0.347339 0.713480 0.738343 0.448458
H9    H     H_    0.389179 0.737769 0.718330 0.069218
O17   O     O_2   0.332580 0.780668 0.855521 -0.500489
C42   C     C_2   0.679615 0.359056 0.662211 0.432322
H10   H     H_    0.634962 0.320848 0.628181 0.069991
O18   O     O_2   0.708235 0.337600 0.763995 -0.502130
C43   C     C_2   0.309263 0.293836 0.278612 0.333887
H11   H     H_    0.340908 0.306274 0.215320 0.103931
O19   O     O_2   0.291621 0.182211 0.257389 -0.495840
C44   C     C_2   0.663708 0.609639 0.319615 0.353659
H12   H     H_    0.631733 0.675954 0.367066 0.082581
O20   O     O_2   0.668769 0.585732 0.191033 -0.541373
C45   C     C_2   0.186349 0.342011 0.258061 0.454448
H13   H     H_    0.198639 0.257061 0.171160 0.121271
O21   O     O_2   0.137606 0.376045 0.237846 -0.519662
C46   C     C_2   0.787341 0.586957 0.312517 0.527577
H14   H     H_    0.771745 0.669908 0.287013 0.105454
O22   O     O_2   0.828124 0.533044 0.258010 -0.505520
H15   H     H_    0.529307 0.860304 0.386129 0.216756
H16   H     H_    0.546444 0.139479 0.608428 0.195762
C47   C     C_2   0.496209 0.977662 0.744617 0.424077
H17   H     H_    0.489650 0.935915 0.825428 0.091649
O23   O     O_2   0.492078 0.095638 0.778097 -0.496489
C48   C     C_2   0.459819 0.022576 0.258953 0.469539
H18   H     H_    0.443825 0.063076 0.176652 0.105963
O24   O     O_2   0.447386 0.906549 0.230755 -0.491088
H19   H     H_    0.465351 0.410019 0.839464 0.198074
H20   H     H_    0.548830 0.547514 0.145349 0.189367

loop_
_geom_bond_atom_site_label_1
_geom_bond_atom_site_label_2
_ccdc_geom_bond_type
C40   O16   D    
C39   O15   D    
C27   C29   A    
C24   N2    A    
C19   C20   S    
C15   C48   S    
C21   O5    A    
C43   H11   S    
C27   C33   A    
Cu1   Cu2   S    
C42   O18   D    
C46   O22   D    
C37   O13   D    
C24   O10   S    
C38   O14   D    
C20   H19   S    
C4    H2    S    
C36   H8    S    
C8    C22   S    
C6    C42   S    
C1    C15   S    
C2    C16   S    
C3    C13   A    
C22   O6    A    
C40   H6    S    
C3    H1    S    
C34   C38   S    
C13   N2    S    
C20   N4    D    
C19   H20   S    
C19   N3    D    
C23   O9    S    
C43   O19   D    
N4    C39   S    
C42   H10   S    
C32   C35   A    
C4    C6    A    
C25   N1    A    
C47   H17   S    
C5    C7    A    
Cu1   O8    S    
C10   C44   S    
C46   H14   S    
C1    O3    A    
C6    C8    A    
Cu2   O7    S    
C11   C45   S    
C7    C21   S    
C2    O2    A    
C38   H4    S    
C23   C31   A    
C24   C32   A    
C29   C30   A    
C47   O23   D    
Cu1   O5    S    
C45   H13   S    
C29   C31   A    
C17   C18   S    
C16   C18   D    
C9    C43   S    
Cu1   O4    S    
C48   O24   D    
C9    C11   A    
Cu2   O3    S    
C10   C12   A    
C14   N1    S    
C44   O20   D    
C45   O21   D    
C12   C14   A    
Cu1   O1    S    
C21   O7    A    
C26   N2    A    
C22   O8    A    
C7    C9    A    
C33   C37   S    
C18   H15   S    
C17   H16   S    
C25   O11   S    
C44   H12   S    
C3    C5    A    
C26   O12   S    
C15   C17   D    
Cu2   O6    S    
C25   C27   A    
C26   C28   A    
C23   N1    A    
C12   C46   S    
C2    O4    A    
Cu1   N4    S    
C28   C30   A    
Cu2   N3    S    
C5    C41   S    
C30   C32   A    
C11   C13   A    
C1    O1    A    
C37   H3    S    
N3    C40   S    
C33   C35   A    
C34   C36   A    
C4    C14   A    
C48   H18   S    
Cu2   O2    S    
C28   C34   A    
C39   H5    S    
C41   H9    S    
C35   H7    S    
C16   C47   S    
C8    C10   A    
C41   O17   D    
C31   C36   A    
