data_mof_unit_39224.cif
_audit_creation_date              2013-03-05T16:33:11-0500
_audit_creation_method            fapswitch 2.2
_symmetry_space_group_name_H-M    P1
_symmetry_Int_Tables_number       1
_space_group_crystal_system       triclinic
_cell_length_a                    27.793177
_cell_length_b                    10.792517
_cell_length_c                    9.573763
_cell_angle_alpha                 89.849216
_cell_angle_beta                  89.248961
_cell_angle_gamma                 91.979557
_cell_volume                      2869.75597462

loop_
_atom_site_label
_atom_site_type_symbol
_atom_site_description
_atom_site_fract_x
_atom_site_fract_y
_atom_site_fract_z
_atom_type_partial_charge
O1    O     O_R   0.500000 0.319640 0.618810 -0.610914
O2    O     O_R   0.500010 0.319680 0.381230 -0.586439
C1    C     C_R   0.499148 0.262582 0.499863 0.779720
O3    O     O_R   0.430260 0.500000 0.618780 -0.611660
O4    O     O_R   0.430270 0.500040 0.381190 -0.559537
C2    C     C_R   0.407696 0.504825 0.500520 0.848330
Cu1   Cu    Cu3+1 0.500000 0.499980 0.640670 0.936982
Cu2   Cu    Cu3+1 0.500000 0.500020 0.359330 0.986439
O5    O     O_R   0.499990 0.680320 0.618770 -0.606587
O6    O     O_R   0.500000 0.680360 0.381190 -0.549364
O7    O     O_R   0.569730 0.499960 0.618810 -0.578714
O8    O     O_R   0.569740 0.500000 0.381220 -0.553332
C3    C     C_R   0.499849 0.737436 0.499686 0.839808
C4    C     C_R   0.592463 0.496264 0.499312 0.825449
C5    C     C_R   0.177957 0.389987 0.456579 0.524814
O9    O     O_2   0.202781 0.289416 0.420433 -0.554369
N1    N     N_R   0.202145 0.497187 0.493554 -0.454156
C6    C     C_R   0.178044 0.600454 0.531562 0.541802
C7    C     C_R   0.280033 0.569886 0.388952 -0.044720
C8    C     C_R   0.330867 0.579768 0.395465 -0.066691
C9    C     C_R   0.328016 0.446418 0.602094 -0.259869
C10   C     C_R   0.278044 0.441747 0.598744 -0.142331
C11   C     C_R   0.253866 0.501775 0.492486 0.322292
C12   C     C_R   0.101863 0.490700 0.490641 -0.045342
C13   C     C_R   0.127387 0.384517 0.455212 -0.018940
C14   C     C_R   0.102026 0.275887 0.418013 -0.154068
C15   C     C_R   0.127610 0.599725 0.528891 -0.012755
C16   C     C_R   0.354906 0.513073 0.500502 -0.050790
H1    H     H_    0.345743 0.395649 0.683086 0.181368
H2    H     H_    0.257873 0.390396 0.678723 0.152178
H3    H     H_    0.120800 0.193427 0.388417 0.183437
C17   C     C_R   0.645265 0.485556 0.498315 -0.044707
C18   C     C_R   0.973977 0.371100 0.461711 0.042360
C19   C     C_R   0.974724 0.595987 0.509399 0.043674
C20   C     C_R   0.949068 0.482068 0.485382 0.070913
C21   C     C_R   0.946570 0.259074 0.446054 -0.200934
C22   C     C_R   0.896536 0.256923 0.449300 -0.134875
C23   C     C_R   0.871764 0.366139 0.468142 -0.019392
C24   C     C_R   0.897890 0.479087 0.485609 -0.038507
C25   C     C_R   0.872715 0.589064 0.503738 -0.019749
C26   C     C_R   0.822208 0.583974 0.505191 0.598136
N2    N     N_R   0.797631 0.472811 0.491483 -0.448158
C27   C     C_R   0.821201 0.364992 0.471812 0.586207
C28   C     C_R   0.720704 0.465313 0.371796 -0.142151
C29   C     C_R   0.670766 0.471827 0.372215 -0.146714
C30   C     C_R   0.670444 0.485335 0.624574 -0.277119
C31   C     C_R   0.720650 0.477576 0.625971 0.029924
C32   C     C_R   0.746007 0.470011 0.497259 0.342727
O10   O     O_2   0.795777 0.257138 0.456998 -0.525999
C33   C     C_R   0.025169 0.375438 0.455961 0.043555
C34   C     C_R   0.050705 0.487814 0.488320 0.067399
C35   C     C_R   0.025696 0.597348 0.518689 0.044140
C36   C     C_R   0.051981 0.271138 0.418399 -0.205982
H4    H     H_    0.652237 0.466161 0.273647 0.198995
H5    H     H_    0.740006 0.458114 0.273298 0.154513
H6    H     H_    0.877299 0.168622 0.437354 0.188893
H7    H     H_    0.962644 0.170274 0.434433 0.136896
H8    H     H_    0.035429 0.184519 0.385676 0.138767
O11   O     O_2   0.202854 0.703537 0.571965 -0.593866
C37   C     C_R   0.102619 0.705352 0.564414 -0.157006
H9    H     H_    0.121576 0.789848 0.596193 0.182710
C38   C     C_R   0.948294 0.705212 0.522550 -0.201709
C39   C     C_R   0.898334 0.701527 0.519895 -0.135953
O12   O     O_2   0.797755 0.689023 0.521167 -0.519076
C40   C     C_R   0.052717 0.704493 0.559387 -0.206603
H10   H     H_    0.965148 0.796076 0.532282 0.136872
H11   H     H_    0.650910 0.490117 0.722821 0.196869
H12   H     H_    0.879829 0.787736 0.531267 0.188652
H13   H     H_    0.036362 0.788973 0.591615 0.139506
C41   C     C_R   0.462287 0.059997 0.569070 0.049241
C42   C     C_R   0.497703 0.129328 0.496181 -0.057444
C43   C     C_R   0.528792 0.068005 0.404822 -0.192183
H14   H     H_    0.554399 0.119839 0.339098 0.152703
C44   C     C_R   0.529137 0.938705 0.405177 -0.209084
H15   H     H_    0.555074 0.892649 0.340489 0.138512
C45   C     C_R   0.498401 0.870580 0.496447 -0.092571
C46   C     C_R   0.462933 0.932437 0.569758 0.125995
C47   C     C_3   0.445896 0.924531 0.718153 -0.199425
C48   C     C_3   0.444115 0.065728 0.716350 -0.513313
H16   H     H_    0.474214 0.893955 0.788877 0.137837
H17   H     H_    0.407264 0.102259 0.723201 0.207533
H18   H     H_    0.470670 0.111138 0.787334 0.201343
C49   C     C_R   0.535242 0.564541 0.072088 0.283682
N3    N     N_R   0.500300 0.500930 0.147930 -0.230147
C50   C     C_R   0.467580 0.429998 0.077812 -0.055041
H19   H     H_    0.441421 0.374764 0.137838 0.190410
C51   C     C_R   0.466860 0.429591 0.929392 0.055995
N4    N     N_R   0.500310 0.500890 0.852020 -0.251936
C52   C     C_R   0.535272 0.563815 0.924281 0.238933
C53   C     C_3   0.545070 0.700138 0.915607 -0.335441
C54   C     C_3   0.544920 0.702436 0.075193 -0.315006
H20   H     H_    0.514100 0.747500 0.872685 0.127683
H21   H     H_    0.513952 0.752785 0.119110 0.150756
C55   C     C_R   0.253900 0.629146 0.273815 0.077880
C56   C     C_R   0.252090 0.758818 0.264819 -0.100076
C57   C     C_R   0.228506 0.813910 0.153769 -0.124173
C58   C     C_R   0.206618 0.740063 0.051273 -0.109401
C59   C     C_R   0.208117 0.610966 0.059958 -0.147355
C60   C     C_R   0.231610 0.555513 0.170930 -0.150255
H22   H     H_    0.269140 0.816909 0.343239 0.143129
H23   H     H_    0.227332 0.913870 0.146917 0.147074
H24   H     H_    0.188567 0.782838 0.965018 0.144288
H25   H     H_    0.191260 0.553904 0.980339 0.141088
H26   H     H_    0.232900 0.455425 0.175977 0.163018
C61   C     C_2   0.744697 0.477299 0.763596 0.417943
H27   H     H_    0.723835 0.493810 0.858008 0.090230
O13   O     O_2   0.787403 0.456890 0.774532 -0.532257
C62   C     C_R   0.397946 0.854758 0.736117 0.173975
C63   C     C_R   0.393231 0.759371 0.836257 -0.112532
C64   C     C_R   0.349470 0.692961 0.854077 -0.138791
C65   C     C_R   0.309974 0.721406 0.772726 -0.078860
C66   C     C_R   0.314363 0.815047 0.671935 -0.121935
C67   C     C_R   0.358084 0.881150 0.653005 -0.121573
H28   H     H_    0.423412 0.736041 0.900502 0.121820
H29   H     H_    0.346193 0.619235 0.930808 0.144682
H30   H     H_    0.276087 0.670230 0.787071 0.162033
H31   H     H_    0.283922 0.836602 0.608207 0.179060
H32   H     H_    0.360768 0.952805 0.573669 0.142838
C68   C     C_2   0.428486 0.352133 0.863471 0.322712
H33   H     H_    0.430917 0.323125 0.756805 0.136084
O14   O     O_2   0.392782 0.317107 0.930274 -0.593967
C69   C     C_2   0.591528 0.734310 0.839093 0.431130
H34   H     H_    0.591807 0.807001 0.760576 0.065798
O15   O     O_2   0.628778 0.682213 0.864095 -0.547029
C70   C     C_2   0.591937 0.744271 0.139675 0.487785
H35   H     H_    0.603638 0.840950 0.130982 0.050513
O16   O     O_2   0.617206 0.672066 0.200411 -0.534876
C71   C     C_2   0.357822 0.661860 0.294243 0.361589
H36   H     H_    0.345581 0.670162 0.187663 0.072980
O17   O     O_2   0.392545 0.725544 0.330800 -0.548849

loop_
_geom_bond_atom_site_label_1
_geom_bond_atom_site_label_2
_geom_bond_distance
_ccdc_geom_bond_type
C28   C32   1.399953 A    
C51   N4    1.390914 A    
C17   C29   1.402669 A    
C1    C42   1.437858 S    
C56   C57   1.398351 A    
C12   C15   1.407714 A    
C71   H36   1.084272 S    
C48   H18   1.112042 S    
C58   C59   1.397624 A    
Cu1   Cu2   2.693480 S    
C46   C47   1.492926 S    
Cu1   O7    1.946564 S    
C61   O13   1.220425 D    
N1    C11   1.436532 S    
C25   C39   1.395812 A    
C44   C45   1.402665 A    
C49   N3    1.369110 A    
C21   C22   1.389942 A    
C8    C71   1.488608 S    
C15   C37   1.395780 A    
O4    C2    1.298159 A    
O7    C4    1.301021 A    
C47   H16   1.103417 S    
C5    C13   1.404938 A    
C59   H25   1.082457 S    
C19   C38   1.415356 A    
C18   C21   1.415901 A    
C62   C63   1.406527 A    
C47   C62   1.515470 S    
C19   C20   1.420610 A    
C26   N2    1.367378 A    
O5    C3    1.294741 A    
C64   C65   1.396524 A    
C39   H12   1.083588 S    
C22   H6    1.083555 S    
C2    C16   1.472982 S    
C31   C32   1.415460 A    
C31   C61   1.485250 S    
C65   H30   1.082245 S    
C10   H2    1.082949 S    
C58   H24   1.082400 S    
C12   C34   1.421561 A    
C68   O14   1.221798 D    
C60   H26   1.083001 S    
C14   H3    1.083562 S    
O1    Cu1   1.958089 S    
C57   H23   1.082280 S    
C41   C46   1.377428 A    
C53   C69   1.510199 S    
O3    Cu1   1.952332 S    
C66   C67   1.397158 A    
C33   C34   1.420884 A    
C45   C46   1.392791 A    
C50   C51   1.421356 A    
C23   C24   1.408629 A    
C49   C52   1.415101 A    
C33   C36   1.415912 A    
C44   H15   1.079341 S    
C38   H10   1.076890 S    
C34   C35   1.420725 A    
C12   C13   1.408352 A    
O3    C2    1.303223 A    
C21   H7    1.076702 S    
C24   C25   1.408454 A    
C48   H17   1.111324 S    
C56   H22   1.082837 S    
C27   O10   1.349458 S    
C8    C16   1.422243 A    
C18   C33   1.422288 A    
C50   H19   1.082347 S    
C9    H1    1.081957 S    
C37   H9    1.083622 S    
O1    C1    1.296133 A    
C62   C67   1.409029 A    
C20   C24   1.421636 A    
C51   C68   1.481043 S    
C22   C23   1.396368 A    
C54   H21   1.112155 S    
C53   H20   1.099828 S    
Cu1   N4    2.023595 S    
C3    C45   1.439171 S    
Cu2   O8    1.952326 S    
C57   C58   1.398015 A    
C38   C39   1.388302 A    
N1    C6    1.367690 A    
N2    C32   1.434415 S    
N3    C50   1.354366 A    
C68   H33   1.070861 S    
C41   C42   1.394314 A    
C7    C55   1.483582 S    
C63   H28   1.082881 S    
C43   C44   1.395827 A    
C25   C26   1.402818 A    
C9    C16   1.400760 A    
O8    C4    1.303436 A    
C29   H4    1.081807 S    
C70   H35   1.084801 S    
N2    C27   1.367202 A    
C69   O15   1.221168 D    
C52   C53   1.488890 S    
C14   C36   1.390042 A    
C28   C29   1.392111 A    
C7    C11   1.411416 A    
C5    N1    1.367655 A    
C30   C31   1.400999 A    
C54   C70   1.508118 S    
C65   C66   1.396644 A    
C41   C48   1.493662 S    
Cu2   N3    2.023799 S    
C17   C30   1.404688 A    
O2    Cu2   1.957045 S    
C6    C15   1.402035 A    
C4    C17   1.475966 S    
C43   H14   1.083647 S    
O6    C3    1.292359 A    
C71   O17   1.220873 D    
C37   C40   1.388104 A    
O4    Cu2   1.946566 S    
C36   H8    1.076709 S    
C49   C54   1.503619 S    
C61   H27   1.085910 S    
C19   C35   1.420196 A    
C7    C8    1.415372 A    
O2    C1    1.290289 A    
C13   C14   1.396359 A    
C23   C27   1.404917 A    
C63   C64   1.398481 A    
C47   C48   1.526448 S    
C28   H5    1.083075 S    
C53   C54   1.528057 S    
C66   H31   1.080993 S    
C55   C60   1.404147 A    
C40   H13   1.076822 S    
C18   C20   1.421099 A    
C55   C56   1.404584 A    
C67   H32   1.082569 S    
Cu1   O5    1.957043 S    
C6    O11   1.348736 S    
C30   H11   1.082099 S    
C42   C43   1.404417 A    
N4    C52   1.363271 A    
Cu2   O6    1.958088 S    
C59   C60   1.398247 A    
C70   O16   1.218509 D    
C10   C11   1.396663 A    
C26   O12   1.349854 S    
C69   H34   1.084863 S    
C9    C10   1.388848 A    
C64   H29   1.082233 S    
C35   C40   1.415287 A    
C5    O9    1.349572 S    
