data_mof_unit_56437.cif
_audit_creation_date              2012-12-10T16:57:53-0500
_audit_creation_method            fapswitch 2.2
_symmetry_space_group_name_H-M    P1
_symmetry_Int_Tables_number       1
_space_group_crystal_system       triclinic
_cell_length_a                    10.705132
_cell_length_b                    10.988358
_cell_length_c                    9.717909
_cell_angle_alpha                 92.518144
_cell_angle_beta                  90.711343
_cell_angle_gamma                 90.520785
_cell_volume                      1141.89036193

loop_
_atom_site_label
_atom_site_type_symbol
_atom_type_description
_atom_site_fract_x
_atom_site_fract_y
_atom_site_fract_z
_atom_type_partial_charge
C1    C     C_R   0.500915 0.265539 0.496825 0.862218
C2    C     C_3   0.956265 0.586209 0.410883 -0.254724
C3    C     C_3   0.034481 0.471558 0.374280 -0.023309
C4    C     C_3   0.123300 0.504200 0.496740 -0.195310
C5    C     C_2   0.506458 0.929215 0.401710 -0.178266
C6    C     C_2   0.535153 0.864043 0.511624 -0.029285
C7    C     C_2   0.537711 0.058063 0.393798 0.140743
C8    C     C_2   0.487352 0.134289 0.490148 -0.362687
C9    C     C_2   0.413218 0.450045 0.919032 -0.042275
C10   C     C_2   0.430918 0.426299 0.070443 0.215046
C11   C     C_R   0.259682 0.500304 0.498904 0.858291
C12   C     C_R   0.506648 0.734207 0.503116 0.889810
C13   C     C_R   0.740208 0.505726 0.501824 0.832081
C14   C     C_3   0.042642 0.428785 0.592177 -0.211312
C15   C     C_3   0.953823 0.395540 0.469780 -0.082818
C16   C     C_3   0.876629 0.509318 0.506926 -0.122659
C17   C     C_3   0.965019 0.542702 0.630009 -0.049888
C18   C     C_3   0.045968 0.617817 0.533802 -0.039584
Cu1   Cu    Cu3+1 0.500030 0.500020 0.638630 1.018028
Cu2   Cu    Cu3+1 0.499970 0.499980 0.361370 0.959197
H1    H     H_    0.431608 0.096826 0.571432 0.160777
H2    H     H_    0.329952 0.416066 0.865367 0.189378
H3    H     H_    0.581302 0.521727 0.896971 0.222935
H4    H     H_    0.532805 0.576612 0.111475 0.188123
H5    H     H_    0.919094 0.651842 0.337274 0.171455
H6    H     H_    0.463136 0.885642 0.310290 0.165534
N1    N     N_2   0.498620 0.498660 0.846910 -0.292958
N2    N     N_2   0.498590 0.498630 0.153040 -0.299872
O1    O     O_R   0.500020 0.321960 0.617040 -0.551018
O2    O     O_R   0.499980 0.321920 0.382900 -0.619500
O3    O     O_R   0.316870 0.499990 0.617050 -0.565552
O4    O     O_R   0.316830 0.499950 0.382910 -0.568740
O5    O     O_R   0.500020 0.678080 0.617100 -0.554805
O6    O     O_R   0.499980 0.678040 0.382960 -0.593360
O7    O     O_R   0.683170 0.500050 0.617090 -0.525001
O8    O     O_R   0.683130 0.500010 0.382950 -0.589664
C19   C     C_2   0.899299 0.269763 0.450354 0.846282
O9    O     O_2   0.924092 0.205937 0.348671 -0.558447
O10   O     O_R   0.823180 0.225290 0.552949 -0.752606
H7    H     H_    0.795120 0.138078 0.532883 0.332035
C20   C     C_3   0.373482 0.311380 0.124670 -0.357358
C21   C     C_3   0.298701 0.230219 0.021070 -0.805596
H8    H     H_    0.213963 0.277723 0.986928 0.313064
H9    H     H_    0.356639 0.203093 0.930933 0.255568
H10   H     H_    0.268457 0.146159 0.071230 0.265734
H11   H     H_    0.451255 0.255161 0.158419 0.217396
H12   H     H_    0.312492 0.333589 0.212911 0.246190
C22   C     C_2   0.089897 0.336336 0.689718 0.921246
O11   O     O_2   0.057627 0.342121 0.809659 -0.533083
O12   O     O_R   0.167834 0.241963 0.644180 -0.736192
H13   H     H_    0.186833 0.244600 0.542462 0.278391
C23   C     C_2   0.939554 0.586808 0.775795 0.923785
O13   O     O_2   0.027507 0.614870 0.852454 -0.573493
O14   O     O_R   0.817635 0.596240 0.823789 -0.761632
H14   H     H_    0.814190 0.627381 0.923425 0.322460
C24   C     C_2   0.096502 0.743884 0.566289 0.895586
O15   O     O_2   0.024638 0.826761 0.593970 -0.602373
O16   O     O_R   0.224980 0.766315 0.564631 -0.762357
H15   H     H_    0.247094 0.854787 0.588091 0.332913
C25   C     C_2   0.071377 0.443538 0.228044 0.872528
O17   O     O_2   0.040614 0.347051 0.169756 -0.536302
O18   O     O_R   0.138457 0.530510 0.157852 -0.722305
H16   H     H_    0.157094 0.502460 0.059583 0.358495
C26   C     C_3   0.608803 0.913865 0.637871 -0.440313
C27   C     C_3   0.738530 0.857846 0.643471 -0.723862
H17   H     H_    0.732339 0.757851 0.652752 0.261000
H18   H     H_    0.790022 0.877490 0.548476 0.262504
H19   H     H_    0.791480 0.897399 0.733973 0.273775
H20   H     H_    0.623302 0.013501 0.640970 0.232228
H21   H     H_    0.557241 0.892927 0.732635 0.225070
C28   C     C_3   0.618811 0.095254 0.275055 -0.374420
C29   C     C_3   0.728226 0.008599 0.249857 -0.721760
H22   H     H_    0.784159 0.998886 0.345336 0.262195
H23   H     H_    0.693844 0.917149 0.212658 0.228386
H24   H     H_    0.789562 0.044711 0.169535 0.278770
H25   H     H_    0.561094 0.091239 0.179508 0.193913
H26   H     H_    0.658043 0.188382 0.292439 0.241556

loop_
_geom_bond_atom_site_label_1
_geom_bond_atom_site_label_2
_ccdc_geom_bond_type
C2    C18   S    
C1    C8    S    
C20   C21   S    
Cu1   Cu2   S    
Cu1   O3    S    
C7    C8    D    
Cu2   O2    S    
O18   H16   S    
C13   O7    A    
C6    C12   S    
C5    C6    D    
C9    H2    S    
C15   C16   S    
C24   O15   D    
C25   O18   S    
C6    C26   S    
C15   C19   S    
C16   C17   S    
C27   H18   S    
C20   H11   S    
H3    N1    S    
C2    C16   S    
C9    C10   S    
C18   C24   S    
Cu2   O6    S    
C3    C25   S    
C22   O12   S    
C11   O3    A    
C10   C20   S    
C14   C17   S    
C21   H9    S    
C29   H24   S    
C17   C23   S    
Cu1   N1    S    
C23   O14   S    
C8    H1    S    
C13   O8    A    
C29   H23   S    
Cu1   O5    S    
O10   H7    S    
C5    C7    S    
C14   C22   S    
Cu2   N2    S    
O12   H13   S    
O16   H15   S    
C25   O17   D    
C21   H10   S    
C19   O9    D    
C27   H19   S    
C1    O1    A    
C17   C18   S    
C20   H12   S    
C26   H20   S    
C4    C11   S    
C22   O11   D    
C11   O4    A    
C26   H21   S    
C21   H8    S    
C12   O6    A    
C3    C4    S    
Cu1   O1    S    
C28   H26   S    
C3    C15   S    
C23   O13   D    
C9    N1    D    
Cu2   O4    S    
C10   N2    D    
O14   H14   S    
H4    N2    S    
C29   H22   S    
C26   C27   S    
C2    C3    S    
C4    C18   S    
C28   C29   S    
C19   O10   S    
Cu1   O7    S    
C7    C28   S    
C28   H25   S    
C1    O2    A    
C24   O16   S    
C2    H5    S    
C4    C14   S    
C5    H6    S    
Cu2   O8    S    
C27   H17   S    
C13   C16   S    
C14   C15   S    
C12   O5    A    
