data_mof_unit_22262.cif
_audit_creation_date              2012-12-11T21:05:44-0500
_audit_creation_method            fapswitch 2.2
_symmetry_space_group_name_H-M    P1
_symmetry_Int_Tables_number       1
_space_group_crystal_system       triclinic
_cell_length_a                    36.386793
_cell_length_b                    39.917174
_cell_length_c                    8.431476
_cell_angle_alpha                 90.34613
_cell_angle_beta                  92.660224
_cell_angle_gamma                 90.006206
_cell_volume                      12232.9427164

loop_
_atom_site_label
_atom_site_type_symbol
_atom_type_description
_atom_site_fract_x
_atom_site_fract_y
_atom_site_fract_z
_atom_type_partial_charge
Ba1   Ba    Ba6+2 0.000060 0.523150 0.844950 1.657669
Ba2   Ba    Ba6+2 0.000060 0.476850 0.344950 1.658129
Ba3   Ba    Ba6+2 0.500060 0.023150 0.844950 1.654248
Ba4   Ba    Ba6+2 0.500060 0.976850 0.344950 1.659655
C1    C     C_3   0.967857 0.652703 0.559416 -0.335105
C2    C     C_2   0.888633 0.616770 0.245185 -0.109746
C3    C     C_R   0.674146 0.839625 0.872835 0.622130
C4    C     C_2   0.113841 0.616418 0.455231 0.160959
C5    C     C_2   0.095850 0.365859 0.895462 0.170537
C6    C     C_2   0.613744 0.116561 0.454866 0.160881
C7    C     C_2   0.595902 0.865911 0.895630 0.170664
C8    C     C_3   0.083588 0.590920 0.487130 -0.110877
C9    C     C_3   0.061115 0.386853 0.918407 -0.081189
C10   C     C_3   0.583562 0.091004 0.486973 -0.110898
C11   C     C_3   0.561132 0.886862 0.918466 -0.081249
C12   C     C_1   0.083188 0.575038 0.209195 0.058017
C13   C     C_2   0.392348 0.878803 0.744947 -0.101775
C14   C     C_1   0.082600 0.425577 0.714503 0.020285
C15   C     C_1   0.583163 0.075057 0.209107 0.058273
C16   C     C_1   0.582611 0.925613 0.714677 0.020127
C17   C     C_2   0.107464 0.598520 0.173961 -0.146835
C18   C     C_2   0.112780 0.407533 0.694837 -0.119781
C19   C     C_2   0.607411 0.098555 0.173734 -0.146527
C20   C     C_2   0.612835 0.907628 0.695230 -0.119845
C21   C     C_2   0.124773 0.620763 0.303113 0.192927
C22   C     C_2   0.120704 0.375596 0.785832 0.196025
C23   C     C_2   0.624671 0.120872 0.302714 0.193079
C24   C     C_2   0.388281 0.116146 0.244961 -0.108062
C25   C     C_2   0.620775 0.875700 0.786196 0.195946
C26   C     C_R   0.747328 0.282073 0.146495 0.020162
C27   C     C_R   0.766949 0.730712 0.714664 0.015761
C28   C     C_R   0.247475 0.781932 0.147254 0.020136
C29   C     C_R   0.266695 0.230387 0.714045 0.015676
C30   C     C_R   0.777966 0.273706 0.055437 0.049698
C31   C     C_R   0.783834 0.730930 0.566158 0.050654
C32   C     C_R   0.278103 0.773567 0.056138 0.049735
C33   C     C_R   0.283497 0.230534 0.565333 0.050634
C34   C     C_R   0.783447 0.240023 0.005165 0.019503
C35   C     C_3   0.919166 0.406437 0.706438 -0.066929
C36   C     C_R   0.777030 0.757683 0.458385 0.019771
C37   C     C_R   0.283575 0.739888 0.005805 0.019519
C38   C     C_R   0.276640 0.257248 0.457366 0.019844
C39   C     C_3   0.888889 0.518214 0.155484 0.308726
C40   C     C_3   0.890729 0.481047 0.657098 0.304621
C41   C     C_3   0.389238 0.021145 0.101801 0.281201
C42   C     C_3   0.390855 0.981156 0.658335 0.306221
C43   C     C_R   0.742632 0.316131 0.189479 -0.099609
C44   C     C_R   0.771773 0.702043 0.811127 -0.103236
C45   C     C_R   0.242760 0.815993 0.190140 -0.099581
C46   C     C_3   0.917052 0.590216 0.206294 -0.073780
C47   C     C_R   0.271614 0.201774 0.810832 -0.103151
C48   C     C_R   0.839494 0.258127 0.879158 -0.062763
C49   C     C_R   0.822987 0.733680 0.287365 -0.067459
C50   C     C_R   0.339637 0.757983 0.879921 -0.062754
C51   C     C_R   0.322413 0.233099 0.285830 -0.067603
C52   C     C_R   0.260966 0.680740 0.992896 -0.098392
C53   C     C_R   0.236311 0.305374 0.377488 -0.112198
C54   C     C_R   0.760900 0.180850 0.992678 -0.098414
C55   C     C_R   0.736604 0.805718 0.378277 -0.112272
C56   C     C_R   0.235981 0.656129 0.034226 -0.069966
C57   C     C_3   0.419285 0.906268 0.707069 -0.065887
C58   C     C_R   0.207877 0.327572 0.409898 -0.053206
C59   C     C_R   0.735923 0.156236 0.034064 -0.070019
C60   C     C_R   0.708118 0.827865 0.410594 -0.053177
C61   C     C_R   0.814837 0.233062 0.917442 -0.101530
C62   C     C_R   0.797524 0.758639 0.320018 -0.112101
C63   C     C_R   0.314974 0.732921 0.918159 -0.101582
C64   C     C_R   0.297016 0.258104 0.318634 -0.112204
C65   C     C_3   0.851301 0.531410 0.197992 -0.355850
C66   C     C_3   0.853475 0.465450 0.686471 -0.362356
C67   C     C_3   0.356209 0.039199 0.024184 -0.339755
C68   C     C_3   0.416926 0.089718 0.206384 -0.083544
C69   C     C_3   0.353857 0.963967 0.674808 -0.367346
C70   C     C_3   0.103913 0.477510 0.045013 0.294196
C71   C     C_3   0.111023 0.518642 0.531001 0.310237
C72   C     C_3   0.603943 0.977518 0.045107 0.294141
C73   C     C_3   0.610955 0.018671 0.530953 0.310274
C74   C     C_3   0.137666 0.455002 0.053209 -0.340119
C75   C     C_3   0.148182 0.529031 0.471242 -0.366379
C76   C     C_3   0.637698 0.955014 0.053549 -0.339996
C77   C     C_3   0.648129 0.029168 0.471715 -0.366515
C78   C     C_3   0.004099 0.644281 0.485835 0.533556
C79   C     C_1   0.919179 0.424216 0.981768 0.056258
C80   C     C_3   0.000180 0.345027 0.175346 0.469730
C81   C     C_3   0.503938 0.144227 0.486114 0.534086
C82   C     C_3   0.500224 0.844973 0.175178 0.469893
C83   C     C_R   0.823211 0.358013 0.017768 0.592504
C84   C     C_R   0.832364 0.647876 0.570232 0.585927
C85   C     C_R   0.323333 0.857874 0.018404 0.592810
C86   C     C_R   0.332140 0.147510 0.570060 0.586143
C87   C     C_3   0.039431 0.662219 0.260801 -0.169103
C88   C     C_3   0.960946 0.332554 0.937883 -0.268622
C89   C     C_3   0.539158 0.162239 0.260891 -0.168832
C90   C     C_1   0.919255 0.575397 0.483517 0.047037
C91   C     C_3   0.461114 0.832368 0.937516 -0.268798
C92   C     C_3   0.165779 0.614727 0.643390 -0.231373
C93   C     C_3   0.100270 0.303504 0.901146 -0.239219
C94   C     C_3   0.665678 0.115037 0.643076 -0.231299
C95   C     C_3   0.600436 0.803562 0.901050 -0.239292
C96   C     C_1   0.419233 0.924142 0.982278 0.054854
C97   C     C_3   0.995049 0.309986 0.247227 -0.372177
C98   C     C_1   0.419205 0.075261 0.483539 0.055522
C99   C     C_2   0.895182 0.400589 0.018980 -0.105445
C100  C     C_2   0.897117 0.600217 0.523752 -0.123319
C101  C     C_2   0.395260 0.900496 0.019544 -0.102906
C102  C     C_2   0.397037 0.100040 0.523733 -0.126568
C103  C     C_2   0.880127 0.376153 0.894008 0.195589
C104  C     C_2   0.879546 0.622838 0.398326 0.199910
C105  C     C_2   0.380252 0.876011 0.894668 0.194855
C106  C     C_2   0.379248 0.122394 0.397993 0.204041
C107  C     C_R   0.803405 0.299339 0.014098 -0.078917
C108  C     C_3   0.467705 0.152562 0.560010 -0.335844
C109  C     C_R   0.807622 0.704071 0.524614 -0.082119
C110  C     C_R   0.303539 0.799200 0.014801 -0.078924
C111  C     C_R   0.307261 0.203646 0.523797 -0.082086
C112  C     C_R   0.798018 0.332900 0.060356 -0.034709
C113  C     C_R   0.811053 0.675429 0.620263 -0.033877
C114  C     C_R   0.298144 0.832761 0.061017 -0.035053
C115  C     C_R   0.310806 0.175073 0.619870 -0.033839
C116  C     C_R   0.767337 0.340813 0.147383 -0.061093
C117  C     C_R   0.792585 0.674694 0.762874 -0.055734
C118  C     C_R   0.267457 0.840677 0.147998 -0.060721
C119  C     C_3   0.495118 0.809937 0.247168 -0.371784
C120  C     C_R   0.292440 0.174420 0.762748 -0.055500
C121  C     C_R   0.834174 0.291439 0.926035 -0.027081
C122  C     C_R   0.827889 0.705855 0.387196 -0.024511
C123  C     C_R   0.334312 0.791296 0.926772 -0.026919
C124  C     C_R   0.327399 0.205333 0.385973 -0.024284
C125  C     C_3   0.946274 0.666819 0.013024 0.337843
C126  C     C_3   0.007543 0.359193 0.609256 0.311838
C127  C     C_3   0.445899 0.166624 0.014037 0.339120
C128  C     C_3   0.507668 0.859207 0.609131 0.311901
C129  C     C_2   0.938662 0.420122 0.855271 -0.267567
C130  C     C_R   0.859243 0.316902 0.887038 0.579125
C131  C     C_2   0.937471 0.577800 0.353566 -0.259572
C132  C     C_2   0.438740 0.920034 0.855837 -0.268806
C133  C     C_2   0.437397 0.077481 0.353588 -0.249581
C134  C     C_2   0.064010 0.578706 0.336128 -0.304961
C135  C     C_2   0.058098 0.418258 0.819581 -0.300293
C136  C     C_2   0.563991 0.078729 0.336062 -0.304966
C137  C     C_2   0.558094 0.918267 0.819642 -0.300297
C138  C     C_R   0.222592 0.756256 0.191700 0.019972
C139  C     C_R   0.244923 0.258378 0.758881 0.020257
C140  C     C_R   0.722422 0.256401 0.190817 0.019964
C141  C     C_R   0.853231 0.680155 0.353571 0.579535
C142  C     C_R   0.745178 0.758690 0.759577 0.020250
C143  C     C_R   0.257802 0.714422 0.044858 0.020924
C144  C     C_R   0.249529 0.281846 0.491201 0.017577
C145  C     C_R   0.757690 0.214549 0.044337 0.020913
C146  C     C_R   0.749850 0.782221 0.492065 0.017602
C147  C     C_R   0.227640 0.722687 0.138954 0.051198
C148  C     C_R   0.234527 0.282761 0.643495 0.054971
C149  C     C_R   0.727500 0.222821 0.138260 0.051197
C150  C     C_R   0.734798 0.783087 0.644258 0.054964
C151  C     C_R   0.192669 0.762905 0.288513 -0.100647
C152  C     C_R   0.359381 0.816756 0.887787 0.579100
C153  C     C_R   0.232859 0.262919 0.914747 -0.105005
C154  C     C_R   0.692442 0.263064 0.287294 -0.100664
C155  C     C_R   0.733098 0.763200 0.915428 -0.105041
C156  C     C_R   0.168299 0.737875 0.328791 -0.060834
C157  C     C_R   0.210451 0.289967 0.953195 -0.082499
C158  C     C_R   0.668067 0.238034 0.327542 -0.060874
C159  C     C_R   0.710664 0.790227 0.953892 -0.082512
C160  C     C_R   0.172531 0.704867 0.275507 -0.036915
C161  C     C_R   0.197850 0.312675 0.836815 -0.047402
C162  C     C_R   0.672346 0.205010 0.274562 -0.036921
C163  C     C_R   0.352709 0.179609 0.352241 0.579000
C164  C     C_R   0.698036 0.812922 0.837488 -0.047378
C165  C     C_R   0.202215 0.697101 0.181011 -0.078649
C166  C     C_R   0.208696 0.308241 0.680644 -0.077413
C167  C     C_R   0.702075 0.197233 0.180331 -0.078626
C168  C     C_R   0.708921 0.808523 0.681346 -0.077507
C169  C     C_R   0.206464 0.663776 0.128943 -0.034754
C170  C     C_R   0.193639 0.329254 0.561460 -0.043287
C171  C     C_R   0.706366 0.163894 0.128541 -0.034811
C172  C     C_R   0.693851 0.829516 0.562116 -0.043173
C173  C     C_3   0.955403 0.701278 0.081774 -0.338598
C174  C     C_2   0.892190 0.378989 0.744245 -0.101884
C175  C     C_3   0.025141 0.324892 0.628833 -0.419111
C176  C     C_3   0.454705 0.201071 0.083673 -0.339038
C177  C     C_3   0.525323 0.824925 0.628507 -0.419172
C178  C     C_R   0.181143 0.638741 0.172515 0.579669
C179  C     C_R   0.163965 0.350750 0.595817 0.577265
C180  C     C_R   0.681053 0.138855 0.172169 0.579604
C181  C     C_R   0.664123 0.850949 0.596373 0.577234
C182  C     C_R   0.147425 0.679625 0.315453 0.612800
C183  C     C_R   0.174029 0.339429 0.872240 0.622146
C184  C     C_R   0.647245 0.179764 0.314537 0.612946
H1    H     H_    0.000286 0.620065 0.420928 -0.032131
H2    H     H_    0.856781 0.442514 0.758734 0.078065
H3    H     H_    0.465044 0.067423 0.348327 0.062149
H4    H     H_    0.035692 0.570128 0.336121 0.070773
H5    H     H_    0.033463 0.433310 0.828193 0.081785
H6    H     H_    0.535681 0.070134 0.336120 0.070944
H7    H     H_    0.533450 0.933307 0.828220 0.081862
H8    H     H_    0.916586 0.662160 0.027625 0.064099
H9    H     H_    0.024042 0.373774 0.526000 0.101367
H10   H     H_    0.416189 0.161813 0.027359 0.065641
H11   H     H_    0.524167 0.873849 0.526106 0.101486
H12   H     H_    0.951497 0.667061 0.884693 0.032422
H13   H     H_    0.359721 0.066708 0.031244 0.071549
H14   H     H_    0.008193 0.371680 0.726487 0.000263
H15   H     H_    0.451408 0.166984 0.885976 0.032393
H16   H     H_    0.508262 0.871644 0.726471 0.000065
H17   H     H_    0.937218 0.720338 0.023426 0.081071
H18   H     H_    0.048183 0.327125 0.716298 0.079330
H19   H     H_    0.436497 0.220088 0.025124 0.081172
H20   H     H_    0.548353 0.827162 0.716034 0.079411
H21   H     H_    0.951080 0.701632 0.211291 0.157474
H22   H     H_    0.037064 0.316229 0.517467 0.131359
H23   H     H_    0.450167 0.201289 0.213016 0.157506
H24   H     H_    0.356716 0.942154 0.754809 0.079428
H25   H     H_    0.537267 0.816318 0.517088 0.131624
H26   H     H_    0.906379 0.516217 0.266254 0.018084
H27   H     H_    0.905858 0.484547 0.773083 0.022887
H28   H     H_    0.391124 0.027097 0.230498 0.006232
H29   H     H_    0.403501 0.985503 0.778634 0.009921
H30   H     H_    0.901466 0.535343 0.070595 0.025260
H31   H     H_    0.906428 0.464423 0.579173 0.030601
H32   H     H_    0.414301 0.029801 0.044489 0.057648
H33   H     H_    0.408943 0.965144 0.587705 0.034821
H34   H     H_    0.015318 0.693863 0.422596 0.205775
H35   H     H_    0.834237 0.536508 0.088154 0.119461
H36   H     H_    0.041261 0.682610 0.172706 0.116958
H37   H     H_    0.032820 0.638414 0.197355 0.124284
H38   H     H_    0.066082 0.659533 0.324676 0.149594
H39   H     H_    0.018065 0.328795 0.956376 0.185890
H40   H     H_    0.960045 0.305193 0.913199 0.148358
H41   H     H_    0.955159 0.345769 0.825917 0.167336
H42   H     H_    0.938916 0.339123 0.019407 0.119318
H43   H     H_    0.514995 0.193833 0.422762 0.205601
H44   H     H_    0.540932 0.182643 0.172826 0.116799
H45   H     H_    0.532579 0.138431 0.197400 0.124471
H46   H     H_    0.838985 0.458965 0.571540 0.117527
H47   H     H_    0.565829 0.159584 0.324674 0.149601
H48   H     H_    0.518238 0.828740 0.956399 0.185901
H49   H     H_    0.460283 0.804992 0.913148 0.148206
H50   H     H_    0.455343 0.845510 0.825348 0.167374
H51   H     H_    0.439036 0.838941 0.018785 0.119630
H52   H     H_    0.116990 0.639879 0.675385 0.231368
H53   H     H_    0.180623 0.630073 0.736125 0.125355
H54   H     H_    0.184614 0.610078 0.545566 0.125196
H55   H     H_    0.157873 0.590515 0.696559 0.103919
H56   H     H_    0.087954 0.334536 0.091317 0.237812
H57   H     H_    0.353060 0.032041 0.896839 0.133025
H58   H     H_    0.121872 0.287218 0.956943 0.126867
H59   H     H_    0.105945 0.306288 0.773669 0.106624
H60   H     H_    0.073338 0.290819 0.911763 0.086887
H61   H     H_    0.616825 0.140104 0.674821 0.231309
H62   H     H_    0.680478 0.130440 0.735722 0.125190
H63   H     H_    0.684532 0.110395 0.545315 0.125233
H64   H     H_    0.657827 0.090825 0.696407 0.103995
H65   H     H_    0.587958 0.834529 0.091225 0.237604
H66   H     H_    0.622060 0.787305 0.956889 0.126887
H67   H     H_    0.606143 0.806387 0.773626 0.106669
H68   H     H_    0.342722 0.955412 0.556546 0.124248
H69   H     H_    0.573528 0.790821 0.911439 0.086823
H70   H     H_    0.093480 0.479451 0.920320 0.006082
H71   H     H_    0.091011 0.516777 0.428006 0.015343
H72   H     H_    0.593547 0.979446 0.920358 0.006070
H73   H     H_    0.978469 0.362079 0.217144 0.095940
H74   H     H_    0.591026 0.016750 0.427694 0.015536
H75   H     H_    0.082528 0.466321 0.117693 0.086232
H76   H     H_    0.101781 0.537305 0.618007 0.027655
H77   H     H_    0.582537 0.966334 0.117695 0.086254
H78   H     H_    0.601576 0.037304 0.617804 0.027788
H79   H     H_    0.158742 0.464756 0.974252 0.116063
H80   H     H_    0.158501 0.509349 0.390979 0.144063
H81   H     H_    0.658794 0.964755 0.974654 0.115987
H82   H     H_    0.658576 0.009515 0.391622 0.144035
H83   H     H_    0.130105 0.429230 0.015163 0.086041
H84   H     H_    0.500158 0.120007 0.421209 -0.032185
H85   H     H_    0.145828 0.552758 0.404474 0.075235
H86   H     H_    0.630148 0.929235 0.015575 0.086230
H87   H     H_    0.645746 0.052885 0.404894 0.075093
H88   H     H_    0.149440 0.454083 0.177044 0.140930
H89   H     H_    0.168361 0.532492 0.572909 0.115086
H90   H     H_    0.649441 0.954117 0.177437 0.141037
H91   H     H_    0.668222 0.032687 0.573649 0.115148
H92   H     H_    0.945746 0.654843 0.465008 0.092300
H93   H     H_    0.974421 0.294601 0.179060 0.092564
H94   H     H_    0.445537 0.154627 0.465795 0.091230
H95   H     H_    0.478466 0.862006 0.216738 0.095468
H96   H     H_    0.474441 0.794561 0.179250 0.092415
H97   H     H_    0.960827 0.632764 0.643564 0.116819
H98   H     H_    0.984390 0.311771 0.366903 0.146747
H99   H     H_    0.460782 0.132611 0.644288 0.117153
H100  H     H_    0.484533 0.811727 0.366964 0.146865
H101  H     H_    0.984433 0.707776 0.061017 0.110451
H102  H     H_    0.005229 0.306201 0.670640 0.139318
H103  H     H_    0.483739 0.207739 0.063967 0.110364
H104  H     H_    0.505437 0.806193 0.670155 0.139127
H105  H     H_    0.886551 0.398613 0.139827 0.135201
H106  H     H_    0.837117 0.512579 0.269966 0.145622
H107  H     H_    0.893822 0.605588 0.647630 0.157355
H108  H     H_    0.386591 0.898558 0.140343 0.136202
H109  H     H_    0.393885 0.105573 0.647564 0.155710
H110  H     H_    0.762205 0.366395 0.183970 0.122426
H111  H     H_    0.794660 0.653046 0.839677 0.118536
H112  H     H_    0.262314 0.866262 0.184508 0.123125
H113  H     H_    0.294601 0.152828 0.839882 0.118425
H114  H     H_    0.145893 0.744640 0.403003 0.122999
H115  H     H_    0.201242 0.292036 0.072916 0.107395
H116  H     H_    0.645618 0.244811 0.401498 0.122931
H117  H     H_    0.836421 0.483432 0.752142 0.146950
H118  H     H_    0.701458 0.792287 0.073626 0.107476
H119  H     H_    0.187242 0.787264 0.337354 0.069019
H120  H     H_    0.241196 0.246382 0.010565 0.070304
H121  H     H_    0.686959 0.287437 0.335838 0.068889
H122  H     H_    0.741453 0.746654 0.011199 0.070347
H123  H     H_    0.719807 0.324927 0.254812 0.069219
H124  H     H_    0.758345 0.699469 0.921828 0.070479
H125  H     H_    0.219917 0.824789 0.255362 0.069451
H126  H     H_    0.258268 0.199247 0.921747 0.070518
H127  H     H_    0.881043 0.363124 0.648719 0.117458
H128  H     H_    0.330779 0.032277 0.084162 0.126218
H129  H     H_    0.873962 0.628951 0.146850 0.108280
H130  H     H_    0.381231 0.862910 0.649471 0.117716
H131  H     H_    0.373577 0.128225 0.146408 0.106714
H132  H     H_    0.863009 0.251157 0.811901 0.119954
H133  H     H_    0.838304 0.735917 0.180739 0.116541
H134  H     H_    0.363160 0.751010 0.812720 0.119943
H135  H     H_    0.337626 0.235263 0.178881 0.116566
H136  H     H_    0.282403 0.672358 0.918449 0.067673
H137  H     H_    0.246463 0.306305 0.259797 0.073634
H138  H     H_    0.782376 0.172451 0.918482 0.067696
H139  H     H_    0.334034 0.981644 0.726426 0.139042
H140  H     H_    0.746760 0.806638 0.260575 0.073625
H141  H     H_    0.970073 0.676995 0.624028 0.096075
H142  H     H_    0.021441 0.295960 0.250854 0.116593
H143  H     H_    0.469873 0.176862 0.624575 0.096113
H144  H     H_    0.521505 0.795903 0.250534 0.116374
H145  H     H_    0.239930 0.630839 0.990801 0.116886
H146  H     H_    0.197590 0.344013 0.316333 0.169044
H147  H     H_    0.739910 0.130933 0.990878 0.116979
H148  H     H_    0.697805 0.844283 0.316985 0.168916
H149  H     H_    0.114516 0.602064 0.051677 0.135760
H150  H     H_    0.854113 0.554768 0.268878 0.069513
H151  H     H_    0.134194 0.417847 0.624107 0.125009
H152  H     H_    0.614488 0.102051 0.051450 0.135832
H153  H     H_    0.634269 0.917988 0.624751 0.124907
H154  H     H_    0.821578 0.208293 0.877077 0.067967
H155  H     H_    0.795338 0.779032 0.236863 0.072711
H156  H     H_    0.321724 0.708148 0.877876 0.067956
H157  H     H_    0.294784 0.278443 0.235211 0.072632
H158  H     H_    0.967312 0.427655 0.856495 0.065903
H159  H     H_    0.965030 0.567561 0.347987 0.063933
H160  H     H_    0.467405 0.927520 0.857171 0.066408
N1    N     N_R   0.853846 0.349950 0.933434 -0.422325
N2    N     N_2   0.996936 0.342122 0.003731 -0.480829
N3    N     N_2   0.511701 0.170262 0.373117 -0.425883
N4    N     N_2   0.497055 0.842030 0.003557 -0.480927
N5    N     N_2   0.133326 0.632470 0.585130 -0.388306
N6    N     N_2   0.100243 0.335436 0.984160 -0.384861
N7    N     N_2   0.633185 0.132698 0.584639 -0.388364
N8    N     N_2   0.600310 0.835474 0.984216 -0.384867
N9    N     N_R   0.854503 0.650452 0.440159 -0.418611
N10   N     N_R   0.353978 0.849807 0.934137 -0.422492
N11   N     N_R   0.354139 0.149994 0.439477 -0.418865
N12   N     N_R   0.151633 0.646695 0.264302 -0.415643
N13   N     N_R   0.153566 0.355441 0.751515 -0.423744
N14   N     N_R   0.651506 0.146817 0.263727 -0.415629
N15   N     N_R   0.653682 0.855606 0.752027 -0.423804
N16   N     N_2   0.011972 0.670300 0.372917 -0.426145
O1    O     O_2   0.072110 0.546320 0.923350 -0.457760
O2    O     O_3   0.970806 0.356155 0.553143 -0.609698
O3    O     O_3   0.468358 0.142412 0.091247 -0.599417
O4    O     O_3   0.470950 0.856136 0.552772 -0.609895
O5    O     O_3   0.958050 0.483830 0.034350 -0.494950
O6    O     O_3   0.958050 0.516170 0.534350 -0.490419
O7    O     O_3   0.458050 0.983830 0.034350 -0.504349
O8    O     O_3   0.458050 0.016170 0.534350 -0.486065
O9    O     O_2   0.817481 0.387178 0.053984 -0.597176
O10   O     O_2   0.830507 0.621458 0.641627 -0.603337
O11   O     O_2   0.317589 0.887042 0.054527 -0.595217
O12   O     O_2   0.072110 0.453680 0.423350 -0.449159
O13   O     O_2   0.330438 0.121165 0.642160 -0.604620
O14   O     O_2   0.121602 0.687258 0.395565 -0.600586
O15   O     O_2   0.171294 0.348182 0.010233 -0.575481
O16   O     O_2   0.621379 0.187407 0.394374 -0.600692
O17   O     O_2   0.671345 0.848355 0.010822 -0.575371
O18   O     O_2   0.886072 0.309456 0.812488 -0.615786
O19   O     O_2   0.874641 0.684762 0.248703 -0.636285
O20   O     O_2   0.386213 0.809306 0.813275 -0.616019
O21   O     O_2   0.373959 0.184124 0.246688 -0.636810
O22   O     O_2   0.185736 0.609773 0.130134 -0.602911
O23   O     O_2   0.572110 0.046320 0.923350 -0.457758
O24   O     O_2   0.147047 0.364581 0.486205 -0.569038
O25   O     O_2   0.685687 0.109876 0.130047 -0.602883
O26   O     O_2   0.647194 0.864753 0.486710 -0.569032
O27   O     O_3   0.042000 0.516250 0.155330 -0.496879
O28   O     O_3   0.042000 0.483750 0.655330 -0.488776
O29   O     O_3   0.542000 0.016250 0.155330 -0.496764
O30   O     O_3   0.542000 0.983750 0.655330 -0.488881
O31   O     O_3   0.012540 0.574900 0.645500 -0.474416
O32   O     O_3   0.012540 0.425100 0.145500 -0.480834
O33   O     O_3   0.512540 0.074900 0.645500 -0.474647
O34   O     O_2   0.572110 0.953680 0.423350 -0.449057
O35   O     O_3   0.512540 0.925100 0.145500 -0.480670
O36   O     O_2   0.067295 0.604882 0.806627 -0.476424
O37   O     O_2   0.081268 0.407265 0.227526 -0.447069
O38   O     O_2   0.567281 0.104914 0.806569 -0.476298
O39   O     O_2   0.581263 0.907268 0.227565 -0.447050
O40   O     O_3   0.114122 0.509182 0.103014 -0.629648
O41   O     O_3   0.115766 0.488579 0.611462 -0.636486
O42   O     O_3   0.614134 0.009197 0.103071 -0.629623
O43   O     O_3   0.615742 0.988612 0.611414 -0.636431
O44   O     O_3   0.032056 0.643704 0.608012 -0.589559
O45   O     O_3   0.884571 0.511436 0.580002 -0.628919
O46   O     O_3   0.035049 0.357687 0.228974 -0.607617
O47   O     O_3   0.531954 0.143705 0.608057 -0.589704
O48   O     O_3   0.535056 0.857683 0.229016 -0.607623
O49   O     O_2   0.928110 0.546600 0.766510 -0.460955
O50   O     O_2   0.928110 0.453400 0.266510 -0.459340
O51   O     O_2   0.428110 0.046600 0.766510 -0.477243
O52   O     O_2   0.428110 0.953400 0.266510 -0.447860
O53   O     O_3   0.987780 0.574950 0.044470 -0.447839
O54   O     O_3   0.987780 0.425050 0.544470 -0.492143
O55   O     O_3   0.487780 0.074950 0.044470 -0.449033
O56   O     O_3   0.883796 0.487393 0.080224 -0.629958
O57   O     O_3   0.487780 0.925050 0.544470 -0.492266
O58   O     O_2   0.932171 0.604001 0.885364 -0.520616
O59   O     O_2   0.931734 0.396825 0.381481 -0.487266
O60   O     O_2   0.432016 0.103894 0.885857 -0.522238
O61   O     O_2   0.431699 0.896818 0.381885 -0.487411
O62   O     O_3   0.384700 0.011255 0.578746 -0.622903
O63   O     O_3   0.383262 0.986836 0.083706 -0.622744
O64   O     O_3   0.968764 0.642562 0.089739 -0.600518
P1    P     P_3+3 0.075650 0.535480 0.098240 1.002993
P2    P     P_3+3 0.951556 0.396280 0.547255 0.950479
P3    P     P_3+3 0.450081 0.102304 0.054946 0.960931
P4    P     P_3+3 0.451614 0.896227 0.547458 0.950551
P5    P     P_3+3 0.047172 0.394506 0.128951 0.975861
P6    P     P_3+3 0.049466 0.603035 0.636622 0.979409
P7    P     P_3+3 0.547170 0.894504 0.128980 0.975836
P8    P     P_3+3 0.549438 0.103061 0.636589 0.979155
P9    P     P_3+3 0.075650 0.464520 0.598240 0.999663
P10   P     P_3+3 0.575650 0.035480 0.098240 1.002970
P11   P     P_3+3 0.575650 0.964520 0.598240 0.999756
P12   P     P_3+3 0.924520 0.535770 0.591580 1.000820
P13   P     P_3+3 0.924520 0.464230 0.091580 0.996541
P14   P     P_3+3 0.424520 0.035770 0.591580 1.002164
P15   P     P_3+3 0.424520 0.964230 0.091580 0.998307
P16   P     P_3+3 0.950247 0.602508 0.054457 0.969367

loop_
_geom_bond_atom_site_label_1
_geom_bond_atom_site_label_2
_ccdc_geom_bond_type
C3    C164  A    
C80   C97   S    
C153  C157  A    
C13   H130  S    
C69   H24   S    
Ba2   O50   S    
C64   H157  S    
C37   C63   A    
C47   H126  S    
C80   N2    S    
O57   P4    S    
C72   H72   S    
C161  C183  A    
C82   N4    S    
C162  C184  A    
C9    C135  S    
C179  N13   Am   
C160  C182  A    
C94   H63   S    
C86   O13   D    
C3    N15   Am   
Ba1   O6    S    
C84   O10   D    
O52   P15   D    
C33   C38   A    
C5    C9    S    
C163  O21   D    
C13   C57   S    
C133  H3    S    
C7    C11   S    
C58   H146  S    
C107  C121  A    
C40   C66   S    
C50   H134  S    
C28   C138  A    
C126  H14   S    
C18   H151  S    
C90   C100  D    
C42   H29   S    
Ba3   O7    S    
O41   P9    S    
C175  H18   S    
C174  H127  S    
C83   N1    Am   
C5    C22   D    
C90   C131  D    
Ba4   P11   S    
C1    H141  S    
C181  O26   D    
C23   N14   S    
O56   P13   S    
C25   N15   S    
O29   P10   S    
C138  C147  A    
C15   C19   D    
C132  H160  S    
C128  C177  S    
C148  C166  A    
C125  O64   S    
C91   N4    S    
C142  C150  A    
C73   O43   S    
O32   P5    S    
C36   C146  A    
C61   H154  S    
C108  H94   S    
C74   H83   S    
O30   P11   S    
C40   O45   S    
C70   O40   S    
C151  H119  S    
C169  C178  A    
C83   O9    D    
C27   C44   A    
Ba2   O5    S    
C182  O14   D    
C67   H57   S    
C70   H75   S    
C35   C174  S    
Ba4   O57   S    
C66   H2    S    
C166  C170  A    
C141  O19   D    
C77   H91   S    
C12   C134  D    
C85   O11   D    
C13   C105  D    
C123  C152  A    
C93   H59   S    
O54   P2    S    
O53   P16   S    
C173  H101  S    
O40   P1    S    
H61   N7    S    
O63   P15   S    
C46   C131  S    
C31   C36   A    
C1    C78   S    
C60   H148  S    
C180  N14   Am   
C82   O48   S    
C119  H144  S    
C77   H82   S    
Ba1   P12   S    
C31   C109  A    
O44   P6    S    
C157  H115  S    
C56   H145  S    
C158  H116  S    
C119  H100  S    
C184  N14   Am   
C106  N11   S    
O37   P5    D    
C65   H106  S    
C99   C103  S    
C87   H36   S    
C71   C75   S    
C157  C161  A    
C48   C61   A    
C135  H5    S    
C7    N8    S    
C6    C23   D    
O60   P3    D    
C4    N5    S    
C12   C17   D    
C41   C67   S    
C101  H108  S    
C74   H88   S    
C81   C108  S    
C32   C110  A    
C3    O17   D    
C100  H107  S    
C79   C99   D    
C16   P11   S    
O3    P3    S    
C28   C32   A    
O51   P14   D    
C104  N9    S    
O48   P7    S    
Ba3   P14   S    
C73   H78   S    
C91   H49   S    
C145  C149  A    
C120  H113  S    
C87   N16   S    
Ba4   O8    S    
O28   P9    S    
C177  H104  S    
C60   C172  A    
O12   P9    D    
Ba2   O32   S    
Ba1   O49   S    
C39   C65   S    
C158  C162  A    
C149  C167  A    
C9    P5    S    
C178  N12   Am   
C122  C141  A    
C75   H80   S    
C97   H142  S    
C70   H70   S    
C86   N11   Am   
C26   C30   A    
C6    C10   S    
C44   C117  A    
C8    C134  S    
C109  C122  A    
C24   C106  D    
C78   O44   S    
C111  C124  A    
C112  C116  A    
C127  O3    S    
C65   H35   S    
C98   C133  D    
C12   P1    S    
C143  C147  A    
C85   N10   Am   
C69   H68   S    
C34   C61   A    
C4    C8    S    
C92   H54   S    
Ba4   O35   S    
C84   N9    Am   
O38   P8    D    
C59   H147  S    
C2    C46   S    
C98   P14   S    
O59   P2    D    
Ba3   O23   S    
C69   H139  S    
Ba4   P15   S    
C43   C116  A    
O36   P6    D    
C111  C115  A    
C87   H38   S    
C18   C22   S    
C109  C113  A    
C39   H30   S    
Ba3   Ba4   S    
C126  H9    S    
C179  O24   D    
C81   O47   S    
C17   C21   S    
H52   N5    S    
C14   C18   D    
C80   O46   S    
C16   C137  D    
C144  C148  A    
C10   C136  S    
C103  N1    S    
C127  C176  S    
Ba1   O28   S    
C20   H153  S    
C147  C165  A    
C97   H93   S    
C74   H79   S    
C52   C143  A    
C180  O25   D    
C78   H1    S    
O31   P6    S    
C24   C68   S    
C94   H64   S    
Ba1   O5    S    
C88   H41   S    
O64   P16   S    
C22   N13   S    
O61   P4    D    
C1    H97   S    
C92   H53   S    
H65   N8    S    
C182  N12   Am   
O46   P5    S    
C62   H155  S    
C41   H32   S    
C165  C169  A    
C126  O2    S    
C177  H25   S    
C39   H26   S    
C156  H114  S    
C42   C69   S    
C96   C132  D    
C121  C130  A    
C4    C21   D    
C95   N8    S    
C38   C144  A    
C92   N5    S    
C88   N2    S    
C51   C64   A    
C172  C181  A    
Ba3   O30   S    
C183  N13   Am   
C29   C139  A    
C175  H22   S    
O58   P16   D    
C156  C160  A    
C17   H149  S    
C95   H66   S    
C119  H96   S    
C155  H122  S    
C178  O22   D    
O1    P1    D    
C95   H69   S    
C40   H27   S    
C26   C140  A    
C175  H102  S    
C43   H123  S    
C76   H81   S    
C137  H7    S    
C44   H124  S    
C20   C25   S    
C101  C105  S    
C108  H143  S    
C11   C137  S    
C152  O20   D    
C124  C163  A    
C51   H135  S    
C107  C112  A    
C108  H99   S    
O35   P7    S    
C176  H19   S    
C127  H15   S    
C34   C145  A    
C67   H128  S    
Ba4   O29   S    
C75   H85   S    
C36   C62   A    
C76   H90   S    
C56   C169  A    
Ba2   O6    S    
H34   N16   S    
C32   C37   A    
Ba4   O52   S    
C1    H92   S    
C99   H105  S    
C6    N7    S    
Ba3   P10   S    
C128  H16   S    
C73   H74   S    
C24   H131  S    
C72   C76   S    
C127  H10   S    
C93   H58   S    
C94   H62   S    
C79   P13   S    
C53   H137  S    
C125  C173  S    
C29   C33   A    
C52   C56   A    
C92   H55   S    
C5    N6    S    
O7    P15   S    
C129  H158  S    
Ba3   O33   S    
O45   P12   S    
C73   C77   S    
O5    P13   S    
Ba2   O54   S    
C96   C101  D    
Ba1   P1    S    
C83   C112  A    
C89   H44   S    
C139  C148  A    
O4    P4    S    
Ba3   O8    S    
Ba4   O34   S    
C154  H121  S    
C27   C31   A    
C80   H73   S    
O50   P13   D    
O27   P1    S    
C100  C104  S    
C125  H8    S    
O47   P8    S    
C130  O18   D    
C184  O16   D    
C35   C129  S    
C55   C146  A    
C81   H84   S    
C161  C166  A    
C71   H76   S    
C65   H150  S    
H43   N3    S    
C134  H4    S    
C170  C179  A    
O43   P11   S    
C33   C111  A    
C29   C47   A    
C49   H133  S    
C105  N10   S    
C130  N1    Am   
C131  H159  S    
C39   O56   S    
C159  H118  S    
C89   N3    S    
Ba3   O51   S    
C110  C123  A    
C35   P2    S    
O6    P12   S    
C177  H20   S    
C117  H111  S    
C173  H17   S    
C97   H98   S    
C159  C164  A    
C118  H112  S    
C102  H109  S    
C19   H152  S    
C142  C155  A    
O39   P7    D    
C164  C168  A    
C88   H40   S    
C70   C74   S    
C53   C144  A    
Ba2   O12   S    
C14   P9    S    
C136  H6    S    
C57   C132  S    
H56   N6    S    
C171  C180  A    
Ba2   P9    S    
C163  N11   Am   
O33   P8    S    
C72   O42   S    
O55   P3    S    
C93   H60   S    
C53   C58   A    
O42   P10   S    
C115  C120  A    
C89   H47   S    
C89   H45   S    
C55   C60   A    
C42   H33   S    
C114  C118  A    
O23   P10   D    
C58   C170  A    
C152  N10   Am   
C41   H28   S    
Ba1   Ba2   S    
C66   H46   S    
C66   H117  S    
C173  H21   S    
C140  C149  A    
C113  C117  A    
C95   H67   S    
C27   C142  A    
O8    P14   S    
C16   C20   D    
C15   C136  D    
C153  H120  S    
C82   H95   S    
C21   N12   S    
O49   P12   D    
C19   C23   S    
C138  C151  A    
C47   C120  A    
Ba2   O27   S    
C54   C145  A    
O34   P11   D    
Ba2   P13   S    
C46   P16   S    
C162  C167  A    
C72   H77   S    
C87   H37   S    
C38   C64   A    
C30   C107  A    
C81   N3    S    
C160  C165  A    
C40   H31   S    
C71   O41   S    
C139  C153  A    
O2    P2    S    
C128  O4    S    
C28   C45   A    
C176  H103  S    
C26   C43   A    
C94   N7    S    
C126  C175  S    
C141  N9    Am   
C91   H51   S    
C50   C63   A    
C167  C171  A    
C128  H11   S    
C10   P8    S    
C77   H87   S    
C91   H50   S    
C176  H23   S    
C8    P6    S    
C11   P7    S    
Ba4   O7    S    
C37   C143  A    
C88   H42   S    
C75   H89   S    
O62   P14   S    
C76   H86   S    
C93   N6    S    
C150  C168  A    
C85   C114  A    
C49   C62   A    
C116  H110  S    
C63   H156  S    
C110  C114  A    
C2    H129  S    
C68   C133  S    
C103  C174  D    
C146  C150  A    
H48   N4    S    
C155  C159  A    
C140  C154  A    
C45   H125  S    
C102  C106  S    
C68   P3    S    
C54   C59   A    
C67   H13   S    
Ba1   O1    S    
C151  C156  A    
C30   C34   A    
C54   H138  S    
C71   H71   S    
C48   C121  A    
C59   C171  A    
C78   N16   S    
C50   C123  A    
Ba1   O31   S    
Ba3   O55   S    
C55   H140  S    
C86   C115  A    
H39   N2    S    
Ba1   O53   S    
C183  O15   D    
C57   P4    S    
C90   P12   S    
C45   C118  A    
C41   O63   S    
C15   P10   S    
C181  N15   Am   
C98   C102  D    
C14   C135  D    
C79   C129  D    
C125  H12   S    
C49   C122  A    
C154  C158  A    
C168  C172  A    
C96   P15   S    
C51   C124  A    
C7    C25   D    
C48   H132  S    
C82   C119  S    
C2    C104  D    
C84   C113  A    
C52   H136  S    
C42   O62   S    
