data_mof_unit_64989.cif
_audit_creation_date              2013-03-05T16:16:29-0500
_audit_creation_method            fapswitch 2.2
_symmetry_space_group_name_H-M    P1
_symmetry_Int_Tables_number       1
_space_group_crystal_system       triclinic
_cell_length_a                    44.801081
_cell_length_b                    38.889644
_cell_length_c                    21.711829
_cell_angle_alpha                 89.998967
_cell_angle_beta                  60.16703
_cell_angle_gamma                 89.999541
_cell_volume                      32815.4230646

loop_
_atom_site_label
_atom_site_type_symbol
_atom_site_description
_atom_site_fract_x
_atom_site_fract_y
_atom_site_fract_z
_atom_type_partial_charge
O1    O     O_R   0.050910 0.528740 0.449110 -0.626580
O2    O     O_R   0.949090 0.528740 0.550890 -0.626574
O3    O     O_R   0.550910 0.028740 0.449110 -0.626524
O4    O     O_R   0.449090 0.028740 0.550890 -0.626575
O5    O     O_R   0.050900 0.471250 0.449110 -0.552615
O6    O     O_R   0.949100 0.471250 0.550890 -0.552631
O7    O     O_R   0.550900 0.971250 0.449110 -0.552749
O8    O     O_R   0.449100 0.971250 0.550890 -0.552631
C1    C     C_R   0.067220 0.499969 0.432411 0.912857
C2    C     C_R   0.932781 0.499969 0.567589 0.912872
C3    C     C_R   0.567219 0.999969 0.432413 0.912944
C4    C     C_R   0.432780 0.999969 0.567589 0.912865
O9    O     O_R   0.999990 0.528740 0.590470 -0.572601
O10   O     O_R   0.000010 0.528740 0.409530 -0.572606
O11   O     O_R   0.499990 0.028740 0.590470 -0.572601
O12   O     O_R   0.500010 0.028740 0.409530 -0.572592
O13   O     O_R   0.999990 0.471250 0.590470 -0.622579
O14   O     O_R   0.000010 0.471250 0.409530 -0.622587
O15   O     O_R   0.499990 0.971250 0.590470 -0.622625
O16   O     O_R   0.500010 0.971250 0.409530 -0.622563
C5    C     C_R   0.998705 0.500286 0.620543 0.835017
C6    C     C_R   0.001295 0.500287 0.379457 0.835007
C7    C     C_R   0.498705 0.000286 0.620543 0.834992
C8    C     C_R   0.501297 0.000287 0.379455 0.835074
Zn1   Zn    Zn3+2 1.000000 0.538380 0.500000 1.080286
Zn2   Zn    Zn3+2 0.500000 0.038380 0.500000 1.080358
Zn3   Zn    Zn3+2 1.000000 0.461610 0.500000 1.113003
Zn4   Zn    Zn3+2 0.500000 0.961610 0.500000 1.112874
C9    C     C_2   0.976018 0.478132 0.808355 -0.089896
C10   C     C_2   0.023983 0.478134 0.191645 -0.089900
C11   C     C_2   0.476018 0.978133 0.808355 -0.090001
C12   C     C_2   0.523978 0.978128 0.191649 -0.089979
C13   C     C_2   0.002365 0.490737 0.813719 -0.230041
C14   C     C_2   0.997635 0.490738 0.186281 -0.230032
C15   C     C_2   0.502366 0.990737 0.813719 -0.230015
C16   C     C_2   0.497634 0.990742 0.186283 -0.230052
H1    H     H_    0.952524 0.469441 0.854640 0.195369
H2    H     H_    0.047478 0.469445 0.145361 0.195363
H3    H     H_    0.452523 0.969443 0.854641 0.195330
H4    H     H_    0.547469 0.969429 0.145367 0.195351
H5    H     H_    0.026916 0.495834 0.766228 0.183245
H6    H     H_    0.973083 0.495833 0.233772 0.183249
H7    H     H_    0.526917 0.995832 0.766228 0.183283
H8    H     H_    0.473085 0.995846 0.233773 0.183252
C17   C     C_2   0.979118 0.476538 0.738006 -0.262694
C18   C     C_2   0.020883 0.476540 0.261994 -0.262713
C19   C     C_2   0.479118 0.976538 0.738006 -0.262704
C20   C     C_2   0.520879 0.976534 0.261998 -0.262557
C21   C     C_2   0.993491 0.502707 0.691868 0.139702
C22   C     C_2   0.006508 0.502708 0.308133 0.139712
C23   C     C_2   0.493492 0.002707 0.691867 0.139730
C24   C     C_2   0.506516 0.002708 0.308125 0.139671
H9    H     H_    0.969863 0.453718 0.723880 0.190363
H10   H     H_    0.030140 0.453721 0.276120 0.190355
H11   H     H_    0.469861 0.953719 0.723882 0.190341
H12   H     H_    0.530124 0.953709 0.276134 0.190400
C25   C     C_R   0.377198 0.487713 0.073784 -0.277703
C26   C     C_R   0.622799 0.487647 0.926170 -0.277746
C27   C     C_R   0.877220 0.987256 0.074117 -0.278007
C28   C     C_R   0.122800 0.987664 0.926181 -0.277735
H13   H     H_    0.390820 0.476815 0.020890 0.193185
H14   H     H_    0.609175 0.476701 0.979020 0.193130
H15   H     H_    0.890853 0.976020 0.021533 0.192799
H16   H     H_    0.109177 0.976729 0.979043 0.193141
C29   C     C_R   0.341450 0.487845 0.109996 -0.055180
C30   C     C_R   0.658546 0.487777 0.889958 -0.055143
C31   C     C_R   0.841474 0.987375 0.110325 -0.054954
C32   C     C_R   0.158547 0.987794 0.889969 -0.055166
H17   H     H_    0.328054 0.476720 0.084811 0.188162
H18   H     H_    0.671942 0.476602 0.915100 0.188191
H19   H     H_    0.828085 0.975897 0.085454 0.188377
H20   H     H_    0.171943 0.976631 0.915122 0.188182
C33   C     C_R   0.323211 0.501668 0.178612 0.075747
C34   C     C_R   0.676787 0.501665 0.821399 0.075735
C35   C     C_R   0.823227 0.001650 0.178536 0.075638
C36   C     C_R   0.176787 0.001667 0.821396 0.075734
C37   C     C_R   0.341114 0.515013 0.210923 -0.233942
C38   C     C_R   0.658884 0.515074 0.789140 -0.233950
C39   C     C_R   0.841132 0.015435 0.210472 -0.233937
C40   C     C_R   0.158884 0.015060 0.789125 -0.233936
H21   H     H_    0.327370 0.526070 0.263661 0.187748
H22   H     H_    0.672627 0.526181 0.736448 0.187737
H23   H     H_    0.827392 0.026843 0.262881 0.187707
H24   H     H_    0.172627 0.026154 0.736421 0.187748
C41   C     C_R   0.376877 0.514500 0.175206 0.647665
C42   C     C_R   0.623120 0.514560 0.824853 0.647642
C43   C     C_R   0.876897 0.014914 0.174784 0.647513
C44   C     C_R   0.123120 0.014546 0.824838 0.647640
C45   C     C_R   0.395126 0.500834 0.106229 -0.188628
C46   C     C_R   0.604871 0.500831 0.893775 -0.188559
C47   C     C_R   0.895141 0.000818 0.106201 -0.188166
C48   C     C_R   0.104872 0.000832 0.893774 -0.188573
C49   C     C_R   0.267748 0.490137 0.287965 -0.322667
C50   C     C_R   0.732254 0.490220 0.711993 -0.322633
C51   C     C_R   0.767733 0.990718 0.288262 -0.322426
C52   C     C_R   0.232254 0.990200 0.712003 -0.322641
H25   H     H_    0.282080 0.481463 0.313131 0.212661
H26   H     H_    0.717927 0.481605 0.686776 0.212643
H27   H     H_    0.782037 0.982467 0.313777 0.212528
H28   H     H_    0.217925 0.981571 0.686799 0.212647
C53   C     C_R   0.231774 0.488893 0.325777 0.339785
C54   C     C_R   0.768228 0.488977 0.674184 0.339780
C55   C     C_R   0.731760 0.989480 0.326050 0.339729
C56   C     C_R   0.268227 0.988957 0.674194 0.339782
C57   C     C_R   0.213709 0.499360 0.291006 -0.109035
C58   C     C_R   0.786290 0.499360 0.709012 -0.108998
C59   C     C_R   0.713715 0.999359 0.290888 -0.108754
C60   C     C_R   0.286290 0.999360 0.709008 -0.109007
C61   C     C_R   0.231425 0.510929 0.220731 -0.291881
C62   C     C_R   0.768571 0.510846 0.779344 -0.291860
C63   C     C_R   0.731452 0.010341 0.220210 -0.291729
C64   C     C_R   0.268572 0.010866 0.779326 -0.291863
H29   H     H_    0.217448 0.519379 0.194610 0.200089
H30   H     H_    0.782546 0.519233 0.805512 0.200087
H31   H     H_    0.717490 0.018347 0.193766 0.200080
H32   H     H_    0.282548 0.019269 0.805482 0.200088
C65   C     C_R   0.267090 0.512171 0.183983 0.668080
C66   C     C_R   0.732906 0.512089 0.816091 0.668047
C67   C     C_R   0.767118 0.011593 0.183472 0.667879
C68   C     C_R   0.232907 0.012109 0.816073 0.668055
C69   C     C_R   0.285481 0.501462 0.217268 -0.072346
C70   C     C_R   0.714517 0.501462 0.782746 -0.072328
C71   C     C_R   0.785493 0.001462 0.217171 -0.072208
C72   C     C_R   0.214517 0.001462 0.782743 -0.072332
C73   C     C_R   0.159049 0.472008 0.317352 -0.169758
C74   C     C_R   0.840951 0.472014 0.682679 -0.170025
C75   C     C_R   0.659045 0.972056 0.317136 -0.171711
C76   C     C_R   0.340951 0.972013 0.682671 -0.169962
H33   H     H_    0.173291 0.450541 0.283699 0.179547
H34   H     H_    0.826709 0.450551 0.716348 0.179564
H35   H     H_    0.673283 0.950621 0.283361 0.179654
H36   H     H_    0.326709 0.950548 0.716336 0.179556
C77   C     C_R   0.123310 0.471938 0.351737 0.642243
C78   C     C_R   0.876691 0.471944 0.648287 0.642247
C79   C     C_R   0.623305 0.971983 0.351563 0.642258
C80   C     C_R   0.376690 0.971942 0.648281 0.642244
C81   C     C_R   0.104759 0.499872 0.395117 -0.183638
C82   C     C_R   0.895241 0.499872 0.604885 -0.183625
C83   C     C_R   0.604757 0.999872 0.395105 -0.183552
C84   C     C_R   0.395241 0.999872 0.604885 -0.183626
C85   C     C_R   0.122381 0.527754 0.403285 -0.239580
C86   C     C_R   0.877619 0.527749 0.596698 -0.239566
C87   C     C_R   0.622381 0.027710 0.403414 -0.239483
C88   C     C_R   0.377619 0.027750 0.596703 -0.239579
H37   H     H_    0.108513 0.549438 0.436612 0.200948
H38   H     H_    0.891487 0.549428 0.563351 0.200936
H39   H     H_    0.608513 0.049357 0.436878 0.200880
H40   H     H_    0.391487 0.049431 0.563361 0.200938
C89   C     C_R   0.158112 0.527491 0.369559 -0.098529
C90   C     C_R   0.841888 0.527486 0.630429 -0.098306
C91   C     C_R   0.658113 0.027448 0.369654 -0.096869
C92   C     C_R   0.341888 0.027488 0.630433 -0.098355
H41   H     H_    0.171566 0.548945 0.376564 0.169600
H42   H     H_    0.828433 0.548935 0.623408 0.169567
H43   H     H_    0.671569 0.048865 0.376773 0.169404
H44   H     H_    0.328433 0.048938 0.623416 0.169581
C93   C     C_R   0.176345 0.499560 0.326920 0.088180
C94   C     C_R   0.823655 0.499561 0.673095 0.088173
C95   C     C_R   0.676347 0.999567 0.326818 0.088131
C96   C     C_R   0.323655 0.999561 0.673092 0.088175
O17   O     O_R   0.971250 0.449080 0.028720 -0.573932
O18   O     O_R   0.028750 0.449080 0.971280 -0.573933
O19   O     O_R   0.471250 0.949080 0.028720 -0.573848
O20   O     O_R   0.528750 0.949080 0.971280 -0.573846
C97   C     C_R   1.000000 0.432746 1.000000 0.938998
C98   C     C_R   0.500000 0.932744 1.000000 0.938805
O21   O     O_R   0.971260 0.500000 0.938260 -0.608453
O22   O     O_R   0.028740 0.500000 0.061740 -0.608461
O23   O     O_R   0.471260 0.000000 0.938260 -0.608487
O24   O     O_R   0.528740 1.000000 0.061740 -0.608456
O25   O     O_R   0.028750 0.500000 0.880800 -0.607534
O26   O     O_R   0.971250 0.500000 0.119200 -0.607526
O27   O     O_R   0.528750 1.000000 0.880800 -0.607476
O28   O     O_R   0.471250 0.000000 0.119200 -0.607514
C99   C     C_R   0.000391 0.497318 0.880864 0.928443
C100  C     C_R   0.999609 0.497318 0.119136 0.928442
C101  C     C_R   0.500391 0.997318 0.880864 0.928385
C102  C     C_R   0.499609 0.997319 0.119136 0.928384
Zn5   Zn    Zn3+2 0.961620 0.500000 0.038360 1.115666
Zn6   Zn    Zn3+2 0.038380 0.500000 0.961640 1.115651
Zn7   Zn    Zn3+2 0.461620 1.000000 0.038360 1.115696
Zn8   Zn    Zn3+2 0.538380 0.000000 0.961640 1.115811
O29   O     O_R   0.971260 0.550910 0.028730 -0.573164
O30   O     O_R   0.028740 0.550910 0.971270 -0.573166
O31   O     O_R   0.471260 0.050910 0.028730 -0.573165
O32   O     O_R   0.528740 0.050910 0.971270 -0.573136
C103  C     C_R   0.000000 0.567150 0.000000 1.001425
C104  C     C_R   0.500000 0.067150 0.000000 1.001411
O33   O     O_R   0.499990 0.449020 0.050970 -0.625427
O34   O     O_R   0.500010 0.449020 0.949030 -0.625435
O35   O     O_R   0.999990 0.949020 0.050970 -0.625527
O36   O     O_R   0.000010 0.949020 0.949030 -0.625467
C105  C     C_R   0.500000 0.432632 0.000000 0.845197
C106  C     C_R   1.000000 0.932632 0.000001 0.845087
O37   O     O_R   0.449080 0.499930 0.101960 -0.557299
O38   O     O_R   0.550920 0.499930 0.898040 -0.557390
O39   O     O_R   0.949080 0.999930 0.101960 -0.557947
O40   O     O_R   0.050920 0.999930 0.898040 -0.557378
O41   O     O_R   0.449090 0.500000 0.999810 -0.628039
O42   O     O_R   0.550910 0.500000 0.000190 -0.628000
O43   O     O_R   0.949090 1.000000 0.999810 -0.627762
O44   O     O_R   0.050910 0.000000 0.000190 -0.628016
C107  C     C_R   0.432681 0.500258 0.067736 0.918861
C108  C     C_R   0.567318 0.500258 0.932265 0.918927
C109  C     C_R   0.932686 0.000255 0.067729 0.919305
C110  C     C_R   0.067318 0.000258 0.932265 0.918908
Zn9   Zn    Zn3+2 0.499990 0.499920 0.068200 1.056251
Zn10  Zn    Zn3+2 0.500010 0.499920 0.931800 1.056174
Zn11  Zn    Zn3+2 0.999990 0.999920 0.068200 1.055897
Zn12  Zn    Zn3+2 0.000010 0.999920 0.931800 1.056378
O45   O     O_R   0.500000 0.550840 0.051180 -0.609610
O46   O     O_R   0.500000 0.550840 0.948820 -0.609583
O47   O     O_R   0.000000 0.050840 0.051180 -0.609442
O48   O     O_R   0.000000 0.050840 0.948820 -0.609634
C111  C     C_R   0.500000 0.567252 0.999999 0.933571
C112  C     C_R   1.000000 0.067252 1.000000 0.933940
C113  C     C_R   0.502633 0.622837 0.052883 -0.219744
C114  C     C_R   0.497369 0.622837 0.947110 -0.219704
C115  C     C_R   0.002524 0.122838 0.053012 -0.219436
C116  C     C_R   0.997473 0.122838 0.946987 -0.219701
H45   H     H_    0.505137 0.608955 0.093335 0.214652
H46   H     H_    0.494864 0.608955 0.906659 0.214651
H47   H     H_    0.004942 0.108957 0.093568 0.214701
H48   H     H_    0.995055 0.108957 0.906431 0.214709
C117  C     C_R   0.503217 0.658691 0.053001 0.296863
C118  C     C_R   0.496785 0.658692 0.946989 0.296861
C119  C     C_R   0.003104 0.158693 0.053138 0.296815
C120  C     C_R   0.996892 0.158693 0.946860 0.296853
C121  C     C_R   0.500001 0.676745 0.999994 -0.096610
C122  C     C_R   0.999998 0.176746 0.999999 -0.096604
C123  C     C_R   0.500000 0.604851 0.999998 -0.160014
C124  C     C_R   0.999999 0.104852 0.999999 -0.160052
C125  C     C_R   0.527410 0.732081 0.944977 -0.151257
C126  C     C_R   0.472591 0.732080 0.055012 -0.151270
C127  C     C_R   0.027457 0.232082 0.945091 -0.151263
C128  C     C_R   0.972539 0.232082 0.054903 -0.151209
H49   H     H_    0.548604 0.718247 0.902314 0.194601
H50   H     H_    0.451397 0.718245 0.097674 0.194603
H51   H     H_    0.048689 0.218248 0.902515 0.194609
H52   H     H_    0.951307 0.218248 0.097479 0.194644
C129  C     C_R   0.027502 0.267802 0.944922 0.609062
C130  C     C_R   0.972494 0.267802 0.055072 0.609045
C131  C     C_R   0.527455 0.767800 0.944810 0.609055
C132  C     C_R   0.472545 0.767799 0.055180 0.609075
C133  C     C_R   0.999999 0.285819 0.999996 -0.151681
C134  C     C_R   0.500000 0.785816 0.999995 -0.151698
C135  C     C_R   0.500001 0.714258 0.999994 -0.005842
C136  C     C_R   0.999998 0.214259 0.999997 -0.005873
C137  C     C_R   0.027987 0.341281 0.995957 -0.135786
C138  C     C_R   0.972011 0.341282 0.004036 -0.135788
C139  C     C_R   0.528022 0.841277 0.995798 -0.135833
C140  C     C_R   0.471978 0.841278 0.004196 -0.135836
H53   H     H_    0.049564 0.327544 0.993646 0.213573
H54   H     H_    0.950435 0.327547 0.006347 0.213572
H55   H     H_    0.549627 0.827539 0.993359 0.213537
H56   H     H_    0.450373 0.827541 0.006633 0.213535
C141  C     C_R   0.028113 0.377002 0.995834 0.570669
C142  C     C_R   0.971886 0.377004 0.004162 0.570669
C143  C     C_R   0.528147 0.876999 0.995678 0.570733
C144  C     C_R   0.471853 0.876999 0.004318 0.570735
C145  C     C_R   1.000000 0.395161 0.999999 -0.338502
C146  C     C_R   0.500000 0.895158 0.999999 -0.338605
C147  C     C_R   0.999999 0.323359 0.999996 0.003455
C148  C     C_R   0.500000 0.823356 0.999996 0.003499
C149  C     C_R   0.513326 0.377168 0.935809 -0.171718
C150  C     C_R   0.486675 0.377168 0.064194 -0.171705
C151  C     C_R   0.013321 0.877168 0.935810 -0.171723
C152  C     C_R   0.986678 0.877168 0.064195 -0.171806
H57   H     H_    0.524023 0.390724 0.885668 0.164088
H58   H     H_    0.475977 0.390723 0.114334 0.164099
H59   H     H_    0.024017 0.890723 0.885670 0.164098
H60   H     H_    0.975982 0.890723 0.114334 0.164015
C153  C     C_R   0.513650 0.341435 0.935726 -0.155032
C154  C     C_R   0.486351 0.341435 0.064278 -0.155035
C155  C     C_R   0.013645 0.841435 0.935728 -0.155054
C156  C     C_R   0.986353 0.841435 0.064279 -0.155068
H61   H     H_    0.524956 0.328089 0.885319 0.142936
H62   H     H_    0.475045 0.328088 0.114685 0.142936
H63   H     H_    0.024948 0.828089 0.885322 0.142935
H64   H     H_    0.975049 0.828088 0.114686 0.142903
C157  C     C_R   0.500000 0.323250 0.000002 0.110769
C158  C     C_R   0.999999 0.823250 0.000004 0.110785
C159  C     C_R   0.500000 0.395167 0.000001 -0.034990
C160  C     C_R   1.000000 0.895167 0.000002 -0.034949
C161  C     C_R   0.506294 0.267237 0.048324 -0.174405
C162  C     C_R   0.493706 0.267238 0.951682 -0.174403
C163  C     C_R   0.006296 0.767237 0.048320 -0.174425
C164  C     C_R   0.993700 0.767238 0.951690 -0.174433
H65   H     H_    0.511881 0.280576 0.085195 0.146202
H66   H     H_    0.488118 0.280578 0.914811 0.146201
H67   H     H_    0.011887 0.780576 0.085186 0.146193
H68   H     H_    0.988109 0.780578 0.914823 0.146195
C165  C     C_R   0.005953 0.731504 0.048742 -0.148596
C166  C     C_R   0.994044 0.731505 0.951267 -0.148589
C167  C     C_R   0.505950 0.231504 0.048746 -0.148569
C168  C     C_R   0.494049 0.231505 0.951259 -0.148574
H69   H     H_    0.010848 0.717764 0.086239 0.158494
H70   H     H_    0.989150 0.717766 0.913770 0.158495
H71   H     H_    0.510841 0.217764 0.086248 0.158502
H72   H     H_    0.489158 0.217766 0.913758 0.158501
C169  C     C_R   0.999999 0.713625 0.000004 0.165087
C170  C     C_R   0.500000 0.213625 0.000003 0.165083
C171  C     C_R   0.500000 0.285426 0.000003 0.098560
C172  C     C_R   0.999998 0.785426 0.000005 0.098562
C173  C     C_R   0.023568 0.658323 0.939112 -0.230762
C174  C     C_R   0.976431 0.658322 0.060893 -0.230774
C175  C     C_R   0.523570 0.158323 0.939112 -0.230740
C176  C     C_R   0.476430 0.158322 0.060892 -0.230755
H73   H     H_    0.041875 0.672112 0.891915 0.191704
H74   H     H_    0.958123 0.672109 0.108091 0.191697
H75   H     H_    0.541877 0.172112 0.891915 0.191722
H76   H     H_    0.458122 0.172110 0.108089 0.191707
C177  C     C_R   0.023871 0.622576 0.939226 0.601517
C178  C     C_R   0.976129 0.622574 0.060778 0.601522
C179  C     C_R   0.523872 0.122576 0.939226 0.601557
C180  C     C_R   0.476128 0.122574 0.060776 0.601532
C181  C     C_R   1.000000 0.604561 0.000001 -0.334785
C182  C     C_R   0.500000 0.104561 0.000001 -0.334806
C183  C     C_R   0.999999 0.676197 0.000003 -0.099323
C184  C     C_R   0.500000 0.176197 0.000002 -0.099335
N1    N     N_R   0.214413 0.477040 0.398375 0.226244
O49   O     O_R   0.229777 0.478652 0.435794 -0.341998
O50   O     O_R   0.184523 0.462077 0.425918 -0.348135
N2    N     N_R   0.785594 0.477200 0.601536 0.226195
O51   O     O_R   0.770250 0.478920 0.564090 -0.342012
O52   O     O_R   0.815462 0.462191 0.573972 -0.348088
N3    N     N_R   0.714364 0.978166 0.398999 0.225882
O53   O     O_R   0.729595 0.980531 0.436587 -0.342071
O54   O     O_R   0.684625 0.962886 0.426711 -0.347847
N4    N     N_R   0.285593 0.977161 0.601559 0.226206
O55   O     O_R   0.270243 0.978855 0.564118 -0.342002
O56   O     O_R   0.315465 0.962162 0.574001 -0.348108
F1    F     F_    0.283536 0.524626 0.116640 -0.643914
F2    F     F_    0.716458 0.524468 0.883493 -0.643933
F3    F     F_    0.783576 0.023509 0.115712 -0.644034
F4    F     F_    0.216460 0.024507 0.883461 -0.643932
F5    F     F_    0.107018 0.444971 0.341502 -0.632775
F6    F     F_    0.892984 0.444982 0.658538 -0.632792
F7    F     F_    0.607006 0.945059 0.341208 -0.632926
F8    F     F_    0.392983 0.944979 0.658527 -0.632802
N5    N     N_R   0.507712 0.676213 0.106303 0.221113
O57   O     O_R   0.527162 0.703369 0.090152 -0.348286
O58   O     O_R   0.495884 0.662634 0.168975 -0.331033
N6    N     N_R   0.492292 0.676213 0.893684 0.221110
O59   O     O_R   0.472843 0.703370 0.909831 -0.348290
O60   O     O_R   0.504119 0.662633 0.831013 -0.331033
N7    N     N_R   0.007481 0.176215 0.106589 0.221112
O61   O     O_R   0.026926 0.203369 0.090570 -0.348280
O62   O     O_R   0.995548 0.162637 0.169291 -0.330888
N8    N     N_R   0.992513 0.176215 0.893409 0.221119
O63   O     O_R   0.973069 0.203369 0.909427 -0.348258
O64   O     O_R   0.004446 0.162638 0.830707 -0.330971
F9    F     F_    0.053968 0.284767 0.890491 -0.616625
F10   F     F_    0.946029 0.284767 0.109502 -0.616617
F11   F     F_    0.553871 0.784767 0.890279 -0.616644
F12   F     F_    0.446129 0.784764 0.109712 -0.616617
F13   F     F_    0.055335 0.393670 0.993298 -0.614326
F14   F     F_    0.944664 0.393672 0.006698 -0.614327
F15   F     F_    0.555406 0.893663 0.992988 -0.614236
F16   F     F_    0.444594 0.893665 0.007010 -0.614250
F17   F     F_    0.046836 0.605618 0.879611 -0.611755
F18   F     F_    0.953164 0.605615 0.120391 -0.611752
F19   F     F_    0.546838 0.105618 0.879613 -0.611689
F20   F     F_    0.453162 0.105615 0.120389 -0.611747
N9    N     N_R   0.999491 0.535735 0.714249 0.220728
O65   O     O_R   0.027381 0.552879 0.673077 -0.347931
O66   O     O_R   0.975240 0.550590 0.770815 -0.341157
N10   N     N_R   0.000505 0.535736 0.285753 0.220728
O67   O     O_R   0.972614 0.552878 0.326928 -0.347925
O68   O     O_R   0.024755 0.550593 0.229186 -0.341161
N11   N     N_R   0.499494 0.035735 0.714246 0.220735
O69   O     O_R   0.527386 0.052877 0.673072 -0.347854
O70   O     O_R   0.475244 0.050591 0.770811 -0.341142
N12   N     N_R   0.500530 0.035740 0.285729 0.220730
O71   O     O_R   0.472646 0.052894 0.326890 -0.347915
O72   O     O_R   0.524788 0.050584 0.229156 -0.341107
F21   F     F_    0.393510 0.528060 0.207471 -0.627615
F22   F     F_    0.606485 0.528181 0.792645 -0.627641
F23   F     F_    0.893545 0.028897 0.206639 -0.627770
F24   F     F_    0.106486 0.028152 0.792616 -0.627626

loop_
_geom_bond_atom_site_label_1
_geom_bond_atom_site_label_2
_geom_bond_distance
_ccdc_geom_bond_type
C177  F17   1.357885 S    
C26   H14   1.083347 S    
C173  C183  1.398946 A    
C43   C47   1.405347 A    
O40   C110  1.278757 A    
C86   H38   1.083262 S    
C14   H6    1.088062 S    
C115  C124  1.398725 A    
C80   C84   1.406801 A    
C62   C66   1.386943 A    
C39   C43   1.390297 A    
C131  F11   1.357796 S    
C151  C155  1.389711 A    
C174  H74   1.083559 S    
O24   C102  1.284111 A    
C129  C133  1.404693 A    
C49   C69   1.402811 A    
C166  H70   1.083502 S    
C51   H27   1.083382 S    
O37   C107  1.278765 A    
C9    C13   1.335651 D    
C10   H2    1.086095 S    
C155  C158  1.404483 A    
C125  H49   1.083495 S    
C125  C131  1.389118 A    
C92   H44   1.083406 S    
N2    O51   1.301604 A    
C138  H54   1.083525 S    
C164  C166  1.389705 A    
O38   C108  1.278755 A    
C157  C171  1.470970 S    
C180  F20   1.357884 S    
C158  C172  1.470970 S    
C28   C48   1.401704 A    
C55   N3    1.442717 S    
C43   F23   1.357785 S    
C120  C122  1.415326 A    
N10   O67   1.301371 A    
C46   C108  1.459635 S    
C113  H45   1.083238 S    
C130  C133  1.404693 A    
C67   F3    1.357762 S    
N4    O55   1.301602 A    
C174  C178  1.390284 A    
C162  C171  1.405297 A    
C42   C46   1.405511 A    
C49   C53   1.399044 A    
C64   C68   1.386947 A    
C116  C124  1.398727 A    
C167  H71   1.083501 S    
O16   Zn4   1.999502 S    
O22   Zn6   1.994017 S    
Zn11  O47   2.014397 S    
O7    Zn4   2.013601 S    
C170  C184  1.455577 S    
C54   N2    1.442922 S    
O15   C7    1.291274 A    
C126  C135  1.398498 A    
O18   C97   1.285413 A    
C38   H22   1.083358 S    
C129  F9    1.357794 S    
Zn10  O46   2.014412 S    
C161  C167  1.389705 A    
O9    C5    1.271486 A    
C27   C47   1.401569 A    
C137  C147  1.398691 A    
O36   Zn12  2.014516 S    
C25   C45   1.401714 A    
C167  C170  1.398314 A    
C50   C70   1.402826 A    
O26   Zn5   2.005051 S    
C104  C182  1.454904 S    
C53   N1    1.442959 S    
O27   Zn8   2.005051 S    
C87   H39   1.083266 S    
C33   C69   1.466331 S    
C52   C56   1.399035 A    
O8    Zn4   2.013606 S    
C141  C145  1.407097 A    
C16   H8    1.088066 S    
C66   F2    1.357751 S    
C149  C159  1.400364 A    
O3    Zn2   2.013988 S    
C75   C79   1.389869 A    
O31   C104  1.283249 A    
C25   H13   1.083340 S    
C67   C71   1.402674 A    
C27   H15   1.083367 S    
C28   H16   1.083345 S    
O35   C106  1.276861 A    
C153  C157  1.404481 A    
C40   C44   1.390241 A    
Zn12  O48   2.014412 S    
N9    O65   1.301369 A    
C30   H18   1.083034 S    
C156  C158  1.404482 A    
C151  C160  1.400366 A    
C98   C146  1.461714 S    
N8    O63   1.301367 A    
C75   H35   1.083582 S    
O3    C3    1.285944 A    
C73   H33   1.083581 S    
C20   C24   1.346113 D    
C74   C78   1.389861 A    
N1    O49   1.301607 A    
C74   H34   1.083579 S    
C55   C59   1.413523 A    
C2    C82   1.459184 S    
C35   C39   1.401817 A    
C114  C118  1.394664 A    
O17   C97   1.285410 A    
Zn6   O30   2.015016 S    
C126  C132  1.389118 A    
O19   Zn7   2.015324 S    
C128  C136  1.398493 A    
C89   H41   1.083407 S    
C22   N10   1.445076 S    
C168  C170  1.398317 A    
C12   C16   1.335661 D    
C180  C182  1.404163 A    
C150  C154  1.389711 A    
C126  H50   1.083493 S    
O48   C112  1.281475 A    
C68   F4    1.357748 S    
C161  H65   1.082622 S    
C63   C67   1.386978 A    
C66   C70   1.402541 A    
N12   O71   1.301377 A    
C127  C129  1.389118 A    
C166  C169  1.398312 A    
C3    C83   1.459144 S    
C27   C31   1.389300 A    
O5    Zn3   2.013601 S    
C83   C87   1.403475 A    
C152  H60   1.083335 S    
C79   F7    1.357736 S    
C120  N8    1.440860 S    
O17   Zn5   2.015324 S    
C15   H7    1.088064 S    
C62   H30   1.084023 S    
C175  H75   1.083557 S    
O42   C108  1.279379 A    
C37   C41   1.390236 A    
C105  C159  1.457001 S    
O24   Zn8   1.994017 S    
Zn9   O45   2.014397 S    
C1    C81   1.459189 S    
O23   C101  1.284115 A    
C51   C55   1.398981 A    
N12   O72   1.301905 A    
C15   C101  1.438847 S    
N5    O58   1.301478 A    
C10   C14   1.335654 D    
O13   Zn3   1.999509 S    
C156  H64   1.082664 S    
C16   C102  1.438847 S    
N3    O54   1.301037 A    
C125  C135  1.398496 A    
C169  C183  1.455573 S    
C163  C165  1.389704 A    
C178  F18   1.357885 S    
C91   C95   1.397167 A    
O38   Zn10  2.018929 S    
O5    C1    1.284391 A    
O46   C111  1.281468 A    
O8    C4    1.284392 A    
C131  C134  1.404682 A    
C25   C29   1.389321 A    
C152  C156  1.389715 A    
O15   Zn4   1.999509 S    
C50   C54   1.399033 A    
O35   Zn11  2.014529 S    
C149  C153  1.389711 A    
C91   H43   1.083411 S    
C163  C172  1.405296 A    
C103  C181  1.454900 S    
C175  C179  1.390287 A    
O44   Zn11  2.008250 S    
C165  C169  1.398317 A    
C133  C147  1.459925 S    
C49   H25   1.083368 S    
C127  C136  1.398493 A    
C64   H32   1.084018 S    
C134  C148  1.459886 S    
O21   C99   1.284115 A    
C51   C71   1.402918 A    
O22   C100  1.284110 A    
C57   C61   1.398397 A    
C179  C182  1.404160 A    
C33   C37   1.401677 A    
O14   C6    1.291270 A    
C59   C63   1.398381 A    
C10   C18   1.464596 S    
O20   Zn8   2.015324 S    
C36   C40   1.401695 A    
C41   F21   1.357756 S    
C85   H37   1.083264 S    
C32   C36   1.401777 A    
C77   F5    1.357738 S    
O30   C103  1.283246 A    
O10   C6    1.271487 A    
C106  C160  1.457004 S    
C173  H73   1.083558 S    
C144  F16   1.357858 S    
C87   C91   1.390179 A    
O41   Zn10  2.008246 S    
C132  C134  1.404682 A    
C97   C145  1.461644 S    
O40   Zn12  2.018929 S    
C140  C148  1.398676 A    
C121  C135  1.458871 S    
O33   C105  1.276861 A    
C31   C35   1.401873 A    
N6    O59   1.301376 A    
N2    O52   1.301014 A    
O43   C109  1.279260 A    
C117  N5    1.440849 S    
O26   C100  1.274112 A    
C113  C117  1.394660 A    
C8    C24   1.449729 S    
O21   Zn5   1.994018 S    
O39   C109  1.278711 A    
C77   C81   1.406803 A    
C40   H24   1.083357 S    
N10   O68   1.301899 A    
C61   C65   1.386937 A    
N4    O56   1.301017 A    
C161  C171  1.405297 A    
C164  H68   1.082619 S    
C119  N7    1.440860 S    
C76   C80   1.389862 A    
C73   C93   1.397078 A    
C50   H26   1.083374 S    
N11   O69   1.301372 A    
C173  C177  1.390284 A    
C116  C120  1.394663 A    
C21   N9    1.445078 S    
Zn8   O32   2.015016 S    
C149  H57   1.083337 S    
O34   C105  1.276861 A    
C139  C143  1.389217 A    
C151  H59   1.083336 S    
C140  C144  1.389217 A    
C57   C93   1.453106 S    
C4    C84   1.459181 S    
O4    C4    1.285960 A    
O28   C102  1.274106 A    
C65   F1    1.357744 S    
C6    C22   1.449715 S    
C178  C181  1.404162 A    
C11   C19   1.464599 S    
O41   C107  1.279403 A    
C12   C20   1.464603 S    
C154  C157  1.404484 A    
C5    C21   1.449716 S    
C47   C109  1.459326 S    
O12   Zn2   1.999516 S    
C162  H66   1.082618 S    
O19   C98   1.285435 A    
O1    C1    1.285963 A    
C82   C86   1.403502 A    
N7    O61   1.301366 A    
C41   C45   1.405537 A    
C19   C23   1.346115 D    
C153  H61   1.082666 S    
C60   C64   1.398393 A    
C155  H63   1.082664 S    
C42   F22   1.357763 S    
O29   C103  1.283249 A    
C130  F10   1.357794 S    
C139  H55   1.083538 S    
C17   C21   1.346115 D    
C18   H10   1.086326 S    
C177  C181  1.404161 A    
C26   C46   1.401697 A    
O23   Zn7   1.994018 S    
C34   C70   1.466362 S    
O42   Zn9   2.008250 S    
C176  C184  1.398944 A    
C111  C123  1.462200 S    
O32   C104  1.283246 A    
C141  F13   1.357847 S    
C56   C60   1.413698 A    
O47   C112  1.281478 A    
C143  F15   1.357859 S    
C81   C85   1.403502 A    
C90   C94   1.397113 A    
C127  H51   1.083489 S    
C175  C184  1.398945 A    
C84   C88   1.403503 A    
C137  C141  1.389217 A    
C56   N4    1.442932 S    
O6    C2    1.284390 A    
O4    Zn2   2.013995 S    
C79   C83   1.406765 A    
C13   H5    1.088063 S    
C86   C90   1.390165 A    
N3    O53   1.301613 A    
C39   H23   1.083353 S    
O33   Zn9   2.014529 S    
C29   H17   1.083033 S    
O2    Zn1   2.013995 S    
C31   H19   1.083033 S    
O10   Zn1   1.999516 S    
C165  H69   1.083500 S    
O13   C5    1.291275 A    
C138  C147  1.398685 A    
C48   C110  1.459647 S    
C36   C72   1.466354 S    
C115  H47   1.083235 S    
C168  H72   1.083502 S    
O37   Zn9   2.018924 S    
C28   C32   1.389317 A    
C88   C92   1.390166 A    
C34   C38   1.401696 A    
C9    C17   1.464601 S    
C115  C119  1.394663 A    
C80   F8    1.357730 S    
C89   C93   1.397103 A    
C24   N12   1.445079 S    
C30   C34   1.401781 A    
C150  C159  1.400366 A    
O45   C111  1.281474 A    
C92   C96   1.397111 A    
C88   H40   1.083261 S    
C143  C146  1.407141 A    
C85   C89   1.390166 A    
N5    O57   1.301379 A    
O7    C3    1.284386 A    
C152  C160  1.400366 A    
C35   C71   1.466545 S    
N9    O66   1.301898 A    
C142  F14   1.357843 S    
C52   H28   1.083370 S    
C137  H53   1.083524 S    
C29   C33   1.401765 A    
C128  C130  1.389122 A    
C118  N6    1.440848 S    
C65   C69   1.402517 A    
C176  C180  1.390284 A    
C26   C30   1.389321 A    
C44   C48   1.405517 A    
N1    O50   1.301011 A    
C78   F6    1.357736 S    
C37   H21   1.083358 S    
C32   H20   1.083033 S    
C139  C148  1.398678 A    
C140  H56   1.083541 S    
C38   C42   1.390246 A    
O11   C7    1.271485 A    
O12   C8    1.271490 A    
O1    Zn1   2.013988 S    
C174  C183  1.398944 A    
C164  C172  1.405298 A    
O9    Zn1   1.999496 S    
C76   H36   1.083580 S    
O28   Zn7   2.005051 S    
C114  H46   1.083241 S    
Zn5   O29   2.015015 S    
C74   C94   1.397083 A    
C53   C57   1.413717 A    
C52   C72   1.402823 A    
C162  C168  1.389705 A    
O16   C8    1.291274 A    
O39   Zn11  2.018924 S    
C144  C146  1.407145 A    
C150  H58   1.083336 S    
Zn7   O31   2.015015 S    
O11   Zn2   1.999496 S    
N11   O70   1.301900 A    
C58   C94   1.453124 S    
O25   C99   1.274108 A    
C179  F19   1.357883 S    
C128  H52   1.083487 S    
N8    O64   1.301471 A    
N7    O62   1.301471 A    
C7    C23   1.449715 S    
O6    Zn3   2.013606 S    
O27   C101  1.274108 A    
C44   F24   1.357764 S    
C132  F12   1.357795 S    
O34   Zn10  2.014516 S    
C45   C107  1.459691 S    
N6    O60   1.301475 A    
O44   C110  1.279385 A    
C9    H1    1.086096 S    
C163  H67   1.082620 S    
O25   Zn6   2.005051 S    
C142  C145  1.407106 A    
O2    C2    1.285958 A    
C75   C95   1.397103 A    
O43   Zn12  2.008246 S    
C116  H48   1.083233 S    
C122  C136  1.458891 S    
C76   C96   1.397079 A    
C19   H11   1.086328 S    
C58   C62   1.398394 A    
C73   C77   1.389858 A    
C20   H12   1.086329 S    
C154  H62   1.082665 S    
O18   Zn6   2.015324 S    
O14   Zn3   1.999502 S    
C78   C82   1.406798 A    
C59   C95   1.453254 S    
C60   C96   1.453124 S    
C61   H29   1.084017 S    
C118  C121  1.415322 A    
C18   C22   1.346116 D    
O20   C98   1.285431 A    
C113  C123  1.398714 A    
C112  C124  1.462223 S    
C11   H3    1.086096 S    
C54   C58   1.413693 A    
C11   C15   1.335651 D    
C12   H4    1.086098 S    
C13   C99   1.438847 S    
C114  C123  1.398715 A    
C14   C100  1.438844 S    
C17   H9    1.086327 S    
C176  H76   1.083559 S    
C119  C122  1.415326 A    
C117  C121  1.415324 A    
C90   H42   1.083407 S    
C63   H31   1.084031 S    
C138  C142  1.389217 A    
C23   N11   1.445075 S    
C68   C72   1.402531 A    
O36   C106  1.276861 A    
