data_mof_unit_30852.cif
_audit_creation_date              2012-12-10T20:39:14-0500
_audit_creation_method            fapswitch 2.2
_symmetry_space_group_name_H-M    P1
_symmetry_Int_Tables_number       1
_space_group_crystal_system       triclinic
_cell_length_a                    19.110191
_cell_length_b                    10.670471
_cell_length_c                    9.842961
_cell_angle_alpha                 89.933471
_cell_angle_beta                  90.117456
_cell_angle_gamma                 90.221656
_cell_volume                      2007.10425037

loop_
_atom_site_label
_atom_site_type_symbol
_atom_type_description
_atom_site_fract_x
_atom_site_fract_y
_atom_site_fract_z
_atom_type_partial_charge
C1    C     C_R   0.502373 0.259885 0.500089 0.877135
C2    C     C_R   0.855986 0.534414 0.496806 0.017971
C3    C     C_R   0.514256 0.063839 0.623522 0.139517
C4    C     C_R   0.365376 0.503324 0.499692 0.871946
C5    C     C_R   0.514173 0.128698 0.500753 -0.105309
C6    C     C_R   0.527903 0.065164 0.379044 -0.236061
C7    C     C_R   0.528012 0.935552 0.378987 -0.221691
C8    C     C_R   0.514310 0.871479 0.500625 -0.100244
C9    C     C_R   0.514380 0.936006 0.623476 0.125560
C10   C     C_3   0.464777 0.928180 0.740509 -0.471618
C11   C     C_3   0.464492 0.070223 0.740318 -0.487936
C12   C     C_R   0.290333 0.525486 0.497725 -0.026592
C13   C     C_R   0.467319 0.405998 0.071412 0.195398
C14   C     C_R   0.537823 0.585844 0.072104 -0.098268
C15   C     C_R   0.537820 0.585872 0.927948 -0.134563
C16   C     C_R   0.502452 0.740137 0.499952 0.881241
C17   C     C_R   0.467148 0.406203 0.928672 0.220750
C18   C     C_3   0.391090 0.374883 0.923573 -0.519895
C19   C     C_3   0.391537 0.373473 0.077704 -0.494497
C20   C     C_R   0.634725 0.499253 0.499961 0.877114
C21   C     C_R   0.250314 0.505096 0.614273 -0.192450
C22   C     C_R   0.179448 0.531791 0.612894 -0.190526
C23   C     C_R   0.931628 0.553601 0.493916 0.315625
C24   C     C_R   0.147846 0.579899 0.495287 0.068266
C25   C     C_R   0.188646 0.607405 0.379191 0.012589
C26   C     C_R   0.259492 0.577182 0.381119 -0.288911
C27   C     C_2   0.160765 0.670651 0.256079 0.396638
C28   C     C_3   0.708892 0.295412 0.275568 0.122419
C29   C     C_3   0.665397 0.249551 0.155804 -0.796710
C30   C     C_R   0.071872 0.581306 0.490876 0.352709
C31   C     C_R   0.817955 0.562520 0.614334 -0.155629
C32   C     C_R   0.745947 0.547027 0.615820 -0.259453
C33   C     C_R   0.710926 0.503378 0.499831 -0.156325
C34   C     C_R   0.749255 0.469330 0.383246 0.463035
C35   C     C_R   0.821365 0.487020 0.381967 -0.245901
H1    H     H_    0.273381 0.466089 0.705340 0.146126
H2    H     H_    0.381013 0.281245 0.878293 0.198851
H3    H     H_    0.359396 0.449202 0.123100 0.215634
H4    H     H_    0.148638 0.509462 0.702081 0.156276
H5    H     H_    0.382641 0.278672 0.121454 0.204257
H6    H     H_    0.291182 0.598004 0.292603 0.143778
H7    H     H_    0.843565 0.598120 0.704707 0.168087
H8    H     H_    0.717496 0.572803 0.706635 0.180711
H9    H     H_    0.849857 0.464124 0.290328 0.172907
H10   H     H_    0.533319 0.114356 0.283296 0.170425
H11   H     H_    0.189486 0.665379 0.161196 0.056568
H12   H     H_    0.533619 0.886671 0.283232 0.165804
H13   H     H_    0.681422 0.266884 0.370669 0.120930
H14   H     H_    0.761052 0.249327 0.271747 0.138844
H15   H     H_    0.659410 0.146092 0.161039 0.195696
H16   H     H_    0.612692 0.293040 0.158391 0.257827
H17   H     H_    0.691516 0.274871 0.058812 0.254970
H18   H     H_    0.413431 0.886139 0.712206 0.209504
H19   H     H_    0.489756 0.887443 0.832533 0.200288
H20   H     H_    0.413017 0.110687 0.711401 0.200871
H21   H     H_    0.489117 0.111682 0.832402 0.203435
H22   H     H_    0.567198 0.656598 0.126678 0.148131
H23   H     H_    0.567187 0.656656 0.873447 0.144686
H24   H     H_    0.359291 0.452363 0.880660 0.214329
N1    N     N_R   0.038096 0.531387 0.382547 -0.132343
N2    N     N_R   0.969087 0.518514 0.383698 -0.165635
N3    N     N_R   0.965533 0.603648 0.602380 -0.173231
N4    N     N_R   0.034638 0.616679 0.601236 -0.172480
N5    N     N_R   0.499530 0.499140 0.142800 -0.110607
N6    N     N_R   0.499530 0.499180 0.857150 -0.105507
O1    O     O_R   0.500010 0.316790 0.614690 -0.614497
O2    O     O_3   0.716441 0.426833 0.266684 -0.596819
O3    O     O_R   0.500000 0.316760 0.385350 -0.625545
O4    O     O_R   0.398140 0.500000 0.614710 -0.620100
O5    O     O_R   0.398130 0.499970 0.385370 -0.619174
O6    O     O_R   0.500000 0.683240 0.614650 -0.619829
O7    O     O_R   0.499990 0.683210 0.385310 -0.628447
O8    O     O_R   0.601870 0.500030 0.614630 -0.626963
O9    O     O_R   0.601860 0.500000 0.385290 -0.565697
O10   O     O_2   0.107619 0.733654 0.260007 -0.544462
Zn1   Zn    Zn3+2 0.500000 0.500020 0.653130 0.942783
Zn2   Zn    Zn3+2 0.500000 0.499980 0.346870 0.954285

loop_
_geom_bond_atom_site_label_1
_geom_bond_atom_site_label_2
_ccdc_geom_bond_type
C2    C35   A    
C31   H7    S    
N5    Zn2   S    
C16   O7    A    
C4    O5    A    
C7    C8    A    
C21   H1    S    
O7    Zn2   S    
N6    Zn1   S    
C1    C5    S    
C28   C29   S    
C6    H10   S    
C18   H2    S    
C18   C19   S    
C5    C6    A    
C15   N6    A    
C1    O3    A    
O4    Zn1   S    
C17   C18   S    
C34   C35   A    
C10   H18   S    
C23   N3    A    
C8    C9    A    
O9    Zn2   S    
C30   N1    A    
C4    C12   S    
C9    C10   S    
O1    Zn1   S    
C8    C16   S    
C30   N4    A    
O5    Zn2   S    
C16   O6    A    
C27   O10   D    
C4    O4    A    
C33   C34   A    
C29   H15   S    
C13   C19   S    
C28   O2    S    
C24   C25   A    
C10   C11   S    
C25   C26   A    
C12   C21   A    
C12   C26   A    
N1    N2    A    
C7    H12   S    
N3    N4    A    
C3    C9    A    
C19   H3    S    
C28   H14   S    
C31   C32   A    
C14   N5    A    
C1    O1    A    
C20   O9    A    
C35   H9    S    
C20   C33   S    
C27   H11   S    
C15   H23   S    
C22   C24   A    
C11   H20   S    
C29   H16   S    
O3    Zn2   S    
C14   H22   S    
C28   H13   S    
C3    C5    A    
C34   O2    S    
C6    C7    A    
C25   C27   S    
C17   N6    A    
C13   C17   A    
C32   C33   A    
O6    Zn1   S    
C13   N5    A    
C22   H4    S    
O8    Zn1   S    
C32   H8    S    
C20   O8    A    
C10   H19   S    
C24   C30   S    
C3    C11   S    
C19   H5    S    
C18   H24   S    
C23   N2    A    
C2    C23   S    
C14   C15   A    
C2    C31   A    
C21   C22   A    
C11   H21   S    
C26   H6    S    
C29   H17   S    
