data_mof_unit_12375.cif
_audit_creation_date              2012-12-10T17:50:36-0500
_audit_creation_method            fapswitch 2.2
_symmetry_space_group_name_H-M    P1
_symmetry_Int_Tables_number       1
_space_group_crystal_system       triclinic
_cell_length_a                    15.693059
_cell_length_b                    10.627875
_cell_length_c                    9.980859
_cell_angle_alpha                 89.84027
_cell_angle_beta                  90.844081
_cell_angle_gamma                 92.841698
_cell_volume                      1662.41536137

loop_
_atom_site_label
_atom_site_type_symbol
_atom_type_description
_atom_site_fract_x
_atom_site_fract_y
_atom_site_fract_z
_atom_type_partial_charge
C1    C     C_R   0.501703 0.260875 0.500299 0.878570
C2    C     C_3   0.083146 0.512520 0.500106 0.216821
C3    C     C_3   0.975537 0.606743 0.576021 -0.168030
C4    C     C_3   0.917683 0.508431 0.502591 0.213423
C5    C     C_3   0.030318 0.620305 0.448623 -0.166189
C6    C     C_3   0.970602 0.521971 0.375230 -0.161232
C7    C     C_1   0.174138 0.512296 0.498964 -0.099943
C8    C     C_1   0.826582 0.505478 0.503288 -0.087330
C9    C     C_R   0.647207 0.141630 0.619483 -0.172454
C10   C     C_R   0.715662 0.080888 0.676656 -0.136012
C11   C     C_R   0.715927 0.949965 0.676166 -0.143568
C12   C     C_R   0.338282 0.502918 0.499377 0.922519
C13   C     C_R   0.647765 0.879319 0.618419 -0.191700
C14   C     C_R   0.577452 0.939474 0.561096 0.097368
C15   C     C_R   0.577133 0.071400 0.561642 0.092844
C16   C     C_R   0.507161 0.128768 0.500814 -0.098793
C17   C     C_R   0.440603 0.059634 0.437799 -0.214709
C18   C     C_R   0.441106 0.931122 0.436776 -0.222872
C19   C     C_R   0.507883 0.871976 0.499626 -0.081947
C20   C     C_R   0.401920 0.303045 0.127888 0.571357
C21   C     C_R   0.379579 0.195273 0.050999 -0.273722
C22   C     C_R   0.377163 0.203432 0.913589 -0.285336
C23   C     C_R   0.502449 0.739255 0.499882 0.848558
C24   C     C_R   0.406033 0.313836 0.852908 -0.138697
C25   C     C_R   0.453472 0.407228 0.925134 0.109218
C26   C     C_R   0.452731 0.405108 0.069440 0.042535
C27   C     C_R   0.544626 0.589121 0.072171 -0.111411
C28   C     C_R   0.544661 0.588971 0.929638 -0.100322
C29   C     C_R   0.661895 0.500792 0.500883 0.864424
C30   C     C_3   0.970572 0.400676 0.554032 -0.165236
C31   C     C_3   0.025242 0.414243 0.426706 -0.172434
C32   C     C_1   0.249449 0.509166 0.498644 -0.212661
C33   C     C_1   0.751064 0.503011 0.502758 -0.185313
C34   C     C_3   0.030232 0.498954 0.627461 -0.162635
H1    H     H_    0.047867 0.335747 0.365576 0.123958
H2    H     H_    0.769450 0.903005 0.719570 0.130600
H3    H     H_    0.651368 0.777972 0.617575 0.140547
H4    H     H_    0.388377 0.877332 0.389538 0.148515
H5    H     H_    0.581339 0.662129 0.125869 0.145757
H6    H     H_    0.352328 0.110811 0.097856 0.158859
H7    H     H_    0.347745 0.127296 0.854547 0.175918
H8    H     H_    0.389829 0.323297 0.749666 0.214363
H9    H     H_    0.581454 0.661936 0.877229 0.143334
H10   H     H_    0.943938 0.310928 0.597106 0.127392
H11   H     H_    0.944004 0.531215 0.272181 0.131401
H12   H     H_    0.056967 0.710021 0.405539 0.128598
H13   H     H_    0.952933 0.685268 0.637110 0.127542
H14   H     H_    0.056847 0.489676 0.730497 0.130489
H15   H     H_    0.387262 0.105092 0.391832 0.183914
H16   H     H_    0.650403 0.243384 0.619689 0.149344
H17   H     H_    0.768985 0.135630 0.720431 0.131492
N1    N     N_R   0.499210 0.498800 0.142780 -0.107197
N2    N     N_R   0.499180 0.498720 0.857170 -0.108315
O1    O     O_R   0.500000 0.316780 0.614690 -0.648162
O2    O     O_R   0.499990 0.316750 0.385360 -0.557616
O3    O     O_R   0.376780 0.500000 0.614650 -0.639646
O4    O     O_R   0.376770 0.499980 0.385310 -0.549600
O5    O     O_R   0.500010 0.683250 0.614640 -0.619933
O6    O     O_R   0.500000 0.683220 0.385310 -0.621496
O7    O     O_R   0.623230 0.500020 0.614690 -0.624627
O8    O     O_R   0.623220 0.500000 0.385350 -0.611148
Zn1   Zn    Zn3+2 0.500010 0.500020 0.653130 0.934966
Zn2   Zn    Zn3+2 0.499990 0.499980 0.346870 0.986020
O9    O     O_3   0.368247 0.308524 0.254004 -0.574964
C35   C     C_3   0.277732 0.301267 0.247014 -0.355466
H18   H     H_    0.250855 0.212413 0.201708 0.142128
H19   H     H_    0.253388 0.384085 0.192813 0.177468
H20   H     H_    0.252921 0.300795 0.350177 0.180476

loop_
_geom_bond_atom_site_label_1
_geom_bond_atom_site_label_2
_ccdc_geom_bond_type
O5    Zn1   S    
C23   O5    A    
C19   C23   S    
C28   N2    A    
C24   C25   A    
C20   O9    S    
C6    H11   S    
C26   N1    A    
C24   H8    S    
N2    Zn1   S    
C28   H9    S    
O6    Zn2   S    
C2    C7    S    
C29   O7    A    
C30   C31   S    
C4    C8    S    
C35   H20   S    
O9    C35   S    
C2    C34   S    
C17   C18   A    
C1    O2    A    
C1    C16   S    
O3    Zn1   S    
C21   C22   A    
C12   C32   S    
C23   O6    A    
C11   C13   A    
C30   H10   S    
C12   O3    A    
C21   H6    S    
C20   C26   A    
C1    O1    A    
C12   O4    A    
C31   H1    S    
C3    H13   S    
C11   H2    S    
C25   N2    A    
C18   C19   A    
C22   C24   A    
C8    C33   T    
C18   H4    S    
C5    C6    S    
C13   C14   A    
C29   O8    A    
C22   H7    S    
C34   H14   S    
C10   C11   A    
C10   H17   S    
C4    C6    S    
C3    C4    S    
C2    C5    S    
C9    C10   A    
C29   C33   S    
C20   C21   A    
C27   N1    A    
O7    Zn1   S    
C35   H18   S    
C5    H12   S    
C17   H15   S    
C27   C28   A    
O8    Zn2   S    
C30   C34   S    
C14   C15   A    
C16   C17   A    
C6    C31   S    
C7    C32   T    
O1    Zn1   S    
C3    C34   S    
C3    C5    S    
C25   C26   A    
C9    C15   A    
C13   H3    S    
C14   C19   A    
C4    C30   S    
C9    H16   S    
C15   C16   A    
O4    Zn2   S    
C27   H5    S    
C2    C31   S    
C35   H19   S    
N1    Zn2   S    
O2    Zn2   S    
