data_mof_unit_49954.cif
_audit_creation_date              2012-12-10T17:58:19-0500
_audit_creation_method            fapswitch 2.2
_symmetry_space_group_name_H-M    P1
_symmetry_Int_Tables_number       1
_space_group_crystal_system       triclinic
_cell_length_a                    9.544874
_cell_length_b                    10.792408
_cell_length_c                    15.378231
_cell_angle_alpha                 89.835318
_cell_angle_beta                  74.085071
_cell_angle_gamma                 90.389647
_cell_volume                      1523.37084314

loop_
_atom_site_label
_atom_site_type_symbol
_atom_type_description
_atom_site_fract_x
_atom_site_fract_y
_atom_site_fract_z
_atom_type_partial_charge
C1    C     C_R   0.999463 0.262432 0.499967 0.865247
C2    C     C_R   0.999958 0.737407 0.501222 0.891503
C3    C     C_R   0.595380 0.531935 0.104754 0.701513
C4    C     C_R   0.456419 0.651062 0.920577 0.686782
C5    C     C_R   0.741275 0.514148 0.059392 -0.220518
C6    C     C_R   0.314525 0.681143 0.967899 -0.183689
C7    C     C_R   0.896915 0.065490 0.568742 0.398754
C8    C     C_R   0.102115 0.934039 0.433234 0.399973
C9    C     C_R   0.898401 0.935595 0.571919 0.248565
C10   C     C_R   0.100437 0.063725 0.430106 0.252797
C11   C     C_R   0.000536 0.871244 0.503072 -0.278653
C12   C     C_R   0.998488 0.128304 0.498807 -0.265504
C13   C     C_R   0.551707 0.415679 0.551135 0.353541
C14   C     C_R   0.448646 0.583059 0.447736 0.369810
C15   C     C_R   0.402115 0.416377 0.550995 0.550397
C16   C     C_R   0.597903 0.583341 0.448740 0.567008
C17   C     C_R   0.917478 0.495224 0.673251 0.830243
C18   C     C_R   0.082415 0.506040 0.327394 0.835543
C19   C     C_R   0.872385 0.492461 0.774316 -0.328747
C20   C     C_R   0.130101 0.535716 0.229484 -0.251241
C21   C     C_R   0.932806 0.483052 0.919521 0.457039
C22   C     C_R   0.106983 0.661505 0.101467 0.377567
C23   C     C_R   0.975147 0.472204 0.824359 0.257767
C24   C     C_R   0.048384 0.617725 0.191362 0.272199
C25   C     C_R   0.725596 0.515712 0.821778 0.405191
C26   C     C_R   0.272315 0.502844 0.179354 0.410273
C27   C     C_R   0.687018 0.541068 0.915126 -0.015066
C28   C     C_R   0.340815 0.567155 0.098914 -0.011887
C29   C     C_R   0.788108 0.513914 0.964626 -0.127023
C30   C     C_R   0.253574 0.637116 0.056144 -0.096973
C31   C     C_R   0.544612 0.580579 0.962271 -0.101700
C32   C     C_R   0.492436 0.556269 0.056121 -0.096549
Cu1   Cu    Cu3+1 0.140660 0.500020 0.500000 1.107637
Cu2   Cu    Cu3+1 0.859340 0.499980 0.500000 1.118840
H1    H     H_    0.816574 0.496682 0.099359 0.225799
H2    H     H_    0.251843 0.737617 0.934100 0.232602
N1    N     N_R   0.352080 0.500030 0.499980 -0.266956
N2    N     N_R   0.647920 0.499970 0.500020 -0.267324
O1    O     O_R   0.118740 0.319660 0.500000 -0.533225
O2    O     O_R   0.881260 0.680340 0.500000 -0.521937
O3    O     O_R   0.881170 0.319630 0.500010 -0.520240
O4    O     O_R   0.118830 0.680370 0.499990 -0.517568
O5    O     O_R   0.055570 0.500030 0.629830 -0.539176
O6    O     O_R   0.944430 0.499970 0.370170 -0.505523
O7    O     O_R   0.818000 0.500000 0.629840 -0.521691
O8    O     O_R   0.182000 0.500000 0.370160 -0.524499
O9    O     O_3   0.342759 0.402928 0.204305 -0.636657
H3    H     H_    0.269467 0.346763 0.243153 0.317669
O10   O     O_3   0.615530 0.497482 0.780924 -0.626825
H4    H     H_    0.630372 0.414001 0.753378 0.358490
O11   O     O_3   0.915003 0.657159 0.244107 -0.627573
H5    H     H_    0.897962 0.742461 0.225587 0.353113
O12   O     O_3   0.114492 0.433461 0.782779 -0.673392
H6    H     H_    0.105552 0.364816 0.741951 0.383426
O13   O     O_3   0.028743 0.459371 0.970642 -0.724716
H7    H     H_    0.127879 0.445043 0.930840 0.377869
O14   O     O_3   0.025403 0.730101 0.057185 -0.712141
H8    H     H_    0.920628 0.713388 0.084988 0.339881
F1    F     F_    0.559625 0.539092 0.196363 -0.603875
F2    F     F_    0.511630 0.703913 0.837881 -0.594360
O15   O     O_3   0.802066 0.134648 0.634872 -0.686154
H9    H     H_    0.734593 0.079523 0.678786 0.387140
O16   O     O_3   0.196856 0.864999 0.366914 -0.673049
H10   H     H_    0.264271 0.920131 0.322975 0.383954
O17   O     O_3   0.801445 0.875502 0.643520 -0.673219
H11   H     H_    0.835539 0.790653 0.650411 0.337291
O18   O     O_3   0.196801 0.123739 0.358457 -0.703356
H12   H     H_    0.158598 0.206461 0.350242 0.308351
O19   O     O_3   0.603000 0.330770 0.601838 -0.641221
H13   H     H_    0.522138 0.276205 0.635181 0.367022
O20   O     O_3   0.398307 0.664799 0.394340 -0.597148
H14   H     H_    0.479759 0.717708 0.359584 0.378214
F3    F     F_    0.307852 0.332101 0.601071 -0.641945
F4    F     F_    0.692084 0.667542 0.398609 -0.597688

loop_
_geom_bond_atom_site_label_1
_geom_bond_atom_site_label_2
_ccdc_geom_bond_type
O13   H7    S    
C27   C29   A    
C14   O20   S    
C22   O14   S    
C10   O18   S    
Cu2   O3    S    
Cu1   O1    S    
C13   O19   S    
C16   F4    S    
Cu1   O4    S    
C17   O7    A    
O19   H13   S    
C15   N1    A    
C7    O15   S    
C31   C32   A    
C18   C20   S    
C24   O11   S    
Cu1   O8    S    
O15   H9    S    
C1    C12   S    
C2    C11   S    
C18   O8    A    
C23   O12   S    
C5    C29   A    
C7    C12   A    
C27   C31   A    
O11   H5    S    
Cu1   O5    S    
C20   C24   A    
C28   C32   A    
Cu2   O6    S    
C4    C6    A    
C21   O13   S    
O12   H6    S    
C21   C29   A    
Cu1   N1    S    
O18   H12   S    
C19   C23   A    
C17   O5    A    
C18   O6    A    
O9    H3    S    
C4    F2    S    
C9    O17   S    
Cu1   Cu2   S    
Cu2   O7    S    
C9    C11   A    
C13   N2    A    
C10   C12   A    
C26   O9    S    
C1    O3    A    
C6    C30   A    
O10   H4    S    
C13   C15   A    
C14   C16   A    
C7    C9    A    
C22   C30   A    
C15   F3    S    
Cu2   N2    S    
C3    C5    A    
C25   C27   A    
C26   C28   A    
C21   C23   A    
O20   H14   S    
C14   N1    A    
O14   H8    S    
C20   C26   A    
C2    O4    A    
C8    C11   A    
C5    H1    S    
C28   C30   A    
C17   C19   S    
C6    H2    S    
C22   C24   A    
C3    C32   A    
C19   C25   A    
C25   O10   S    
C4    C31   A    
C1    O1    A    
C8    O16   S    
O16   H10   S    
C2    O2    A    
C8    C10   A    
O17   H11   S    
Cu2   O2    S    
C16   N2    A    
C3    F1    S    
