data_mof_unit_45561.cif
_audit_creation_date              2012-12-10T20:44:48-0500
_audit_creation_method            fapswitch 2.2
_symmetry_space_group_name_H-M    P1
_symmetry_Int_Tables_number       1
_space_group_crystal_system       triclinic
_cell_length_a                    9.900101
_cell_length_b                    10.783348
_cell_length_c                    16.776451
_cell_angle_alpha                 86.975932
_cell_angle_beta                  96.11241
_cell_angle_gamma                 88.137239
_cell_volume                      1777.01771002

loop_
_atom_site_label
_atom_site_type_symbol
_atom_type_description
_atom_site_fract_x
_atom_site_fract_y
_atom_site_fract_z
_atom_type_partial_charge
C1    C     C_R   0.502325 0.259501 0.503074 0.892324
C2    C     C_R   0.503466 0.126305 0.513081 -0.122241
C3    C     C_R   0.377007 0.067991 0.505149 -0.224419
C4    C     C_R   0.519507 0.500157 0.653211 0.881868
C5    C     C_R   0.372791 0.939807 0.503634 -0.256065
C6    C     C_R   0.494730 0.869893 0.508787 -0.071613
C7    C     C_R   0.615753 0.926893 0.527221 0.090027
C8    C     C_3   0.748825 0.909182 0.496478 -0.525006
C9    C     C_3   0.768962 0.046588 0.510943 0.005999
C10   C     C_R   0.083326 0.498643 0.570492 0.158534
C11   C     C_R   0.053920 0.542828 0.433091 0.030317
C12   C     C_R   0.647137 0.460965 0.787398 -0.240717
C13   C     C_R   0.917170 0.504750 0.431161 -0.174064
C14   C     C_R   0.940691 0.509949 0.570204 0.028627
C15   C     C_3   0.946319 0.426495 0.644293 0.167089
C16   C     C_R   0.497721 0.739637 0.500055 0.837639
C17   C     C_3   0.098566 0.404822 0.639711 0.141364
C18   C     C_R   0.480388 0.505562 0.346792 0.846306
C19   C     C_R   0.534250 0.514358 0.738732 -0.029909
C20   C     C_R   0.435937 0.585533 0.771712 -0.167480
C21   C     C_R   0.446255 0.597789 0.853612 -0.175047
C22   C     C_R   0.555163 0.538279 0.903207 0.319764
C23   C     C_R   0.539803 0.607816 0.137838 -0.166144
C24   C     C_R   0.657879 0.473809 0.869779 -0.192196
C25   C     C_R   0.878121 0.049662 0.583434 0.104867
C26   C     C_R   0.013468 0.010687 0.575781 -0.212073
C27   C     C_R   0.111930 0.002522 0.642247 -0.145431
C28   C     C_R   0.076566 0.029292 0.717902 -0.124837
C29   C     C_R   0.942129 0.062021 0.727589 -0.100107
C30   C     C_R   0.843091 0.070169 0.661404 -0.044053
C31   C     C_R   0.790419 0.123031 0.433258 0.171422
C32   C     C_R   0.692181 0.122420 0.365498 -0.175005
C33   C     C_R   0.712112 0.185331 0.293008 -0.134482
C34   C     C_R   0.546329 0.605931 0.220702 0.403630
C35   C     C_R   0.831549 0.247807 0.285809 -0.111003
C36   C     C_R   0.930191 0.249154 0.351500 -0.156965
C37   C     C_R   0.908752 0.190353 0.425132 -0.146600
C38   C     C_R   0.060684 0.671759 0.389072 0.099411
C39   C     C_R   0.178937 0.724590 0.364357 -0.106121
C40   C     C_R   0.177637 0.841633 0.324062 -0.205471
C41   C     C_R   0.056826 0.910864 0.305747 -0.101646
C42   C     C_R   0.937300 0.863107 0.328073 -0.098950
C43   C     C_R   0.939072 0.747340 0.369903 -0.158468
C44   C     C_R   0.449144 0.532464 0.094156 0.230976
C45   C     C_R   0.464265 0.523053 0.260367 -0.143362
C46   C     C_R   0.368050 0.453962 0.216403 -0.274686
C47   C     C_R   0.359754 0.459802 0.133258 -0.192842
C48   C     C_R   0.622911 0.052050 0.533303 0.021902
H1    H     H_    0.275438 0.897063 0.493630 0.180664
H2    H     H_    0.302811 0.392393 0.246508 0.168813
H3    H     H_    0.368428 0.651722 0.878623 0.150465
H4    H     H_    0.287882 0.403688 0.099388 0.152702
H5    H     H_    0.351252 0.631594 0.734147 0.191681
H6    H     H_    0.281114 0.120760 0.495234 0.174210
H7    H     H_    0.598590 0.704741 0.311783 0.317856
H8    H     H_    0.042197 0.984951 0.518197 0.145765
H9    H     H_    0.215495 0.973691 0.635462 0.151633
H10   H     H_    0.152981 0.022776 0.769274 0.126302
H11   H     H_    0.914323 0.080832 0.786568 0.123193
H12   H     H_    0.815976 0.840413 0.535269 0.216855
H13   H     H_    0.739876 0.095239 0.671526 0.131586
H14   H     H_    0.600165 0.071565 0.368060 0.130762
H15   H     H_    0.635525 0.184037 0.241980 0.136818
H16   H     H_    0.847675 0.295272 0.229338 0.132059
H17   H     H_    0.022953 0.297757 0.345778 0.136248
H18   H     H_    0.986294 0.198238 0.474620 0.108511
H19   H     H_    0.274570 0.680765 0.374010 0.193536
H20   H     H_    0.271423 0.878406 0.306718 0.137618
H21   H     H_    0.055764 0.001108 0.274153 0.135839
H22   H     H_    0.842558 0.916015 0.313001 0.152020
H23   H     H_    0.734136 0.887203 0.432503 0.181972
H24   H     H_    0.842439 0.718645 0.387104 0.158977
H25   H     H_    0.884736 0.289557 0.580564 0.341416
H26   H     H_    0.180412 0.380776 0.748781 0.338326
H27   H     H_    0.852668 0.510647 0.374748 0.190810
H28   H     H_    0.920890 0.477202 0.697067 0.158515
H29   H     H_    0.604509 0.669316 0.107289 0.169610
H30   H     H_    0.131341 0.310487 0.623314 0.122419
H31   H     H_    0.742819 0.429329 0.907895 0.142872
H32   H     H_    0.724194 0.406626 0.762117 0.184457
N1    N     N_2   0.560483 0.538827 0.987073 -0.204647
N2    N     N_2   0.445936 0.528637 0.010516 -0.188566
N3    N     N_R   0.142860 0.499130 0.500540 -0.145959
N4    N     N_R   0.857210 0.499170 0.500530 -0.108612
O1    O     O_R   0.614690 0.316790 0.499990 -0.585067
O2    O     O_3   0.869763 0.320992 0.633443 -0.763010
O3    O     O_3   0.176183 0.448652 0.706206 -0.764712
O4    O     O_R   0.385350 0.316760 0.500000 -0.628583
O5    O     O_R   0.627460 0.498860 0.616130 -0.590418
O6    O     O_R   0.398120 0.498820 0.616130 -0.571646
O7    O     O_R   0.614650 0.683240 0.500000 -0.624835
O8    O     O_R   0.385310 0.683210 0.500010 -0.643780
O9    O     O_R   0.601880 0.501180 0.383870 -0.602312
O10   O     O_R   0.372540 0.501140 0.383870 -0.644774
O11   O     O_3   0.632324 0.686717 0.259959 -0.790508
Zn1   Zn    Zn3+2 0.653130 0.500020 0.499990 0.969715
Zn2   Zn    Zn3+2 0.346870 0.499980 0.500010 0.948141

loop_
_geom_bond_atom_site_label_1
_geom_bond_atom_site_label_2
_ccdc_geom_bond_type
C43   H24   S    
C41   C42   A    
C19   C20   A    
C14   N4    A    
N1    N2    D    
C9    C25   S    
C7    C8    S    
C45   C46   A    
C13   N4    A    
C26   C27   A    
C36   C37   A    
C44   N2    S    
C5    C6    A    
O1    Zn1   S    
C10   C17   S    
C10   N3    A    
C42   H22   S    
C1    C2    S    
N4    Zn1   S    
O7    Zn1   S    
C4    C19   S    
C35   C36   A    
C8    C9    S    
C13   H27   S    
C35   H16   S    
H26   O3    S    
O6    Zn2   S    
O4    Zn2   S    
C44   C47   A    
C1    O4    A    
C15   H28   S    
C21   C22   A    
C5    H1    S    
O8    Zn2   S    
C4    O6    A    
C1    O1    A    
C22   N1    S    
C29   H11   S    
C34   O11   S    
H7    O11   S    
C27   H9    S    
C39   C40   A    
C36   H17   S    
O10   Zn2   S    
C2    C48   A    
C25   C26   A    
C23   C44   A    
C31   C37   A    
C11   C38   S    
C29   C30   A    
C24   H31   S    
C31   C32   A    
C33   H15   S    
C23   C34   A    
C37   H18   S    
C34   C45   A    
C23   H29   S    
C47   H4    S    
C3    H6    S    
C9    C48   S    
C15   O2    S    
C40   C41   A    
C16   O8    A    
O9    Zn1   S    
C40   H20   S    
C18   O10   A    
C22   C24   A    
C42   C43   A    
C18   C45   S    
C21   H3    S    
C41   H21   S    
C4    O5    A    
C25   C30   A    
C15   C17   S    
C46   H2    S    
C46   C47   A    
C28   C29   A    
C8    H23   S    
C17   O3    S    
C39   H19   S    
C20   H5    S    
C3    C5    A    
C26   H8    S    
C6    C7    A    
C28   H10   S    
C12   C24   A    
C11   N3    A    
C32   C33   A    
O5    Zn1   S    
C2    C3    A    
C32   H14   S    
C38   C43   A    
C7    C48   A    
C11   C13   A    
C38   C39   A    
C12   H32   S    
C12   C19   A    
C17   H30   S    
C33   C35   A    
H25   O2    S    
C9    C31   S    
C6    C16   S    
C20   C21   A    
C16   O7    A    
N3    Zn2   S    
C30   H13   S    
C27   C28   A    
C18   O9    A    
C14   C15   S    
C8    H12   S    
C10   C14   A    
