data_mof_unit_11502.cif
_audit_creation_date              2012-12-10T19:27:35-0500
_audit_creation_method            fapswitch 2.2
_symmetry_space_group_name_H-M    P1
_symmetry_Int_Tables_number       1
_space_group_crystal_system       triclinic
_cell_length_a                    18.995068
_cell_length_b                    18.218616
_cell_length_c                    18.944001
_cell_angle_alpha                 108.835681
_cell_angle_beta                  110.213503
_cell_angle_gamma                 109.003796
_cell_volume                      5068.36562385

loop_
_atom_site_label
_atom_site_type_symbol
_atom_type_description
_atom_site_fract_x
_atom_site_fract_y
_atom_site_fract_z
_atom_type_partial_charge
C1    C     C_R   0.379188 0.378811 0.498439 0.867399
C2    C     C_R   0.614770 0.336425 0.612696 -0.247125
C3    C     C_3   0.958100 0.478432 0.251511 0.089623
C4    C     C_3   0.877799 0.419535 0.249459 -0.381561
C5    C     C_3   0.844292 0.321015 0.192105 -0.961046
C6    C     C_3   0.945013 0.913383 0.979378 0.074179
C7    C     C_3   0.007119 0.938729 0.945760 -0.418762
C8    C     C_3   0.029710 0.030192 0.952819 -0.911254
C9    C     C_3   0.037323 0.748522 0.982409 0.140825
C10   C     C_3   0.046539 0.729800 0.901291 -0.418176
C11   C     C_3   0.139357 0.786499 0.925908 -0.968558
C12   C     C_R   0.302328 0.227582 0.471669 0.062858
C13   C     C_R   0.619612 0.498811 0.619403 0.855229
C14   C     C_R   0.308369 0.310515 0.490907 -0.078677
C15   C     C_R   0.243161 0.325471 0.499619 -0.215432
C16   C     C_R   0.179088 0.261103 0.500029 -0.208287
C17   C     C_R   0.182213 0.183590 0.494078 -0.159013
C18   C     C_R   0.240017 0.164560 0.473251 0.093062
C19   C     C_3   0.298967 0.132696 0.510585 0.293047
C20   C     C_3   0.368556 0.204169 0.510718 -0.520467
C21   C     C_R   0.760684 0.585917 0.752649 0.028944
C22   C     C_R   0.261942 0.427965 0.232093 -0.190872
C23   C     C_R   0.307909 0.497284 0.316496 -0.226696
C24   C     C_R   0.279207 0.559959 0.336776 0.495957
C25   C     C_R   0.622153 0.621161 0.503207 0.874729
C26   C     C_R   0.218696 0.560614 0.269182 -0.301425
C27   C     C_R   0.180732 0.494125 0.183790 -0.132678
C28   C     C_R   0.194830 0.421490 0.168042 -0.111123
C29   C     C_3   0.201061 0.359300 0.097433 0.792918
C30   C     C_3   0.280807 0.372673 0.171209 0.299387
C31   C     C_R   0.690592 0.673142 0.429990 0.027749
C32   C     C_R   0.820020 0.508825 0.816268 -0.163971
C33   C     C_R   0.687234 0.689768 0.505004 -0.133507
C34   C     C_R   0.745665 0.773344 0.579519 -0.224194
C35   C     C_R   0.811677 0.835781 0.579184 -0.269884
C36   C     C_R   0.815582 0.815811 0.503129 -0.046586
C37   C     C_R   0.379210 0.500451 0.380472 0.899725
C38   C     C_R   0.751248 0.736850 0.427429 -0.052527
C39   C     C_3   0.760315 0.668600 0.367427 -0.577553
C40   C     C_3   0.695171 0.597925 0.372713 0.920545
C41   C     C_R   0.999513 0.379039 0.879963 0.872044
C42   C     C_R   0.881571 0.506493 0.884847 0.970230
C43   C     C_R   0.756880 0.426006 0.740579 0.067993
C44   C     C_R   0.003086 0.621475 0.121867 0.959984
C45   C     C_R   0.118805 0.495671 0.116657 0.927110
C46   C     C_R   0.996170 0.116836 0.619131 0.857426
C47   C     C_R   0.119277 0.119754 0.498906 0.895691
C48   C     C_R   0.001208 0.880699 0.380352 0.972127
C49   C     C_R   0.768796 0.665172 0.751016 -0.232220
C50   C     C_R   0.880626 0.879547 0.500346 0.875632
C51   C     C_R   0.920191 0.236068 0.746703 0.050785
C52   C     C_R   0.996964 0.313523 0.810999 -0.104394
C53   C     C_R   0.070104 0.332763 0.801782 -0.230316
C54   C     C_R   0.686543 0.421479 0.678653 0.004978
C55   C     C_R   0.069955 0.266937 0.738967 -0.216825
C56   C     C_R   0.994747 0.184410 0.681855 -0.136371
C57   C     C_R   0.917520 0.173488 0.679977 0.116503
C58   C     C_3   0.847561 0.099024 0.674467 0.274085
C59   C     C_3   0.854900 0.168843 0.751589 -0.486259
C60   C     C_R   0.008966 0.680714 0.260701 0.015247
C61   C     C_R   0.823989 0.747418 0.824492 -0.363840
C62   C     C_R   0.013611 0.692113 0.193073 -0.209240
C63   C     C_R   0.025343 0.772159 0.192385 -0.336008
C64   C     C_R   0.022161 0.837153 0.254400 0.441654
C65   C     C_R   0.689963 0.501770 0.684352 -0.123989
C66   C     C_R   0.006859 0.818889 0.315991 -0.142112
C67   C     C_R   0.002002 0.742426 0.319120 -0.091129
C68   C     C_3   0.929171 0.670088 0.312053 0.237832
C69   C     C_3   0.944306 0.602591 0.255931 0.236606
C70   C     C_R   0.880593 0.755046 0.900828 0.476561
C71   C     C_R   0.887182 0.678741 0.897487 0.421762
C72   C     C_R   0.823727 0.591259 0.823707 -0.106174
C73   C     C_3   0.518174 0.118513 0.566992 0.052011
C74   C     C_3   0.528106 0.037176 0.529195 -0.343067
C75   C     C_3   0.502766 0.974579 0.564300 -0.955071
C76   C     C_R   0.762198 0.346926 0.725199 -0.224857
C77   C     C_3   0.263457 0.987762 0.482030 0.057624
C78   C     C_3   0.247178 0.899381 0.417258 -0.321650
C79   C     C_3   0.229610 0.830157 0.446708 -0.948573
C80   C     C_3   0.264623 0.589473 0.456091 0.111498
C81   C     C_3   0.202243 0.625668 0.455432 -0.367615
C82   C     C_3   0.146134 0.586658 0.489300 -0.930633
C83   C     C_3   0.050777 0.259320 0.008830 0.058234
C84   C     C_3   0.002128 0.239855 0.056146 -0.332083
C85   C     C_3   0.908712 0.217193 0.005844 -0.946236
C86   C     C_3   0.205876 0.330477 0.967719 0.112709
C87   C     C_R   0.693695 0.264549 0.656963 -0.245034
C88   C     C_3   0.262376 0.286285 0.980122 -0.331547
C89   C     C_3   0.244054 0.220639 0.893046 -0.971907
C90   C     C_3   0.395775 0.507811 0.201798 0.195322
C91   C     C_3   0.439634 0.530633 0.151718 -0.324771
C92   C     C_3   0.497655 0.630860 0.193927 -0.959376
C93   C     C_3   0.607500 0.459709 0.242265 0.145589
C94   C     C_3   0.659702 0.471991 0.196738 -0.417638
C95   C     C_3   0.639984 0.382524 0.130565 -0.983352
C96   C     C_3   0.805334 0.600916 0.489462 0.028623
C97   C     C_3   0.865955 0.567807 0.474484 -0.347299
C98   C     C_R   0.617188 0.258251 0.603321 0.543362
C99   C     C_3   0.955527 0.621720 0.554566 -0.948139
C100  C     C_3   0.741263 0.975152 0.541641 0.092931
C101  C     C_3   0.660834 0.941158 0.457182 -0.322102
C102  C     C_3   0.632118 0.847804 0.390214 -0.951229
C103  C     C_3   0.083646 0.954655 0.232084 0.075586
C104  C     C_3   0.089603 0.044332 0.245746 -0.292942
C105  C     C_3   0.160145 0.097374 0.232716 -0.971774
C106  C     C_3   0.812309 0.645041 0.184308 0.057587
C107  C     C_3   0.756109 0.687757 0.164536 -0.324781
C108  C     C_3   0.722569 0.671875 0.072236 -0.934991
H1    H     H_    0.130507 0.273937 0.509994 0.156545
H2    H     H_    0.796209 0.175495 0.737769 0.216074
H3    H     H_    0.893841 0.432715 0.316123 0.232619
H4    H     H_    0.826224 0.435835 0.224475 0.224686
H5    H     H_    0.825590 0.306226 0.124630 0.260745
H6    H     H_    0.786731 0.280076 0.192621 0.268549
H7    H     H_    0.894517 0.302712 0.216200 0.264855
H8    H     H_    0.887758 0.552281 0.190415 0.081371
H9    H     H_    0.976639 0.966452 0.047104 0.173114
H10   H     H_    0.884499 0.913805 0.945605 0.134666
H11   H     H_    0.067423 0.940279 0.984330 0.223528
H12   H     H_    0.977976 0.888808 0.877247 0.220845
H13   H     H_    0.883242 0.164982 0.811446 0.155277
H14   H     H_    0.970430 0.030915 0.915431 0.253851
H15   H     H_    0.073181 0.046038 0.926583 0.270842
H16   H     H_    0.063333 0.082213 0.021476 0.278834
H17   H     H_    0.086396 0.740521 0.027038 0.175812
H18   H     H_    0.055430 0.819280 0.018185 0.149242
H19   H     H_    0.026859 0.658533 0.864683 0.252083
H20   H     H_    0.004955 0.745723 0.858104 0.202893
H21   H     H_    0.160404 0.858422 0.961650 0.261180
H22   H     H_    0.143911 0.772692 0.866571 0.272549
H23   H     H_    0.182977 0.770397 0.966790 0.259059
H24   H     H_    0.028760 0.779496 0.139212 0.195387
H25   H     H_    0.819489 0.347709 0.764935 0.172279
H26   H     H_    0.555372 0.328827 0.568422 0.167997
H27   H     H_    0.243643 0.387613 0.509194 0.151280
H28   H     H_    0.945053 0.673723 0.375732 0.130837
H29   H     H_    0.699778 0.205650 0.647021 0.165425
H30   H     H_    0.448852 0.095615 0.543870 0.186823
H31   H     H_    0.550660 0.149670 0.638873 0.120369
H32   H     H_    0.486861 0.000606 0.457713 0.228748
H33   H     H_    0.596095 0.059298 0.545669 0.242383
H34   H     H_    0.546519 0.008576 0.635180 0.265540
H35   H     H_    0.312584 0.144384 0.576698 0.068114
H36   H     H_    0.507703 0.914752 0.533332 0.275230
H37   H     H_    0.435451 0.952905 0.550283 0.265339
H38   H     H_    0.207393 0.976499 0.491971 0.184033
H39   H     H_    0.322090 0.014403 0.544453 0.115829
H40   H     H_    0.191085 0.873548 0.353628 0.227143
H41   H     H_    0.304338 0.910312 0.409178 0.228673
H42   H     H_    0.286567 0.852838 0.508470 0.254906
H43   H     H_    0.215898 0.766418 0.396886 0.271961
H44   H     H_    0.173068 0.818492 0.455851 0.277083
H45   H     H_    0.421352 0.258390 0.576766 0.150298
H46   H     H_    0.201822 0.612897 0.283201 0.152459
H47   H     H_    0.390214 0.177568 0.465720 0.253613
H48   H     H_    0.310378 0.612561 0.524228 0.167608
H49   H     H_    0.228956 0.515011 0.423496 0.109662
H50   H     H_    0.239787 0.699235 0.496734 0.234029
H51   H     H_    0.159713 0.609146 0.388734 0.245362
H52   H     H_    0.106518 0.513089 0.447985 0.258299
H53   H     H_    0.102244 0.614840 0.488156 0.286689
H54   H     H_    0.186895 0.603544 0.556734 0.253562
H55   H     H_    0.015001 0.201274 0.942861 0.155391
H56   H     H_    0.052421 0.317300 0.000530 0.158532
H57   H     H_    0.730089 0.664712 0.693410 0.179683
H58   H     H_    0.002911 0.182733 0.065118 0.222223
H59   H     H_    0.034293 0.298601 0.120920 0.223794
H60   H     H_    0.905800 0.273789 0.997299 0.291733
H61   H     H_    0.875590 0.203373 0.041951 0.253535
H62   H     H_    0.874353 0.157042 0.941547 0.250130
H63   H     H_    0.222350 0.366138 0.933275 0.147229
H64   H     H_    0.136666 0.279427 0.924770 0.159860
H65   H     H_    0.331466 0.337924 0.018134 0.237680
H66   H     H_    0.249427 0.249153 0.014553 0.243309
H67   H     H_    0.175485 0.167179 0.853829 0.276743
H68   H     H_    0.859209 0.898963 0.637491 0.139646
H69   H     H_    0.285538 0.189639 0.903392 0.263245
H70   H     H_    0.258055 0.255550 0.857081 0.263410
H71   H     H_    0.271467 0.310544 0.174362 0.107236
H72   H     H_    0.444448 0.544660 0.271705 0.162185
H73   H     H_    0.347638 0.530967 0.192059 0.149571
H74   H     H_    0.478936 0.497523 0.148154 0.243400
H75   H     H_    0.389650 0.505634 0.084632 0.221497
H76   H     H_    0.459621 0.665659 0.197697 0.261484
H77   H     H_    0.527011 0.645102 0.155068 0.263894
H78   H     H_    0.550261 0.656570 0.259877 0.289261
H79   H     H_    0.733950 0.664469 0.303444 0.237897
H80   H     H_    0.742995 0.788365 0.638413 0.161143
H81   H     H_    0.538414 0.414276 0.192155 0.160040
H82   H     H_    0.623634 0.424569 0.278304 0.180742
H83   H     H_    0.643668 0.509246 0.163307 0.232200
H84   H     H_    0.729642 0.510340 0.244977 0.247829
H85   H     H_    0.656123 0.344215 0.162621 0.271904
H86   H     H_    0.679180 0.393857 0.099243 0.264721
H87   H     H_    0.570728 0.343108 0.079975 0.269492
H88   H     H_    0.795785 0.589163 0.540300 0.173464
H89   H     H_    0.835961 0.673961 0.515442 0.148480
H90   H     H_    0.826401 0.678189 0.395320 0.202021
H91   H     H_    0.838865 0.496561 0.457657 0.233407
H92   H     H_    0.871334 0.572799 0.419472 0.217757
H93   H     H_    0.985379 0.692484 0.570059 0.265441
H94   H     H_    0.997009 0.594275 0.542395 0.266486
H95   H     H_    0.951598 0.618057 0.610607 0.266536
H96   H     H_    0.128685 0.396347 0.846127 0.167485
H97   H     H_    0.128471 0.279634 0.736071 0.152492
H98   H     H_    0.725353 0.931105 0.569446 0.155011
H99   H     H_    0.792975 0.973654 0.527674 0.163726
H100  H     H_    0.607479 0.938812 0.469619 0.222181
H101  H     H_    0.820402 0.803634 0.819653 0.160087
H102  H     H_    0.674166 0.987252 0.430905 0.231570
H103  H     H_    0.682700 0.848069 0.373497 0.286976
H104  H     H_    0.572531 0.824793 0.330704 0.262868
H105  H     H_    0.618238 0.800585 0.415170 0.272688
H106  H     H_    0.065121 0.915504 0.163760 0.157100
H107  H     H_    0.147790 0.966201 0.276168 0.171341
H108  H     H_    0.026769 0.033101 0.199675 0.215504
H109  H     H_    0.102976 0.083643 0.311808 0.239732
H110  H     H_    0.223808 0.110599 0.279250 0.283159
H111  H     H_    0.162900 0.162147 0.243570 0.267146
H112  H     H_    0.866171 0.051043 0.688623 0.031264
H113  H     H_    0.146365 0.060036 0.165855 0.259755
H114  H     H_    0.771187 0.571532 0.143756 0.141862
H115  H     H_    0.860913 0.667686 0.165711 0.165610
H116  H     H_    0.700149 0.659288 0.172789 0.204294
H117  H     H_    0.794483 0.760670 0.210057 0.255356
H118  H     H_    0.777139 0.702476 0.062733 0.283307
H119  H     H_    0.681144 0.702583 0.059537 0.263386
H120  H     H_    0.683733 0.599298 0.025467 0.259800
H121  H     H_    0.010157 0.464220 0.280874 0.165022
H122  H     H_    0.946317 0.461769 0.185078 0.170888
O1    O     O_R   0.408400 0.356680 0.448290 -0.623295
O2    O     O_R   0.948300 0.091670 0.539990 -0.616635
O3    O     O_R   0.143340 0.091640 0.551750 -0.645587
O4    O     O_R   0.408370 0.460100 0.551700 -0.633691
O5    O     O_R   0.039900 0.091690 0.448360 -0.610186
O6    O     O_R   0.051700 0.908430 0.460110 -0.660975
O7    O     O_R   0.948260 0.908480 0.356720 -0.584661
O8    O     O_R   0.960100 0.908410 0.551740 -0.626372
O9    O     O_R   0.856660 0.908460 0.448350 -0.637821
O10   O     O_R   0.591630 0.448290 0.539910 -0.622879
O11   O     O_R   0.591590 0.551710 0.643320 -0.620257
O12   O     O_R   0.051700 0.460090 0.908430 -0.619148
O13   O     O_R   0.591630 0.539900 0.448300 -0.571985
O14   O     O_R   0.591600 0.643320 0.551710 -0.636096
O15   O     O_R   0.408410 0.448290 0.356680 -0.604991
O16   O     O_R   0.408370 0.551710 0.460090 -0.596608
O17   O     O_R   0.948260 0.356680 0.908450 -0.646982
O18   O     O_3   0.546399 0.177095 0.536249 -0.652563
O19   O     O_3   0.274543 0.046897 0.448764 -0.637104
O20   O     O_3   0.313296 0.623966 0.420862 -0.628193
O21   O     O_3   0.133499 0.269122 0.051664 -0.721817
O22   O     O_3   0.220722 0.394997 0.045713 -0.688665
O23   O     O_R   0.856640 0.448300 0.908430 -0.634337
O24   O     O_3   0.360064 0.415052 0.173169 -0.652139
O25   O     O_3   0.614963 0.541277 0.294038 -0.671916
O26   O     O_3   0.723949 0.550363 0.412499 -0.666014
O27   O     O_3   0.767549 0.062854 0.599723 -0.627176
O28   O     O_3   0.020270 0.911047 0.249137 -0.625026
O29   O     O_3   0.849024 0.668653 0.272941 -0.686018
O30   O     O_3   0.987150 0.569378 0.303637 -0.657992
O31   O     O_3   0.929793 0.832752 0.981245 -0.654130
O32   O     O_3   0.955331 0.690255 0.967036 -0.639926
O33   O     O_R   0.960090 0.551710 0.908400 -0.599217
O34   O     O_R   0.948250 0.539920 0.091630 -0.660559
O35   O     O_R   0.051690 0.643330 0.091610 -0.620377
O36   O     O_R   0.039870 0.448310 0.091660 -0.655917
O37   O     O_R   0.143310 0.551720 0.091640 -0.610546
O38   O     O_R   0.051740 0.091620 0.643380 -0.622187
Zn1   Zn    Zn3+2 0.500020 0.430950 0.430950 0.993115
Zn2   Zn    Zn3+2 0.499980 0.569050 0.569050 0.949674
Zn3   Zn    Zn3+2 0.930910 0.430960 0.000050 0.892892
Zn4   Zn    Zn3+2 0.069050 0.569060 0.000020 0.945892
Zn5   Zn    Zn3+2 0.069070 0.000020 0.569080 0.920649
Zn6   Zn    Zn3+2 0.930930 0.000080 0.431020 0.971168

loop_
_geom_bond_atom_site_label_1
_geom_bond_atom_site_label_2
_ccdc_geom_bond_type
C61   C70   A    
C59   H13   S    
C70   O31   S    
C83   H56   S    
C69   H8    S    
C101  C102  S    
C81   H51   S    
C20   H47   S    
C91   H75   S    
C5    H6    S    
C73   C74   S    
C97   H91   S    
O7    Zn6   S    
O12   Zn4   S    
C55   C56   A    
C48   O7    A    
C3    H121  S    
C21   C49   A    
C81   C82   S    
C90   C91   S    
C88   H66   S    
C7    C8    S    
C32   C72   A    
C73   O18   S    
C13   C65   S    
C77   C78   S    
C75   H37   S    
C98   O18   S    
C26   C27   A    
C93   C94   S    
C83   C84   S    
O14   Zn2   S    
C35   H68   S    
C29   O21   S    
C28   C29   S    
C101  H100  S    
O35   Zn4   S    
C24   C26   A    
C18   C19   S    
O36   Zn3   S    
C38   C39   S    
C80   C81   S    
C92   H78   S    
C102  H103  S    
C15   H27   S    
C73   H30   S    
C3    O30   S    
C107  H117  S    
C103  C104  S    
C59   H2    S    
C37   O15   A    
C31   C40   S    
C60   C62   A    
C34   C35   A    
C96   H88   S    
C74   H33   S    
C94   H83   S    
C102  H105  S    
C68   C69   S    
C40   O25   S    
C58   H112  S    
C13   O11   A    
C35   C36   A    
C60   C67   A    
C16   C17   A    
C105  H111  S    
O38   Zn5   S    
C95   H87   S    
C23   C24   A    
C30   O24   S    
O4    Zn2   S    
C70   C71   A    
C51   C57   A    
C89   H69   S    
O8    Zn5   S    
C22   C30   S    
C9    C10   S    
C77   H39   S    
C41   C52   S    
C75   H36   S    
C78   H40   S    
C87   C98   A    
C83   O21   S    
C58   O27   S    
C27   C45   S    
C71   O32   S    
C25   O13   A    
C66   C67   A    
C90   O24   S    
C80   H49   S    
C95   H85   S    
C22   C28   A    
C41   O17   A    
C91   H74   S    
C97   H92   S    
C94   C95   S    
C87   H29   S    
C10   H20   S    
C11   H21   S    
C3    H122  S    
C104  C105  S    
C97   C99   S    
C100  H99   S    
C64   O28   S    
C16   H1    S    
C80   H48   S    
C13   O10   A    
C47   O5    A    
C53   C55   A    
C86   O22   S    
C96   H89   S    
C55   H97   S    
C90   H72   S    
C53   H96   S    
C49   C61   A    
C20   H45   S    
C21   C72   A    
C51   C52   A    
C29   O22   S    
C7    H11   S    
C10   H19   S    
C50   O8    A    
C9    H18   S    
C84   C85   S    
C96   O26   S    
C92   H76   S    
C91   C92   S    
C54   C65   A    
C100  H98   S    
C92   H77   S    
C19   O19   S    
C108  H120  S    
C42   O23   A    
C44   C62   S    
C58   C59   S    
C93   H82   S    
C74   H32   S    
C89   H70   S    
O33   Zn4   S    
C85   H61   S    
C88   H65   S    
C86   H63   S    
C64   C66   A    
O10   Zn1   S    
O15   Zn1   S    
C67   C68   S    
O13   Zn1   S    
C96   C97   S    
C49   H57   S    
C29   C30   S    
C75   H34   S    
O2    Zn6   S    
O17   Zn3   S    
O37   Zn4   S    
C1    O1    A    
C43   C54   A    
C5    H5    S    
C106  H115  S    
C76   C87   A    
C90   H73   S    
C68   H28   S    
C1    O4    A    
C107  C108  S    
O3    Zn5   S    
C9    O32   S    
C12   C20   S    
C62   C63   A    
C31   C33   A    
C17   C18   A    
C73   H31   S    
C61   H101  S    
C63   H24   S    
C88   C89   S    
C34   H80   S    
C103  H106  S    
C104  H108  S    
C6    C7    S    
C79   H42   S    
C45   O36   A    
C82   H53   S    
C4    H3    S    
C12   C14   A    
O34   Zn3   S    
C69   O30   S    
C99   H94   S    
C2    C54   A    
C106  O29   S    
C103  O28   S    
C86   H64   S    
C26   H46   S    
C51   C59   S    
O11   Zn2   S    
C89   H67   S    
C46   C56   S    
C3    C4    S    
C11   H22   S    
C103  H107  S    
C39   C40   S    
C36   C50   S    
C52   C53   A    
C79   H43   S    
C107  H116  S    
C25   O14   A    
C43   C76   A    
C56   C57   A    
C83   H55   S    
C100  O27   S    
C50   O9    A    
C19   H35   S    
C81   H50   S    
C6    H9    S    
C21   C65   A    
C78   C79   S    
C85   H60   S    
C46   O2    A    
C7    H12   S    
C39   H90   S    
C22   C23   A    
C8    H16   S    
C17   C47   S    
C42   O33   A    
O16   Zn2   S    
C11   H23   S    
C44   O34   A    
C68   O29   S    
C76   H25   S    
C2    H26   S    
C8    H15   S    
C44   O35   A    
C108  H119  S    
C93   H81   S    
C101  H102  S    
C95   H86   S    
C82   H54   S    
C85   H62   S    
C31   C38   A    
C12   C18   A    
C41   O12   A    
C5    H7    S    
C19   C20   S    
C24   O20   S    
C39   H79   S    
C71   C72   A    
C84   H59   S    
C23   C37   S    
C102  H104  S    
C57   C58   S    
C106  H114  S    
C30   H71   S    
C108  H118  S    
C60   C69   S    
O23   Zn3   S    
C105  H113  S    
C4    C5    S    
O1    Zn1   S    
C36   C38   A    
C100  C101  S    
C48   O6    A    
C32   C43   A    
C33   C34   A    
C6    O31   S    
C86   C88   S    
C8    H14   S    
C4    H4    S    
C93   O25   S    
C94   H84   S    
C104  H109  S    
C84   H58   S    
C10   C11   S    
C37   O16   A    
C63   C64   A    
C40   O26   S    
C9    H17   S    
C45   O37   A    
C77   O19   S    
C74   C75   S    
C2    C98   A    
C46   O38   A    
C105  H110  S    
C106  C107  S    
O9    Zn6   S    
C99   H95   S    
C27   C28   A    
O5    Zn6   S    
C32   C42   S    
C14   C15   A    
O6    Zn5   S    
C80   O20   S    
C1    C14   S    
C48   C66   S    
C82   H52   S    
C77   H38   S    
C6    H10   S    
C99   H93   S    
C15   C16   A    
C78   H41   S    
C25   C33   S    
C79   H44   S    
C47   O3    A    
