data_mof_unit_5389.cif
_audit_creation_date              2013-03-05T16:05:18-0500
_audit_creation_method            fapswitch 2.2
_symmetry_space_group_name_H-M    P1
_symmetry_Int_Tables_number       1
_space_group_crystal_system       triclinic
_cell_length_a                    10.810795
_cell_length_b                    9.524115
_cell_length_c                    15.888318
_cell_angle_alpha                 90.025339
_cell_angle_beta                  90.16685
_cell_angle_gamma                 89.999004
_cell_volume                      1635.90583828

loop_
_atom_site_label
_atom_site_type_symbol
_atom_site_description
_atom_site_fract_x
_atom_site_fract_y
_atom_site_fract_z
_atom_type_partial_charge
O1    O     O_R   0.319660 0.618740 0.500000 -0.589376
O2    O     O_R   0.319660 0.381260 0.500000 -0.590563
C1    C     C_R   0.262424 0.500002 0.499942 0.814708
O3    O     O_R   0.500020 0.618840 0.379440 -0.558735
O4    O     O_R   0.500020 0.381160 0.379440 -0.588637
C2    C     C_R   0.499960 0.499975 0.340167 0.847667
Cu1   Cu    Cu3+1 0.500020 0.640660 0.500000 1.005087
Cu2   Cu    Cu3+1 0.500020 0.359340 0.500000 0.999480
O5    O     O_R   0.680370 0.618830 0.500010 -0.551398
O6    O     O_R   0.680370 0.381170 0.500010 -0.553219
O7    O     O_R   0.500010 0.618730 0.620560 -0.587553
O8    O     O_R   0.500010 0.381270 0.620560 -0.560997
C3    C     C_R   0.737862 0.500029 0.500030 0.915496
C4    C     C_R   0.500109 0.500024 0.659849 0.846309
C5    C     C_3   0.432501 0.631886 0.049045 -0.424262
C6    C     C_3   0.433490 0.367442 0.048946 -0.430932
C7    C     C_3   0.432392 0.367221 0.951020 0.179748
C8    C     C_3   0.431404 0.632157 0.951120 0.174926
H1    H     H_    0.333468 0.628450 0.928672 0.084975
H2    H     H_    0.334432 0.370005 0.928576 0.084686
H3    H     H_    0.335610 0.633730 0.072546 0.142583
H4    H     H_    0.336616 0.364652 0.072445 0.142898
H5    H     H_    0.480513 0.271602 0.073271 0.206142
H6    H     H_    0.478805 0.728158 0.073442 0.208178
C9    C     C_1   0.500325 0.500058 0.749488 -0.112559
C10   C     C_3   0.500149 0.499977 0.082853 0.212560
C11   C     C_3   0.500151 0.500025 0.917308 0.251000
C12   C     C_3   0.634740 0.500657 0.951751 -0.306061
C13   C     C_3   0.634519 0.500635 0.049239 -0.369575
C14   C     C_1   0.500383 0.500051 0.825011 0.020172
C15   C     C_1   0.500237 0.499952 0.174991 -0.052123
C16   C     C_1   0.500141 0.499943 0.250519 -0.132332
H7    H     H_    0.684487 0.595053 0.072803 0.192700
H8    H     H_    0.685194 0.406691 0.072734 0.185525
H9    H     H_    0.685194 0.594765 0.928549 0.203029
H10   H     H_    0.685893 0.407046 0.928480 0.209642
C17   C     C_R   0.065837 0.399076 0.546401 -0.221222
C18   C     C_R   0.065460 0.601139 0.453578 -0.226742
H11   H     H_    0.116741 0.323257 0.583783 0.188424
H12   H     H_    0.116084 0.677046 0.416279 0.178109
C19   C     C_R   0.937402 0.400708 0.549314 0.319862
C20   C     C_R   0.936972 0.599769 0.450809 0.311437
C21   C     C_R   0.872153 0.500150 0.500021 -0.273184
C22   C     C_R   0.129126 0.500019 0.499931 -0.141463
C23   C     C_R   0.423167 0.074353 0.447656 -0.005661
C24   C     C_R   0.423139 0.925564 0.447672 0.008501
H13   H     H_    0.361531 0.130351 0.405721 0.130018
H14   H     H_    0.361459 0.869496 0.405765 0.123283
N1    N     N_R   0.500030 0.852070 0.500020 -0.169589
N2    N     N_R   0.500030 0.147930 0.500020 -0.179030
C25   C     C_R   0.576932 0.925633 0.552353 0.029688
C26   C     C_R   0.576850 0.074400 0.552400 0.027017
H15   H     H_    0.638594 0.869638 0.594274 0.143010
H16   H     H_    0.638292 0.130374 0.594442 0.187725
O9    O     O_3   0.489466 0.244842 0.920304 -0.701356
H17   H     H_    0.430875 0.166352 0.930302 0.330768
O10   O     O_3   0.487564 0.755098 0.920497 -0.707196
H18   H     H_    0.428398 0.833021 0.930564 0.330893
N3    N     N_R   0.875451 0.305780 0.605499 0.123072
O11   O     O_R   0.792082 0.352847 0.657271 -0.387620
O12   O     O_R   0.916553 0.178313 0.615082 -0.356563
N4    N     N_R   0.874530 0.695609 0.395153 0.136196
O13   O     O_R   0.916238 0.822793 0.385710 -0.346050
O14   O     O_R   0.789750 0.649754 0.343731 -0.371518

loop_
_geom_bond_atom_site_label_1
_geom_bond_atom_site_label_2
_geom_bond_distance
_ccdc_geom_bond_type
O4    Cu2   1.926827 S    
C2    C16   1.424357 S    
O9    H17   0.992965 S    
C18   C22   1.393298 A    
N4    O13   1.301406 A    
C13   H7    1.113177 S    
C5    C8    1.555884 S    
C7    O9    1.406632 S    
C8    O10   1.406626 S    
N2    C26   1.367187 A    
C15   C16   1.200020 T    
C5    H3    1.113190 S    
Cu2   O8    1.926756 S    
C11   C12   1.553042 S    
C17   C22   1.393249 A    
O2    C1    1.289112 A    
N3    O11   1.301485 A    
C17   H11   1.084206 S    
C23   C24   1.417075 A    
C11   C14   1.466452 S    
Cu1   O7    1.926940 S    
C19   C21   1.416110 A    
C24   N1    1.367176 A    
Cu1   N1    2.013493 S    
O10   H18   0.992965 S    
C23   N2    1.367194 A    
O3    Cu1   1.926644 S    
Cu2   O6    1.960785 S    
C5    H6    1.113611 S    
C18   H12   1.084270 S    
O8    C4    1.291621 A    
C18   C20   1.389694 A    
C6    H5    1.113608 S    
C23   H13   1.081699 S    
C4    C9    1.424200 S    
C6    C10   1.549211 S    
O4    C2    1.292488 A    
O7    C4    1.291695 A    
C24   H14   1.081772 S    
C1    C22   1.441056 S    
N3    O12   1.301612 A    
Cu1   Cu2   2.679324 S    
C20   C21   1.416500 A    
C25   H15   1.081716 S    
N4    O14   1.301387 A    
C25   C26   1.416880 A    
C7    C11   1.557643 S    
Cu2   N2    2.013494 S    
C3    C21   1.451788 S    
C7    H2    1.116794 S    
O5    C3    1.290940 A    
C12   H10   1.112781 S    
C10   C13   1.549186 S    
O3    C2    1.292418 A    
C8    H1    1.116791 S    
C10   C15   1.463917 S    
C19   N3    1.437725 S    
C9    C14   1.199935 T    
Cu1   O5    1.960778 S    
C20   N4    1.438075 S    
C12   C13   1.548928 S    
C5    C10   1.549190 S    
C6    H4    1.113187 S    
N1    C25   1.367081 A    
O1    Cu1   1.960983 S    
C17   C19   1.389476 A    
C13   H8    1.113158 S    
O2    Cu2   1.960976 S    
C8    C11   1.557663 S    
C12   H9    1.112762 S    
C26   H16   1.081073 S    
C6    C7    1.555884 S    
O1    C1    1.289097 A    
O6    C3    1.291437 A    
