data_mof_unit_50712.cif
_audit_creation_date              2012-12-10T16:50:04-0500
_audit_creation_method            fapswitch 2.2
_symmetry_space_group_name_H-M    P1
_symmetry_Int_Tables_number       1
_space_group_crystal_system       triclinic
_cell_length_a                    7.822024
_cell_length_b                    8.570456
_cell_length_c                    10.617327
_cell_angle_alpha                 91.082064
_cell_angle_beta                  86.629871
_cell_angle_gamma                 92.937096
_cell_volume                      709.513458806

loop_
_atom_site_label
_atom_site_type_symbol
_atom_type_description
_atom_site_fract_x
_atom_site_fract_y
_atom_site_fract_z
_atom_type_partial_charge
C1    C     C_R   0.545522 0.794067 0.503237 0.867649
C2    C     C_R   0.456142 0.206151 0.509268 0.950538
C3    C     C_R   0.498387 0.516346 0.261325 0.884572
C4    C     C_R   0.459531 0.794216 0.862043 -0.085701
C5    C     C_R   0.410813 0.931553 0.921373 -0.178365
C6    C     C_R   0.366541 0.932508 0.049480 -0.143530
C7    C     C_R   0.376835 0.797755 0.120541 0.351243
C8    C     C_R   0.444847 0.659290 0.063703 -0.005385
C9    C     C_R   0.473247 0.656788 0.931515 0.057809
C10   C     C_R   0.514275 0.515611 0.870561 -0.022634
C11   C     C_R   0.551592 0.384171 0.935217 -0.194368
C12   C     C_R   0.542055 0.388985 0.063991 -0.161567
C13   C     C_R   0.488642 0.523122 0.128367 -0.055627
C14   C     C_2   0.571217 0.955758 0.524475 0.201411
C15   C     C_2   0.435384 0.042987 0.514251 -0.435283
C16   C     C_R   0.503418 0.499160 0.739058 0.810495
Cl1   Cl    Cl    0.961121 0.666069 0.646328 -0.412495
Cl2   Cl    Cl    0.265825 0.807938 0.267896 -0.580300
Cl3   Cl    Cl    0.776092 0.022091 0.575233 -0.483021
Cl4   Cl    Cl    0.039189 0.331595 0.355483 -0.406625
H1    H     H_    0.488375 0.796828 0.761479 0.138339
H2    H     H_    0.574415 0.286315 0.114155 0.164473
H3    H     H_    0.307954 0.993632 0.496865 0.240312
H4    H     H_    0.586249 0.277530 0.885718 0.157653
H5    H     H_    0.400075 0.035604 0.866760 0.160432
H6    H     H_    0.316721 0.037598 0.092864 0.189618
N1    N     N_2   0.950330 0.457950 0.466250 0.155379
N2    N     N_2   0.049670 0.542050 0.533750 0.155694
O1    O     O_R   0.389250 0.738570 0.508280 -0.599600
O2    O     O_R   0.678390 0.711630 0.486650 -0.551256
O3    O     O_R   0.355400 0.513470 0.694050 -0.606702
O4    O     O_R   0.644540 0.486530 0.672420 -0.581728
O5    O     O_R   0.321610 0.288370 0.513350 -0.579839
O6    O     O_R   0.610750 0.261430 0.491720 -0.551221
O7    O     O_R   0.355460 0.513470 0.327580 -0.538715
O8    O     O_R   0.644600 0.486530 0.305950 -0.600358
Zn1   Zn    Zn3+2 0.306930 0.517990 0.514440 1.137525
Zn2   Zn    Zn3+2 0.693070 0.482010 0.485560 1.151177

loop_
_geom_bond_atom_site_label_1
_geom_bond_atom_site_label_2
_ccdc_geom_bond_type
C11   C12   A    
C6    C7    A    
C4    H1    S    
Cl4   N1    S    
O4    Zn2   S    
C16   O4    A    
C9    C10   A    
C3    C13   S    
C3    O7    A    
C7    Cl2   S    
C15   H3    S    
C2    O6    A    
C1    O1    A    
C7    C8    A    
C10   C16   S    
C16   O3    A    
C2    C15   S    
C6    H6    S    
N2    Zn1   S    
C5    H5    S    
C3    O8    A    
C2    O5    A    
O8    Zn2   S    
C1    O2    A    
O7    Zn1   S    
C5    C6    A    
C10   C11   A    
N1    Zn2   S    
C8    C13   A    
C12   H2    S    
C11   H4    S    
C12   C13   A    
O2    Zn2   S    
O1    Zn1   S    
N1    N2    D    
C14   C15   D    
C8    C9    A    
C1    C14   S    
C4    C9    A    
O6    Zn2   S    
Cl1   N2    S    
C14   Cl3   S    
O5    Zn1   S    
O3    Zn1   S    
C4    C5    A    
