data_mof_unit_12083.cif
_audit_creation_date              2012-10-26T20:38:29-0400
_audit_creation_method            fapswitch 2.2
_symmetry_space_group_name_H-M    P1
_symmetry_Int_Tables_number       1
_space_group_crystal_system       triclinic
_cell_length_a                    15.855326
_cell_length_b                    11.02682
_cell_length_c                    9.99803
_cell_angle_alpha                 112.00617
_cell_angle_beta                  97.350651
_cell_angle_gamma                 93.728151
_cell_volume                      1595.14729893

loop_
_atom_site_label
_atom_site_type_symbol
_atom_type_description
_atom_site_fract_x
_atom_site_fract_y
_atom_site_fract_z
_atom_type_partial_charge
C1    C     C_R   0.496394 0.254332 0.439441 0.533076
C2    C     C_3   0.029308 0.584165 0.446029 0.167198
C3    C     C_3   0.016460 0.375577 0.418576 -0.125500
C4    C     C_3   0.983540 0.624423 0.581424 -0.125500
C5    C     C_1   0.251084 0.499615 0.504713 -0.044969
C6    C     C_1   0.748916 0.500385 0.495287 -0.044969
C7    C     C_3   0.037743 0.536212 0.637753 0.165585
C8    C     C_3   0.962257 0.463788 0.362247 0.165585
C9    C     C_3   0.083961 0.498617 0.504208 0.013805
C10   C     C_3   0.916039 0.501383 0.495792 0.013805
C11   C     C_1   0.175702 0.499216 0.506027 -0.062693
C12   C     C_R   0.503605 0.745668 0.560559 0.533076
C13   C     C_1   0.824298 0.500784 0.493973 -0.062693
C14   C     C_2   0.487186 0.113317 0.404655 -0.125775
C15   C     C_2   0.512814 0.886683 0.595345 -0.125775
C16   C     C_3   0.995648 0.252725 0.661263 -0.320300
C17   C     C_3   0.004352 0.747275 0.338737 -0.320300
C18   C     C_3   0.972791 0.384488 0.102470 -0.319857
C19   C     C_3   0.027208 0.615512 0.897530 -0.319857
C20   C     C_3   0.391453 0.873142 0.402097 -0.230739
C21   C     C_3   0.319143 0.957237 0.453066 -0.313258
C22   C     C_3   0.236993 0.904991 0.341041 -0.466887
C23   C     C_2   0.521993 0.062357 0.499538 -0.008691
C24   C     C_3   0.608547 0.126858 0.597903 -0.230739
C25   C     C_3   0.680857 0.042763 0.546934 -0.313258
C26   C     C_3   0.763007 0.095009 0.658959 -0.466887
C27   C     C_3   0.408666 0.397594 0.832343 -0.190248
C28   C     C_3   0.326517 0.459930 0.872715 -0.306792
C29   C     C_3   0.247009 0.360003 0.797423 -0.467563
C30   C     C_3   0.591333 0.602406 0.167657 -0.190248
C31   C     C_3   0.673483 0.540070 0.127285 -0.306792
C32   C     C_3   0.752991 0.639997 0.202577 -0.467563
C33   C     C_2   0.478007 0.937643 0.500461 -0.008691
C34   C     C_2   0.510906 0.508738 0.079291 0.114666
C35   C     C_2   0.489094 0.491262 0.920709 0.114666
C36   C     C_R   0.340358 0.499653 0.501337 0.541293
C37   C     C_R   0.659642 0.500347 0.498663 0.541293
C38   C     C_3   0.970692 0.415835 0.553971 0.167198
Cu1   Cu    Cu3+1 0.514700 0.521810 0.644910 0.893684
Cu2   Cu    Cu3+1 0.485300 0.478190 0.355090 0.893684
H1    H     H_    0.030166 0.274792 0.353351 0.094180
H2    H     H_    0.028134 0.193001 0.570750 0.131440
H3    H     H_    0.117960 0.736255 0.459257 0.243099
H4    H     H_    0.038278 0.814265 0.297921 0.123237
H5    H     H_    0.971866 0.806999 0.429251 0.131440
H6    H     H_    0.956194 0.678255 0.247016 0.180370
H7    H     H_    0.863899 0.360297 0.189593 0.244305
H8    H     H_    0.934947 0.368310 0.994517 0.139364
H9    H     H_    0.997486 0.290953 0.096694 0.130211
H10   H     H_    0.027476 0.461640 0.126213 0.185025
H11   H     H_    0.136101 0.639703 0.810407 0.244305
H12   H     H_    0.969834 0.725208 0.646649 0.094180
H13   H     H_    0.065053 0.631691 0.005483 0.139364
H14   H     H_    0.972524 0.538361 0.873787 0.185025
H15   H     H_    0.002514 0.709047 0.903306 0.130211
H16   H     H_    0.246802 0.914404 0.237150 0.149857
H17   H     H_    0.217591 0.799769 0.318780 0.165477
H18   H     H_    0.184749 0.962984 0.383889 0.136431
H19   H     H_    0.306435 0.954565 0.558828 0.155942
H20   H     H_    0.336815 0.061907 0.471515 0.163029
H21   H     H_    0.396617 0.853900 0.286364 0.136886
H22   H     H_    0.370685 0.775870 0.403707 0.176859
H23   H     H_    0.561901 0.943554 0.687794 0.090742
H24   H     H_    0.782409 0.200231 0.681220 0.165477
H25   H     H_    0.753198 0.085596 0.762850 0.149857
H26   H     H_    0.815251 0.037016 0.616110 0.136431
H27   H     H_    0.663185 0.938093 0.528485 0.163029
H28   H     H_    0.693564 0.045435 0.441172 0.155942
H29   H     H_    0.629315 0.224130 0.596293 0.176859
H30   H     H_    0.603383 0.146100 0.713636 0.136886
H31   H     H_    0.241600 0.324935 0.676682 0.156452
H32   H     H_    0.249762 0.274422 0.830234 0.139864
H33   H     H_    0.189445 0.407340 0.830819 0.171534
H34   H     H_    0.438099 0.056446 0.312206 0.090742
H35   H     H_    0.326925 0.498510 0.992446 0.154313
H36   H     H_    0.321676 0.545239 0.839983 0.189864
H37   H     H_    0.404872 0.362712 0.714643 0.217122
H38   H     H_    0.409858 0.303410 0.848437 0.084747
H39   H     H_    0.750238 0.725578 0.169765 0.139864
H40   H     H_    0.758400 0.675065 0.323317 0.156452
H41   H     H_    0.810555 0.592660 0.169180 0.171534
H42   H     H_    0.678324 0.454761 0.160016 0.189864
H43   H     H_    0.673075 0.501490 0.007553 0.154313
H44   H     H_    0.590142 0.696590 0.151563 0.084747
H45   H     H_    0.588990 0.620757 0.923710 0.206617
H46   H     H_    0.595127 0.637288 0.285357 0.217122
H47   H     H_    0.411010 0.379243 0.076290 0.206617
H48   H     H_    0.882040 0.263745 0.540743 0.243099
H49   H     H_    0.961722 0.185735 0.702079 0.123237
H50   H     H_    0.043806 0.321745 0.752985 0.180370
N1    N     N_2   0.463210 0.445420 0.137360 -0.359857
N2    N     N_2   0.536790 0.554580 0.862640 -0.359857
N3    N     N_2   0.934781 0.324437 0.610592 -0.520232
N4    N     N_2   0.065219 0.675562 0.389408 -0.520232
N5    N     N_2   0.918697 0.425256 0.213510 -0.529691
N6    N     N_2   0.081303 0.574743 0.786490 -0.529691
O1    O     O_R   0.507840 0.332340 0.577400 -0.518505
O2    O     O_R   0.492160 0.667660 0.422600 -0.518505
O3    O     O_R   0.483020 0.295500 0.332650 -0.483568
O4    O     O_R   0.516980 0.704500 0.667350 -0.483568
O5    O     O_R   0.391490 0.518400 0.622350 -0.510873
O6    O     O_R   0.608510 0.481600 0.377650 -0.510872
O7    O     O_R   0.366660 0.481570 0.377600 -0.490281
O8    O     O_R   0.633340 0.518430 0.622400 -0.490280

loop_
_geom_bond_atom_site_label_1
_geom_bond_atom_site_label_2
_ccdc_geom_bond_type
C16   H50   S    
H47   N1    S    
C25   H27   S    
C27   H38   S    
C1    O3    A    
C22   H17   S    
C24   H30   S    
Cu1   O8    S    
C7    N6    S    
C25   H28   S    
C16   N3    S    
C31   H42   S    
C4    H12   S    
C36   O7    A    
C14   H34   S    
C28   C29   S    
C17   H5    S    
C21   H19   S    
Cu2   O2    S    
C30   C31   S    
Cu1   O1    S    
C29   H33   S    
C5    C36   S    
H3    N4    S    
C31   H43   S    
C34   C35   S    
C20   H21   S    
C26   H24   S    
C34   N1    D    
C3    C38   S    
C23   C33   S    
C23   C24   S    
C30   H46   S    
C12   O2    A    
H11   N6    S    
C29   H32   S    
C35   N2    D    
C19   H13   S    
C16   H49   S    
C21   C22   S    
C30   H44   S    
C18   N5    S    
C8    N5    S    
Cu2   O3    S    
C4    C7    S    
H45   N2    S    
C24   H29   S    
Cu1   O5    S    
C30   C34   S    
C26   H26   S    
C2    N4    S    
C17   H6    S    
C21   H20   S    
C32   H39   S    
C3    C8    S    
C1    O1    A    
Cu1   Cu2   S    
C22   H16   S    
C32   H41   S    
C25   C26   S    
C36   O5    A    
C14   C23   D    
C2    C4    S    
C3    C9    S    
C32   H40   S    
C31   C32   S    
C12   C15   S    
C6    C37   S    
C24   C25   S    
C9    C11   S    
C20   C33   S    
C19   H14   S    
C4    C10   S    
C28   H36   S    
C16   H2    S    
Cu1   N2    S    
C18   H10   S    
C19   H15   S    
C7    C9    S    
H48   N3    S    
C3    H1    S    
C15   H23   S    
C26   H25   S    
C2    C8    S    
C27   H37   S    
C10   C13   S    
C18   H8    S    
C22   H18   S    
C37   O8    A    
C5    C11   T    
C1    C14   S    
C10   C38   S    
C27   C35   S    
C17   H4    S    
C6    C13   T    
C2    C9    S    
Cu1   O4    S    
C37   O6    A    
C38   N3    S    
C7    C38   S    
Cu2   N1    S    
C20   H22   S    
C12   O4    A    
Cu2   O6    S    
C20   C21   S    
C8    C10   S    
C27   C28   S    
H7    N5    S    
C17   N4    S    
C29   H31   S    
C28   H35   S    
C15   C33   D    
C19   N6    S    
C18   H9    S    
Cu2   O7    S    
