data_mof_unit_39576.cif
_audit_creation_date              2012-12-10T18:05:41-0500
_audit_creation_method            fapswitch 2.2
_symmetry_space_group_name_H-M    P1
_symmetry_Int_Tables_number       1
_space_group_crystal_system       triclinic
_cell_length_a                    10.910665
_cell_length_b                    10.782289
_cell_length_c                    9.642956
_cell_angle_alpha                 88.672311
_cell_angle_beta                  91.244394
_cell_angle_gamma                 91.104917
_cell_volume                      1133.64388396

loop_
_atom_site_label
_atom_site_type_symbol
_atom_type_description
_atom_site_fract_x
_atom_site_fract_y
_atom_site_fract_z
_atom_type_partial_charge
C1    C     C_R   0.498763 0.262500 0.501070 0.779534
C2    C     C_R   0.500178 0.737485 0.499209 0.780181
C3    C     C_R   0.872211 0.500683 0.504800 -0.090586
C4    C     C_R   0.128909 0.507002 0.495818 -0.084419
C5    C     C_R   0.943114 0.510853 0.628296 0.009399
C6    C     C_R   0.058478 0.510205 0.371795 0.003509
C7    C     C_R   0.449571 0.065645 0.386686 -0.197156
C8    C     C_R   0.545424 0.934174 0.615974 -0.205120
C9    C     C_R   0.450166 0.937347 0.385870 -0.189380
C10   C     C_R   0.543705 0.062445 0.617599 -0.178920
C11   C     C_R   0.499576 0.871496 0.499429 0.001256
C12   C     C_R   0.496759 0.128426 0.502428 -0.010378
C13   C     C_R   0.467896 0.396351 0.076657 -0.194723
C14   C     C_R   0.531525 0.603893 0.922748 -0.229159
C15   C     C_R   0.468838 0.394868 0.929210 0.580329
C16   C     C_R   0.532315 0.605777 0.071990 0.611283
C17   C     C_R   0.262712 0.503405 0.498283 0.771379
C18   C     C_R   0.737728 0.500233 0.501772 0.787365
C19   C     C_R   0.180485 0.707282 0.075190 0.218930
C20   C     C_R   0.818980 0.467531 0.988043 0.171797
C21   C     C_R   0.137744 0.670696 0.206119 -0.128682
C22   C     C_R   0.856473 0.441009 0.854130 -0.149989
C23   C     C_R   0.109849 0.545384 0.236312 0.104316
C24   C     C_R   0.892550 0.537733 0.763746 0.121467
C25   C     C_R   0.123434 0.456630 0.134760 -0.130734
C26   C     C_R   0.893493 0.660676 0.807919 -0.152836
C27   C     C_R   0.166989 0.492665 0.004911 -0.183298
C28   C     C_R   0.857892 0.686956 0.941653 -0.190812
C29   C     C_R   0.196695 0.616982 0.975055 -0.145458
C30   C     C_R   0.820304 0.590918 0.031176 -0.077426
C31   C     C_R   0.932129 0.496931 0.378415 -0.237875
C32   C     C_R   0.069702 0.507578 0.622430 -0.253720
Cu1   Cu    Cu3+1 0.500000 0.500020 0.640660 0.965491
Cu2   Cu    Cu3+1 0.500000 0.499980 0.359340 0.993628
H1    H     H_    0.230378 0.643174 0.873580 0.131905
H2    H     H_    0.791121 0.613745 0.133445 0.177212
H3    H     H_    0.124150 0.740068 0.283590 0.121015
H4    H     H_    0.858346 0.345720 0.821047 0.116911
H5    H     H_    0.099768 0.360132 0.155912 0.117798
H6    H     H_    0.924179 0.735621 0.739603 0.130671
H7    H     H_    0.175641 0.424046 0.926855 0.121087
H8    H     H_    0.860052 0.781743 0.976232 0.148305
H9    H     H_    0.880393 0.490265 0.283233 0.186845
H10   H     H_    0.122251 0.511639 0.717996 0.159683
H11   H     H_    0.411191 0.115554 0.297651 0.139229
H12   H     H_    0.583760 0.884220 0.705010 0.136649
H13   H     H_    0.410883 0.889496 0.297764 0.149427
H14   H     H_    0.581187 0.109859 0.707265 0.179321
H15   H     H_    0.445671 0.311620 0.133221 0.162400
H16   H     H_    0.561749 0.683644 0.862807 0.167425
N1    N     N_R   0.500030 0.500030 0.852070 -0.214936
N2    N     N_R   0.499970 0.499970 0.147930 -0.207897
O1    O     O_R   0.499990 0.319660 0.618740 -0.521628
O2    O     O_R   0.500010 0.680340 0.381260 -0.517980
O3    O     O_R   0.499990 0.319630 0.381170 -0.597303
O4    O     O_R   0.500010 0.680370 0.618830 -0.608115
O5    O     O_R   0.319650 0.500020 0.618780 -0.596816
O6    O     O_R   0.680350 0.499980 0.381220 -0.556276
O7    O     O_R   0.319640 0.500000 0.381210 -0.573823
O8    O     O_R   0.680360 0.500000 0.618790 -0.571783
O9    O     O_3   0.459127 0.281153 0.866929 -0.574130
C33   C     C_3   0.335969 0.239596 0.863930 -0.352841
H17   H     H_    0.332709 0.143260 0.825852 0.190445
H18   H     H_    0.281098 0.296856 0.789234 0.183013
H19   H     H_    0.294845 0.236995 0.968560 0.130847
O10   O     O_3   0.578131 0.707727 0.144195 -0.554434
C34   C     C_3   0.568058 0.821970 0.070441 -0.412490
H20   H     H_    0.583332 0.898338 0.144079 0.209889
H21   H     H_    0.475558 0.833333 0.021638 0.152258
H22   H     H_    0.641066 0.832856 0.992588 0.159342
N3    N     N_3   0.201863 0.836496 0.043855 -0.616082
H23   H     H_    0.233545 0.848478 0.942754 0.204040
H24   H     H_    0.272038 0.867979 0.110161 0.200669
N4    N     N_3   0.781290 0.369607 0.081076 -0.601195
H25   H     H_    0.855492 0.310683 0.097161 0.204131
H26   H     H_    0.711331 0.318351 0.032072 0.228018

loop_
_geom_bond_atom_site_label_1
_geom_bond_atom_site_label_2
_ccdc_geom_bond_type
C27   C29   A    
C31   H9    S    
C19   N3    S    
C20   C30   A    
N4    H26   S    
C7    H11   S    
C19   C21   A    
C24   C26   A    
C22   H4    S    
C3    C18   S    
C1    O1    A    
C33   H18   S    
C18   O6    A    
C28   C30   A    
C15   N1    A    
C5    C32   A    
Cu1   O4    S    
C6    C31   A    
Cu2   O3    S    
C1    C12   S    
C2    C11   S    
Cu1   O1    S    
C7    C12   A    
N4    H25   S    
C34   H20   S    
C4    C6    A    
C2    O2    A    
N3    H24   S    
C34   H21   S    
C33   H17   S    
C13   N2    A    
C27   H7    S    
C14   N1    A    
Cu1   Cu2   S    
C15   O9    S    
C20   N4    S    
C3    C31   A    
C9    C11   A    
C4    C32   A    
C10   C12   A    
C17   O7    A    
C13   H15   S    
C4    C17   S    
C18   O8    A    
C20   C22   A    
C9    H13   S    
Cu1   O8    S    
C13   C15   A    
C10   H14   S    
Cu2   O7    S    
C14   C16   A    
C16   O10   S    
C19   C29   A    
C7    C9    A    
Cu1   O5    S    
C33   H19   S    
C26   C28   A    
C16   N2    A    
C3    C5    A    
Cu2   O2    S    
Cu1   N1    S    
C29   H1    S    
Cu2   N2    S    
C30   H2    S    
C34   H22   S    
C21   C23   A    
C1    O3    A    
N3    H23   S    
C2    O4    A    
C25   H5    S    
C26   H6    S    
C14   H16   S    
C5    C24   S    
C8    C11   A    
C6    C23   S    
C28   H8    S    
O10   C34   S    
C22   C24   A    
C23   C25   A    
O9    C33   S    
C8    H12   S    
C21   H3    S    
C32   H10   S    
C8    C10   A    
Cu2   O6    S    
C17   O5    A    
C25   C27   A    
