data_mof_unit_68002.cif
_audit_creation_date              2012-12-11T14:46:07-0500
_audit_creation_method            fapswitch 2.2
_symmetry_space_group_name_H-M    P1
_symmetry_Int_Tables_number       1
_space_group_crystal_system       triclinic
_cell_length_a                    11.357971
_cell_length_b                    11.222782
_cell_length_c                    18.595872
_cell_angle_alpha                 90.667457
_cell_angle_beta                  89.943613
_cell_angle_gamma                 119.525552
_cell_volume                      2062.38153182

loop_
_atom_site_label
_atom_site_type_symbol
_atom_type_description
_atom_site_fract_x
_atom_site_fract_y
_atom_site_fract_z
_atom_type_partial_charge
C1    C     C_R   0.869393 0.637074 0.604261 0.540065
C2    C     C_R   0.923232 0.127547 0.705240 -0.096014
C3    C     C_R   0.944156 0.140662 0.780785 0.023156
C4    C     C_R   0.264787 0.627215 0.604883 0.532489
C5    C     C_R   0.732465 0.167467 0.717526 -0.010012
C6    C     C_R   0.767419 0.206650 0.789698 -0.052314
C7    C     C_R   0.601983 0.139713 0.692875 0.134397
C8    C     C_R   0.522863 0.172628 0.737948 -0.154415
C9    C     C_R   0.571046 0.237756 0.804620 0.256065
C10   C     C_R   0.698846 0.262653 0.829476 0.330429
C11   C     C_R   0.830216 0.158844 0.673451 -0.008010
C12   C     C_R   0.267844 0.555116 0.798129 0.296793
C13   C     C_R   0.726474 0.688877 0.689302 0.099962
C14   C     C_R   0.705817 0.715484 0.761323 -0.173252
C15   C     C_R   0.772976 0.689625 0.817226 -0.033152
C16   C     C_R   0.860735 0.227990 0.602607 0.528044
C17   C     C_R   0.846779 0.625396 0.802922 -0.084679
C18   C     C_R   0.896809 0.635108 0.734609 0.093529
C19   C     C_R   0.829955 0.655665 0.675993 0.093819
C20   C     C_R   0.297137 0.555180 0.271393 0.123556
C21   C     C_R   0.266552 0.551260 0.198138 0.128646
C22   C     C_R   0.307273 0.677481 0.165332 0.031033
C23   C     C_R   0.273819 0.536746 0.725054 0.161029
C24   C     C_R   0.307845 0.784674 0.205872 0.204604
C25   C     C_R   0.302960 0.772550 0.281797 -0.113580
C26   C     C_R   0.298853 0.658365 0.315522 -0.043334
C27   C     C_R   0.687846 0.066017 0.306907 0.294134
C28   C     C_R   0.872749 0.634279 0.394863 0.561717
C29   C     C_R   0.676167 0.045266 0.232159 0.237673
C30   C     C_R   0.785257 0.060074 0.190234 0.001474
C31   C     C_R   0.905444 0.089300 0.226459 0.062477
C32   C     C_R   0.914691 0.110495 0.301042 -0.224705
C33   C     C_R   0.817014 0.122608 0.338365 -0.050218
C34   C     C_R   0.307863 0.650124 0.679460 -0.017734
C35   C     C_R   0.949572 0.737157 0.275252 0.098135
C36   C     C_R   0.936103 0.708186 0.202455 0.212245
C37   C     C_R   0.809439 0.649753 0.174180 -0.018695
C38   C     C_R   0.709101 0.539531 0.210639 0.214644
C39   C     C_R   0.730341 0.528097 0.284388 0.217584
C40   C     C_R   0.262540 0.628905 0.393206 0.538662
C41   C     C_R   0.842912 0.641943 0.319320 -0.042056
C42   C     C_R   0.808459 0.103628 0.895810 0.570072
C43   C     C_R   0.399028 0.702673 0.897096 0.537857
C44   C     C_R   0.771933 0.730014 0.891022 0.556486
C45   C     C_R   0.855347 0.168723 0.824010 0.008081
C46   C     C_R   0.769999 0.045634 0.110039 0.599758
C47   C     C_R   0.390478 0.703533 0.100756 0.539382
C48   C     C_R   0.794808 0.695368 0.104118 0.563836
C49   C     C_R   0.857246 0.220069 0.399944 0.550333
C50   C     C_R   0.361115 0.780165 0.709583 -0.221921
C51   C     C_R   0.394279 0.800916 0.781570 -0.218646
C52   C     C_R   0.345043 0.687119 0.826197 -0.011430
C53   C     C_3   0.569484 0.966816 0.597397 -0.298032
C54   C     C_3   0.468857 0.363673 0.834312 -0.128607
C55   C     C_3   0.692878 0.748495 0.564370 -0.299595
C56   C     C_R   0.055482 0.130018 0.809159 0.310515
C57   C     C_3   0.122153 0.795571 0.771317 -0.277989
C58   C     C_3   0.266701 0.345280 0.324033 -0.295965
C59   C     C_3   0.135217 0.390358 0.096241 -0.259298
C60   C     C_3   0.280467 0.916218 0.099375 -0.190666
C61   C     C_3   0.549005 0.951726 0.399536 -0.120294
C62   C     C_3   0.579641 0.165011 0.193340 -0.016124
C63   C     C_3   0.081169 0.059208 0.167177 -0.262833
C64   C     C_3   0.080149 0.953998 0.343538 -0.294113
C65   C     C_3   0.010790 0.596936 0.128681 -0.102835
C66   C     C_3   0.497952 0.407824 0.165154 -0.101850
C67   C     C_R   0.132060 0.095146 0.762134 -0.097297
C68   C     C_3   0.561427 0.361992 0.352266 -0.059681
C69   C     C_3   0.097508 0.456023 0.879165 -0.058251
C70   C     C_3   0.364133 0.398196 0.673194 -0.288552
C71   C     C_3   0.185958 0.062809 0.574803 -0.112225
C72   C     C_3   0.154458 0.106011 0.915099 -0.085173
C73   C     C_3   0.683902 0.328676 0.949694 -0.034269
C74   C     C_R   0.100335 0.066708 0.689196 0.246906
C75   C     C_R   0.993341 0.080899 0.661715 -0.103778
Cr1   Cr    Cr6+3 0.791660 0.390250 0.499930 1.024265
Cr2   Cr    Cr6+3 0.098520 0.708290 0.500540 0.990189
Cr3   Cr    Cr6+3 0.109770 0.401430 0.499480 0.957354
Cr4   Cr    Cr6+3 0.874790 0.925890 0.000070 0.967181
Cr5   Cr    Cr6+3 0.574120 0.948670 0.999300 0.974632
Cr6   Cr    Cr6+3 0.551420 0.625320 0.000920 0.971410
H1    H     H_    0.370113 0.863774 0.678705 0.174415
H2    H     H_    0.454911 0.067748 0.609581 0.247676
H3    H     H_    0.649209 0.006472 0.556358 0.148586
H4    H     H_    0.477433 0.885648 0.570427 0.127830
H5    H     H_    0.600650 0.922042 0.641151 0.151600
H6    H     H_    0.553145 0.441878 0.802015 0.125835
H7    H     H_    0.463896 0.412311 0.885360 0.197251
H8    H     H_    0.370908 0.329225 0.807284 0.190029
H9    H     H_    0.562362 0.706090 0.651768 0.251412
H10   H     H_    0.700057 0.672128 0.529137 0.169623
H11   H     H_    0.792435 0.842750 0.570027 0.139681
H12   H     H_    0.421419 0.145026 0.721478 0.139400
H13   H     H_    0.621850 0.773925 0.536630 0.106446
H14   H     H_    0.070571 0.660363 0.682292 0.290544
H15   H     H_    0.067282 0.846676 0.792881 0.149357
H16   H     H_    0.201365 0.871911 0.736584 0.190262
H17   H     H_    0.163802 0.771149 0.818984 0.141968
H18   H     H_    0.441430 0.535346 0.328292 0.240685
H19   H     H_    0.299744 0.332251 0.378191 0.132035
H20   H     H_    0.265726 0.266446 0.287891 0.093292
H21   H     H_    0.165323 0.333908 0.329170 0.201504
H22   H     H_    0.266846 0.367517 0.168789 0.249028
H23   H     H_    0.637577 0.754277 0.773722 0.110314
H24   H     H_    0.131847 0.301763 0.067152 0.169185
H25   H     H_    0.164626 0.472089 0.056143 0.140351
H26   H     H_    0.032619 0.357837 0.117243 0.153101
H27   H     H_    0.327804 0.983501 0.207134 0.228033
H28   H     H_    0.370440 0.997484 0.071898 0.126382
H29   H     H_    0.241225 0.820312 0.067917 0.162651
H30   H     H_    0.201623 0.945729 0.097845 0.127899
H31   H     H_    0.531760 0.852715 0.376312 0.092636
H32   H     H_    0.457127 0.934475 0.428973 0.145426
H33   H     H_    0.632630 0.987845 0.439017 0.101967
H34   H     H_    0.896473 0.604448 0.846917 0.177178
H35   H     H_    0.526812 0.169018 0.144252 0.140192
H36   H     H_    0.687068 0.248826 0.188908 0.176469
H37   H     H_    0.530344 0.182861 0.240149 0.182455
H38   H     H_    0.097553 0.228575 0.217562 0.264815
H39   H     H_    0.184008 0.096686 0.189962 0.067103
H40   H     H_    0.090068 0.061559 0.107885 0.171889
H41   H     H_    0.014843 0.954731 0.185249 0.208438
H42   H     H_    0.147596 0.882039 0.262927 0.269445
H43   H     H_    0.143816 0.973320 0.392249 0.155090
H44   H     H_    0.977169 0.931087 0.360079 0.153920
H45   H     H_    0.449570 0.904514 0.802851 0.164533
H46   H     H_    0.130679 0.048546 0.312266 0.097686
H47   H     H_    0.002065 0.524223 0.171196 0.133697
H48   H     H_    0.090622 0.611511 0.090742 0.101432
H49   H     H_    0.918070 0.550540 0.094714 0.121778
H50   H     H_    0.460578 0.376173 0.109216 0.137754
H51   H     H_    0.492417 0.502063 0.178244 0.185326
H52   H     H_    0.430736 0.322791 0.200401 0.096203
H53   H     H_    0.561636 0.450162 0.380410 0.081333
H54   H     H_    0.552825 0.288929 0.394324 0.172698
H55   H     H_    0.472764 0.306511 0.317207 0.104442
H56   H     H_    0.307013 0.854073 0.315001 0.164420
H57   H     H_    0.138410 0.548094 0.914740 0.077209
H58   H     H_    0.043236 0.367410 0.915059 0.181433
H59   H     H_    0.023480 0.457678 0.840646 0.151382
H60   H     H_    0.159955 0.351021 0.670972 0.293187
H61   H     H_    0.350101 0.295202 0.682520 0.147613
H62   H     H_    0.457597 0.473324 0.701310 0.151860
H63   H     H_    0.378269 0.416030 0.614667 0.178621
H64   H     H_    0.092048 0.990776 0.545353 0.139803
H65   H     H_    0.269394 0.053812 0.549243 0.104586
H66   H     H_    0.208576 0.170495 0.568315 0.096118
H67   H     H_    0.007017 0.139895 0.328359 0.116198
H68   H     H_    0.265972 0.163756 0.915527 0.145498
H69   H     H_    0.118995 0.001182 0.893487 0.113443
H70   H     H_    0.121969 0.095976 0.971992 0.127036
H71   H     H_    0.596946 0.223588 0.955675 0.169038
H72   H     H_    0.647268 0.402933 0.948095 0.172981
H73   H     H_    0.746815 0.352062 0.998996 0.124422
H74   H     H_    0.220219 0.092896 0.782006 0.116136
H75   H     H_    0.964584 0.057622 0.605852 0.108602
N1    N     N_2   0.545069 0.074375 0.624935 -0.481227
N2    N     N_2   0.639408 0.690355 0.634035 -0.536548
N3    N     N_2   0.034581 0.670067 0.731264 -0.525442
N4    N     N_2   0.357765 0.478592 0.296152 -0.539454
N5    N     N_2   0.232379 0.432336 0.154956 -0.511279
N6    N     N_2   0.314060 0.904107 0.173624 -0.432948
N7    N     N_2   0.028377 0.146726 0.188881 -0.509947
N8    N     N_2   0.076600 0.842645 0.301934 -0.472688
N9    N     N_2   0.247686 0.405766 0.699903 -0.483203
O1    O     O_R   0.766500 0.250040 0.579790 -0.478434
O2    O     O_R   0.413330 0.603360 0.920440 -0.500320
O3    O     O_R   0.676110 0.626250 0.926750 -0.531789
O4    O     O_R   0.798570 0.516780 0.574780 -0.510040
O5    O     O_R   0.895350 0.809870 0.080950 -0.521850
O6    O     O_R   0.872490 0.049760 0.073800 -0.499507
O7    O     O_R   0.691680 0.088070 0.079070 -0.510675
O8    O     O_R   0.451720 0.825250 0.074050 -0.486799
O9    O     O_R   0.413580 0.606370 0.080960 -0.518528
O10   O     O_R   0.676340 0.629040 0.075550 -0.496803
O11   O     O_3   0.666780 0.833290 0.000090 -0.309781
O12   O     O_R   0.218690 0.701900 0.425960 -0.506541
O13   O     O_R   0.984000 0.732950 0.581090 -0.513689
O14   O     O_R   0.218600 0.700890 0.574760 -0.516988
O15   O     O_R   0.249390 0.515350 0.579940 -0.527578
O16   O     O_R   0.982790 0.280900 0.573700 -0.536444
O17   O     O_R   0.766600 0.251130 0.419260 -0.449556
O18   O     O_R   0.798660 0.517790 0.425980 -0.481838
O19   O     O_R   0.984100 0.734040 0.420570 -0.509016
O20   O     O_3   0.482235 0.249145 0.850990 -0.647847
O21   O     O_3   0.576308 0.048942 0.345378 -0.549403
O22   O     O_3   0.564949 0.033337 0.198161 -0.549700
O23   O     O_R   0.249490 0.516440 0.419420 -0.517354
O24   O     O_3   0.042361 0.725282 0.160086 -0.570499
O25   O     O_3   0.628211 0.425760 0.169634 -0.607661
O26   O     O_3   0.678932 0.397913 0.312081 -0.523463
O27   O     O_3   0.199827 0.443193 0.842156 -0.517368
O28   O     O_3   0.178001 0.026657 0.647966 -0.590056
O29   O     O_3   0.103275 0.180574 0.878159 -0.526590
O30   O     O_3   0.766479 0.344668 0.889518 -0.611963
O31   O     O_R   0.982880 0.281910 0.424890 -0.533137
O32   O     O_3   0.999980 0.499990 0.499980 -0.263856
O33   O     O_R   0.895110 0.806860 0.920430 -0.541675
O34   O     O_R   0.872260 0.046970 0.925000 -0.479660
O35   O     O_R   0.691430 0.085060 0.918550 -0.520293
O36   O     O_R   0.451490 0.822460 0.925250 -0.533452

loop_
_geom_bond_atom_site_label_1
_geom_bond_atom_site_label_2
_ccdc_geom_bond_type
C69   H58   S    
C71   H66   S    
C44   O33   A    
H42   N8    S    
C6    C45   A    
C27   C29   A    
C35   C36   A    
C64   N8    S    
C3    C56   A    
C65   H49   S    
C7    C8    A    
C39   C41   A    
C54   H6    S    
C27   C33   A    
C63   N7    S    
C12   C23   A    
C17   H34   S    
C70   H62   S    
Cr2   O14   S    
C53   H3    S    
H14   N3    S    
Cr6   O10   S    
Cr4   O5    S    
C36   C37   A    
C28   O18   A    
Cr5   O8    S    
C5    C11   A    
C9    O20   S    
Cr1   O32   S    
C72   O29   S    
C30   C31   A    
C43   C52   S    
C71   O28   S    
C57   H17   S    
C33   C49   S    
Cr5   O35   S    
C28   C41   S    
Cr2   O19   S    
C46   O6    A    
C67   H74   S    
C18   C19   A    
C44   O3    A    
C22   C24   A    
Cr4   O6    S    
C62   H36   S    
C55   H10   S    
C18   N3    S    
C12   C52   A    
C23   N9    S    
C75   H75   S    
C55   N2    S    
Cr5   O36   S    
C16   O1    A    
C8    C9    A    
C38   O25   S    
C57   H15   S    
C73   H73   S    
C43   O36   A    
C60   N6    S    
Cr1   O1    S    
C53   H5    S    
C60   H28   S    
Cr3   O32   S    
C13   C14   A    
C29   C30   A    
C9    C10   A    
C48   O10   A    
C23   C34   A    
C69   H59   S    
C22   C47   S    
C57   N3    S    
C74   O28   S    
Cr4   O33   S    
H18   N4    S    
C4    O15   A    
C55   H13   S    
Cr1   O17   S    
C2    C11   A    
C69   O27   S    
C63   H40   S    
C50   C51   A    
C66   H51   S    
C38   C39   A    
C12   O27   S    
C31   N7    S    
H22   N5    S    
C59   H25   S    
C1    C19   S    
C74   C75   A    
C13   C19   A    
C51   C52   A    
Cr6   O11   S    
C68   H55   S    
Cr4   O34   S    
C24   C25   A    
Cr5   O11   S    
C54   H8    S    
C70   N9    S    
H38   N7    S    
C5    C7    A    
C16   O16   A    
Cr3   O31   S    
C1    O4    A    
C68   O26   S    
C25   C26   A    
C64   H43   S    
C11   C16   S    
H27   N6    S    
C3    C45   A    
Cr2   O12   S    
C29   O22   S    
C42   C45   S    
H9    N2    S    
C25   H56   S    
C65   H47   S    
C62   H35   S    
C37   C38   A    
C59   N5    S    
C66   H52   S    
C39   O26   S    
C1    O13   A    
C14   H23   S    
C31   C32   A    
H2    N1    S    
C72   H70   S    
C57   H16   S    
C49   O17   A    
C54   O20   S    
C17   C18   A    
Cr6   O2    S    
C58   H19   S    
C58   H20   S    
C59   H24   S    
C37   C48   S    
C47   O8    A    
C32   H67   S    
C53   N1    S    
C71   H64   S    
C55   H11   S    
C65   O24   S    
C72   H68   S    
C72   H69   S    
C46   O7    A    
C73   O30   S    
C73   H71   S    
C61   H32   S    
C56   O29   S    
Cr3   O23   S    
Cr5   O7    S    
C4    O14   A    
Cr1   O18   S    
C13   N2    S    
C63   H41   S    
C50   H1    S    
C66   H50   S    
C48   O5    A    
C69   H57   S    
C15   C17   A    
C42   O34   A    
C51   H45   S    
C70   H63   S    
Cr4   O11   S    
C30   C46   S    
C68   H54   S    
C24   N6    S    
C8    H12   S    
C35   N8    S    
C15   C44   S    
C34   C50   A    
C65   H48   S    
C40   O23   A    
C49   O31   A    
C43   O2    A    
C56   C67   A    
H60   N9    S    
Cr2   O13   S    
C70   H61   S    
Cr3   O15   S    
Cr3   O16   S    
C32   C33   A    
C68   H53   S    
C2    C3    A    
C28   O19   A    
C60   H30   S    
C58   N4    S    
C10   O30   S    
Cr6   O9    S    
C64   H46   S    
C54   H7    S    
C63   H39   S    
C26   C40   S    
C5    C6    A    
C20   C26   A    
C58   H21   S    
C66   O25   S    
C42   O35   A    
C61   O21   S    
Cr6   O3    S    
C7    N1    S    
C67   C74   A    
C4    C34   S    
Cr1   O4    S    
C35   C41   A    
C59   H26   S    
C62   H37   S    
C47   O9    A    
C60   H29   S    
C6    C10   A    
C40   O12   A    
C71   H65   S    
C20   C21   A    
C64   H44   S    
C20   N4    S    
C73   H72   S    
C61   H33   S    
C14   C15   A    
C53   H4    S    
C36   O24   S    
C21   C22   A    
C61   H31   S    
Cr2   O32   S    
C27   O21   S    
C2    C75   A    
C62   O22   S    
C21   N5    S    
