data_mof_unit_51004.cif
_audit_creation_date              2012-12-10T19:51:35-0500
_audit_creation_method            fapswitch 2.2
_symmetry_space_group_name_H-M    P1
_symmetry_Int_Tables_number       1
_space_group_crystal_system       triclinic
_cell_length_a                    14.194652
_cell_length_b                    13.621378
_cell_length_c                    14.984911
_cell_angle_alpha                 90.242816
_cell_angle_beta                  89.971632
_cell_angle_gamma                 83.217105
_cell_volume                      2877.03700494

loop_
_atom_site_label
_atom_site_type_symbol
_atom_type_description
_atom_site_fract_x
_atom_site_fract_y
_atom_site_fract_z
_atom_type_partial_charge
C1    C     C_R   0.500047 0.500249 0.327541 0.903481
C2    C     C_R   0.787901 0.559028 0.559281 0.644496
C3    C     C_R   0.196345 0.576556 0.538670 -0.098764
C4    C     C_R   0.802218 0.442491 0.441038 -0.100416
C5    C     C_R   0.096886 0.579297 0.538676 -0.291660
C6    C     C_R   0.901079 0.442929 0.439308 -0.295814
C7    C     C_R   0.053149 0.500411 0.501902 0.109835
C8    C     C_R   0.946361 0.500167 0.501305 0.114760
C9    C     C_R   0.516805 0.314199 0.500208 0.910311
C10   C     C_R   0.483210 0.685788 0.500119 0.887181
C11   C     C_1   0.470572 0.789473 0.500834 -0.201564
C12   C     C_R   0.499890 0.499623 0.672058 0.931020
C13   C     C_1   0.529577 0.210525 0.502421 -0.156381
C14   C     C_2   0.459441 0.981031 0.502241 -0.150758
C15   C     C_2   0.541080 0.018982 0.506729 -0.172892
C16   C     C_1   0.538175 0.122803 0.504631 0.016585
C17   C     C_1   0.462259 0.877213 0.501546 -0.004671
C18   C     C_R   0.574073 0.477372 0.088756 -0.325251
C19   C     C_R   0.437112 0.457773 0.908110 -0.326741
C20   C     C_R   0.580215 0.473750 0.180946 0.479523
C21   C     C_R   0.436849 0.451345 0.815844 0.463317
C22   C     C_R   0.498891 0.506148 0.231302 -0.170119
C23   C     C_R   0.409982 0.555333 0.097254 0.203462
C24   C     C_R   0.498414 0.504456 0.767660 -0.156280
C25   C     C_R   0.414951 0.546803 0.189566 -0.344767
C26   C     C_R   0.555955 0.566543 0.810304 -0.323211
C27   C     C_3   0.737944 0.486120 0.208681 0.084155
C28   C     C_3   0.829397 0.417097 0.192338 -0.333591
C29   C     C_3   0.915324 0.474406 0.186195 -0.990415
C30   C     C_3   0.286809 0.419186 0.781066 0.092261
C31   C     C_3   0.231256 0.359547 0.717504 -0.288527
C32   C     C_3   0.124858 0.392630 0.722963 -0.970071
C33   C     C_3   0.316418 0.597451 0.055280 -0.409560
C34   C     C_R   0.553357 0.577152 0.902587 0.191609
C35   C     C_3   0.321385 0.698494 0.013255 -0.868308
C36   C     C_3   0.618271 0.644502 0.946179 -0.403376
C37   C     C_3   0.563455 0.736742 0.987269 -0.870543
C38   C     C_3   0.272807 0.371535 0.324486 0.132727
C39   C     C_3   0.205521 0.314775 0.270073 -0.405122
C40   C     C_3   0.217970 0.330817 0.170160 -0.961960
C41   C     C_3   0.739329 0.716544 0.612508 0.059517
C42   C     C_3   0.767014 0.756844 0.702909 -0.363366
C43   C     C_3   0.773216 0.867820 0.698789 -0.949545
C44   C     C_R   0.491826 0.521255 0.047301 0.064834
C45   C     C_R   0.492133 0.522133 0.951089 0.068745
C46   C     C_R   0.113439 0.421556 0.464555 -0.353990
C47   C     C_R   0.887701 0.556946 0.562841 -0.379643
C48   C     C_R   0.211960 0.424680 0.459958 0.616960
H1    H     H_    0.608949 0.972930 0.510854 0.150794
H2    H     H_    0.768801 0.396499 0.394614 0.175876
H3    H     H_    0.055301 0.643460 0.567047 0.146355
H4    H     H_    0.940870 0.398884 0.388833 0.152298
H5    H     H_    0.745552 0.530081 0.270334 0.167336
H6    H     H_    0.728210 0.539396 0.152073 0.114588
H7    H     H_    0.840682 0.362635 0.247376 0.221158
H8    H     H_    0.822744 0.375738 0.128991 0.222529
H9    H     H_    0.907170 0.526695 0.129280 0.266312
H10   H     H_    0.980494 0.421999 0.175614 0.270902
H11   H     H_    0.923511 0.516378 0.248870 0.269908
H12   H     H_    0.391626 0.027113 0.497804 0.165056
H13   H     H_    0.271671 0.499013 0.763254 0.138495
H14   H     H_    0.262332 0.408135 0.850490 0.127464
H15   H     H_    0.255910 0.369066 0.648061 0.243977
H16   H     H_    0.244811 0.279790 0.734551 0.222859
H17   H     H_    0.097962 0.379121 0.790896 0.261699
H18   H     H_    0.086977 0.350185 0.673947 0.275874
H19   H     H_    0.109633 0.472550 0.707421 0.270240
H20   H     H_    0.347334 0.750037 0.062649 0.261952
H21   H     H_    0.368361 0.692149 0.953921 0.269039
H22   H     H_    0.249421 0.729672 0.991124 0.245977
H23   H     H_    0.634201 0.445756 0.049145 0.156466
H24   H     H_    0.293233 0.545780 0.004740 0.194160
H25   H     H_    0.259202 0.606233 0.106419 0.199050
H26   H     H_    0.515085 0.775645 0.937179 0.261938
H27   H     H_    0.522289 0.717264 0.046120 0.270646
H28   H     H_    0.614134 0.787786 0.009959 0.248671
H29   H     H_    0.663527 0.604284 0.997555 0.195545
H30   H     H_    0.668187 0.669344 0.896240 0.197910
H31   H     H_    0.346495 0.347063 0.302042 0.178550
H32   H     H_    0.258595 0.452190 0.309226 0.121143
H33   H     H_    0.219992 0.234525 0.284869 0.239180
H34   H     H_    0.395601 0.411124 0.946623 0.151194
H35   H     H_    0.130843 0.340462 0.288222 0.212378
H36   H     H_    0.202519 0.410591 0.153813 0.259511
H37   H     H_    0.168160 0.289334 0.132316 0.267688
H38   H     H_    0.291632 0.303949 0.149186 0.269283
H39   H     H_    0.669034 0.755297 0.593432 0.178064
H40   H     H_    0.790620 0.735253 0.560436 0.110958
H41   H     H_    0.713153 0.742681 0.753567 0.223098
H42   H     H_    0.836772 0.718298 0.723929 0.215752
H43   H     H_    0.828129 0.883783 0.649824 0.261698
H44   H     H_    0.792823 0.894849 0.765472 0.267429
H45   H     H_    0.353210 0.573079 0.229319 0.171605
H46   H     H_    0.703656 0.907976 0.679167 0.266325
H47   H     H_    0.601714 0.607968 0.771058 0.194836
H48   H     H_    0.085338 0.356897 0.438648 0.148439
H49   H     H_    0.918145 0.599009 0.614405 0.144556
H50   H     H_    0.228636 0.636682 0.568746 0.153150
N1    N     N_R   0.252470 0.500000 0.499980 -0.137265
N2    N     N_R   0.747530 0.500000 0.500020 -0.126408
O1    O     O_R   0.579480 0.500010 0.369070 -0.593187
O2    O     O_3   0.384547 0.385736 0.772718 -0.635510
O3    O     O_3   0.267699 0.349266 0.416588 -0.639380
O4    O     O_3   0.730378 0.614304 0.620236 -0.632506
O5    O     O_R   0.420520 0.499990 0.630930 -0.609502
O6    O     O_R   0.420520 0.500010 0.369060 -0.646360
O7    O     O_R   0.579480 0.499990 0.630940 -0.578554
O8    O     O_R   0.590920 0.359650 0.500030 -0.619633
O9    O     O_R   0.409080 0.640350 0.499970 -0.624449
O10   O     O_R   0.431960 0.359650 0.500020 -0.564006
O11   O     O_R   0.568040 0.640350 0.499980 -0.607241
O12   O     O_3   0.661930 0.428605 0.221030 -0.639811
Zn1   Zn    Zn3+2 0.606140 0.500000 0.500010 0.984973
Zn2   Zn    Zn3+2 0.393860 0.500000 0.499990 0.961454

loop_
_geom_bond_atom_site_label_1
_geom_bond_atom_site_label_2
_ccdc_geom_bond_type
C40   H37   S    
C37   H26   S    
C25   H45   S    
O1    Zn1   S    
C41   C42   S    
C40   H36   S    
C12   O5    A    
N1    Zn2   S    
C28   H8    S    
C27   H6    S    
C7    C8    S    
C9    O8    A    
O6    Zn2   S    
C36   C37   S    
C19   C21   A    
C24   C26   A    
C36   H29   S    
C38   C39   S    
C38   H31   S    
C15   C16   S    
C26   H47   S    
C43   H46   S    
C10   O9    A    
C40   H38   S    
C41   H40   S    
C9    C13   S    
O7    Zn1   S    
C33   H24   S    
C20   O12   S    
C26   C34   A    
C11   C17   T    
C29   H11   S    
C35   H22   S    
C23   C33   S    
C22   C25   A    
C19   H34   S    
O10   Zn2   S    
C18   C20   A    
C1    O6    A    
C23   C25   A    
C37   H27   S    
C2    N2    A    
C1    C22   S    
C14   C17   S    
C28   H7    S    
C41   H39   S    
C46   C48   A    
C7    C46   A    
C31   H15   S    
O5    Zn2   S    
C39   H33   S    
C4    C6    A    
C39   C40   S    
C5    C7    A    
C6    C8    A    
C48   O3    S    
C43   H43   S    
C23   C44   A    
C4    H2    S    
C42   H42   S    
O8    Zn1   S    
C38   O3    S    
C18   C44   A    
C31   C32   S    
C2    O4    S    
C30   O2    S    
C27   H5    S    
C10   O11   A    
O11   Zn1   S    
C34   C45   A    
O9    Zn2   S    
C32   H19   S    
C21   O2    S    
C33   H25   S    
C37   H28   S    
C20   C22   A    
C27   O12   S    
C4    N2    A    
C13   C16   T    
C42   C43   S    
C21   C24   A    
C1    O1    A    
C44   C45   S    
C32   H18   S    
C18   H23   S    
C48   N1    A    
C28   C29   S    
C31   H16   S    
N2    Zn1   S    
C29   H9    S    
C3    C5    A    
C12   O7    A    
C19   C45   A    
C9    O10   A    
C2    C47   A    
C14   H12   S    
C12   C24   S    
C43   H44   S    
C47   H49   S    
C41   O4    S    
C42   H41   S    
C30   H14   S    
C8    C47   A    
C39   H35   S    
C36   H30   S    
C3    H50   S    
C30   C31   S    
C38   H32   S    
C35   H20   S    
C33   C35   S    
C34   C36   S    
C15   H1    S    
C10   C11   S    
C3    N1    A    
C46   H48   S    
C29   H10   S    
C35   H21   S    
C30   H13   S    
C27   C28   S    
C14   C15   D    
C5    H3    S    
C6    H4    S    
C32   H17   S    
