data_mof_unit_63754.cif
_audit_creation_date              2012-10-26T18:02:22-0400
_audit_creation_method            fapswitch 2.2
_symmetry_space_group_name_H-M    P1
_symmetry_Int_Tables_number       1
_space_group_crystal_system       triclinic
_cell_length_a                    18.765613
_cell_length_b                    18.805332
_cell_length_c                    18.930875
_cell_angle_alpha                 109.641303
_cell_angle_beta                  109.611589
_cell_angle_gamma                 109.26043
_cell_volume                      5136.32863986

loop_
_atom_site_label
_atom_site_type_symbol
_atom_type_description
_atom_site_fract_x
_atom_site_fract_y
_atom_site_fract_z
_atom_type_partial_charge
C1    C     C_R   0.118308 0.999490 0.618684 0.546754
C2    C     C_R   0.555747 0.416102 0.765357 -0.115748
C3    C     C_R   0.559427 0.484967 0.828304 -0.109834
C4    C     C_R   0.116828 0.118616 0.498284 0.557123
C5    C     C_R   0.487571 0.497708 0.810033 -0.120796
C6    C     C_R   0.411778 0.442122 0.728195 0.004303
C7    C     C_R   0.408396 0.373323 0.663918 0.039026
C8    C     C_R   0.264537 0.016824 0.689313 0.008453
C9    C     C_R   0.185171 0.000643 0.686104 0.021515
C10   C     C_R   0.174733 0.995109 0.754552 -0.151199
C11   C     C_R   0.238625 0.993939 0.818417 -0.162885
C12   C     C_R   0.923867 0.016884 0.183615 -0.096644
C13   C     C_R   0.314523 0.001312 0.815634 0.007567
C14   C     C_R   0.328674 0.018216 0.753715 0.023207
C15   C     C_3   0.353509 0.973567 0.692565 -0.275236
C16   C     C_R   0.881790 0.000882 0.381199 0.554681
C17   C     C_3   0.282929 0.972078 0.621803 -0.268425
C18   C     C_R   0.744558 0.743055 0.425764 0.004272
C19   C     C_R   0.816550 0.815531 0.501724 0.020406
C20   C     C_R   0.823704 0.822600 0.580708 -0.133940
C21   C     C_R   0.759671 0.756610 0.580408 -0.121739
C22   C     C_R   0.686370 0.684772 0.501207 0.020442
C23   C     C_R   0.233333 0.256369 0.425378 -0.145275
C24   C     C_R   0.682149 0.680835 0.425349 0.018391
C25   C     C_3   0.632101 0.625849 0.328948 -0.130540
C26   C     C_3   0.702481 0.698177 0.329609 -0.270939
C27   C     C_R   0.768272 0.934301 0.229123 -0.000586
C28   C     C_R   0.881609 0.881379 0.500196 0.549061
C29   C     C_R   0.819096 0.004994 0.314123 -0.004515
C30   C     C_R   0.812248 0.081253 0.329842 -0.045319
C31   C     C_R   0.746211 0.078965 0.264451 -0.166362
C32   C     C_R   0.687407 0.001995 0.184207 -0.007138
C33   C     C_R   0.704508 0.933500 0.165436 -0.015511
C34   C     C_R   0.313686 0.316040 0.502568 0.004642
C35   C     C_3   0.646153 0.837517 0.119059 -0.107590
C36   C     C_3   0.715510 0.837645 0.191822 -0.111273
C37   C     C_R   0.500774 0.619593 0.618413 0.555961
C38   C     C_R   0.380933 0.382478 0.501563 0.548592
C39   C     C_R   0.499234 0.380135 0.381388 0.555653
C40   C     C_R   0.983703 0.989034 0.208242 -0.105832
C41   C     C_R   0.618935 0.617999 0.499652 0.561894
C42   C     C_R   0.498313 0.119081 0.116757 0.544678
C43   C     C_R   0.381023 0.999315 0.880629 0.541103
C44   C     C_R   0.498862 0.881120 0.880497 0.558746
C45   C     C_R   0.327682 0.310523 0.578495 -0.023687
C46   C     C_R   0.618926 0.999791 0.118016 0.559223
C47   C     C_R   0.512989 0.763442 0.688143 0.008850
C48   C     C_R   0.499395 0.684751 0.684185 0.018049
C49   C     C_R   0.483274 0.670050 0.746816 -0.123612
C50   C     C_R   0.479941 0.733186 0.809812 -0.113388
C51   C     C_R   0.497459 0.813773 0.813631 0.020798
C52   C     C_R   0.063596 0.045621 0.285849 -0.062557
C53   C     C_R   0.513150 0.825414 0.750715 0.000497
C54   C     C_3   0.529151 0.886546 0.716930 -0.261500
C55   C     C_3   0.529217 0.815980 0.645470 -0.130618
C56   C     C_R   0.261442 0.245396 0.575005 -0.134993
C57   C     C_R   0.488377 0.314849 0.238707 0.045409
C58   C     C_R   0.501882 0.314943 0.315669 0.013399
C59   C     C_R   0.524021 0.254842 0.330553 -0.153214
C60   C     C_R   0.521778 0.189894 0.264493 -0.153298
C61   C     C_R   0.501171 0.187032 0.184656 0.008663
C62   C     C_R   0.492270 0.255058 0.175412 0.050915
C63   C     C_3   0.421689 0.252646 0.104732 -0.133329
C64   C     C_R   0.083440 0.130108 0.339877 0.030728
C65   C     C_3   0.416175 0.315854 0.175606 -0.250675
C66   C     C_R   0.023113 0.157735 0.314803 -0.096968
C67   C     C_R   0.182640 0.185231 0.497611 0.016115
C68   C     C_R   0.943638 0.101227 0.236755 -0.110988
C69   C     C_1   0.338219 0.456360 0.711443 0.172714
C70   C     C_1   0.635352 0.544578 0.300137 0.189104
C71   C     C_1   0.871388 0.162352 0.411164 0.221020
C72   C     C_1   0.637599 0.797315 0.032982 0.185390
C73   C     C_3   0.761826 0.787845 0.165749 -0.258340
C74   C     C_3   0.702094 0.689211 0.118557 -0.447739
C75   C     C_1   0.615221 0.843195 0.652133 0.204738
C76   C     C_3   0.453790 0.295165 0.056494 -0.287227
C77   C     C_3   0.457114 0.232956 0.983312 -0.417785
C78   C     C_R   0.167798 0.190301 0.421936 -0.032662
C79   C     C_R   0.480344 0.359996 0.683791 -0.075803
Cu1   Cu    Cu3+1 0.000020 0.938200 0.438220 0.902632
Cu2   Cu    Cu3+1 0.999980 0.061800 0.561780 0.982157
Cu3   Cu    Cu3+1 0.438190 0.500040 0.438260 0.930534
Cu4   Cu    Cu3+1 0.561780 0.500000 0.561820 0.954303
Cu5   Cu    Cu3+1 0.561810 0.061820 0.000020 0.920355
Cu6   Cu    Cu3+1 0.438190 0.938280 0.000080 0.934713
H1    H     H_    0.862056 0.973023 0.123535 0.127075
H2    H     H_    0.878991 0.877850 0.642045 0.129318
H3    H     H_    0.968260 0.923679 0.167080 0.100216
H4    H     H_    0.766590 0.762486 0.641569 0.146938
H5    H     H_    0.565649 0.617275 0.298740 0.116569
H6    H     H_    0.744175 0.679047 0.306700 0.150169
H7    H     H_    0.677658 0.734876 0.303124 0.111719
H8    H     H_    0.738809 0.136050 0.276973 0.127851
H9    H     H_    0.582697 0.818337 0.117528 0.111960
H10   H     H_    0.692825 0.823033 0.235105 0.119186
H11   H     H_    0.109830 0.023658 0.303980 0.114236
H12   H     H_    0.617816 0.528212 0.891528 0.115854
H13   H     H_    0.472134 0.609730 0.746139 0.135570
H14   H     H_    0.465757 0.719775 0.856344 0.149724
H15   H     H_    0.472479 0.896068 0.691790 0.114395
H16   H     H_    0.593123 0.947665 0.763676 0.155048
H17   H     H_    0.474258 0.786103 0.578962 0.121161
H18   H     H_    0.538472 0.255216 0.391128 0.133266
H19   H     H_    0.534803 0.141288 0.275143 0.126242
H20   H     H_    0.037581 0.222788 0.355738 0.127805
H21   H     H_    0.361161 0.187741 0.061541 0.133765
H22   H     H_    0.436265 0.381593 0.182548 0.145874
H23   H     H_    0.491113 0.551010 0.859745 0.117672
H24   H     H_    0.354172 0.285809 0.175490 0.128579
H25   H     H_    0.897116 0.122603 0.217711 0.125830
H26   H     H_    0.221903 0.260312 0.367079 0.134385
H27   H     H_    0.271619 0.241152 0.633050 0.121410
H28   H     H_    0.477959 0.306202 0.635904 0.110602
H29   H     H_    0.611215 0.405882 0.779937 0.106051
H30   H     H_    0.678163 0.670558 0.159305 0.142736
H31   H     H_    0.645128 0.665966 0.056041 0.168619
H32   H     H_    0.739034 0.656072 0.104889 0.136564
H33   H     H_    0.786360 0.805801 0.124895 0.164377
H34   H     H_    0.115712 0.987711 0.756334 0.123227
H35   H     H_    0.819099 0.805582 0.224974 0.179209
H36   H     H_    0.507932 0.216906 0.009874 0.202934
H37   H     H_    0.392547 0.172913 0.938461 0.157373
H38   H     H_    0.473762 0.264265 0.946436 0.135879
H39   H     H_    0.407823 0.315770 0.027825 0.148693
H40   H     H_    0.519490 0.354258 0.102000 0.185202
H41   H     H_    0.228369 0.986248 0.868998 0.128971
H42   H     H_    0.420579 0.016456 0.708627 0.136974
H43   H     H_    0.339269 0.907633 0.682802 0.133236
H44   H     H_    0.309323 0.014217 0.597160 0.134652
H45   H     H_    0.227798 0.905261 0.570924 0.154286
N1    N     N_1   0.279269 0.467785 0.697932 -0.284022
N2    N     N_1   0.639050 0.481243 0.277888 -0.313568
N3    N     N_1   0.918840 0.227443 0.476226 -0.275427
N4    N     N_1   0.632366 0.765898 0.966085 -0.331650
N5    N     N_1   0.683115 0.865405 0.657736 -0.310041
O1    O     O_R   0.090190 0.947810 0.538000 -0.512508
O2    O     O_R   0.447820 0.038100 0.090220 -0.512239
O3    O     O_R   0.462030 0.052220 0.909860 -0.524230
O4    O     O_R   0.090150 0.052180 0.642350 -0.514575
O5    O     O_R   0.357640 0.947890 0.909900 -0.507544
O6    O     O_R   0.552180 0.962000 0.909880 -0.506192
O7    O     O_R   0.447790 0.857670 0.909930 -0.512764
O8    O     O_R   0.642360 0.052210 0.090200 -0.504559
O9    O     O_R   0.537970 0.947880 0.090240 -0.512806
O10   O     O_R   0.090200 0.037990 0.447830 -0.518670
O11   O     O_R   0.090160 0.142360 0.552180 -0.493415
O12   O     O_R   0.552160 0.590170 0.642390 -0.502894
O13   O     O_R   0.909850 0.947820 0.357650 -0.523248
O14   O     O_R   0.909810 0.052190 0.462000 -0.492117
O15   O     O_R   0.909840 0.857640 0.447820 -0.513914
O16   O     O_R   0.909800 0.962010 0.552170 -0.509661
O17   O     O_R   0.447790 0.590200 0.538040 -0.508936
O18   O     O_R   0.357620 0.409850 0.447860 -0.513614
O19   O     O_R   0.461990 0.409820 0.552210 -0.510517
O20   O     O_R   0.447810 0.409860 0.357690 -0.518293
O21   O     O_R   0.552180 0.409830 0.462050 -0.509759
O22   O     O_R   0.537970 0.590210 0.447870 -0.512020
O23   O     O_R   0.642350 0.590180 0.552220 -0.508485
O24   O     O_R   0.552210 0.142430 0.090170 -0.514803

loop_
_geom_bond_atom_site_label_1
_geom_bond_atom_site_label_2
_ccdc_geom_bond_type
C6    C69   S    
C66   C68   A    
C63   C65   S    
C28   O15   A    
C27   C29   A    
C2    H29   S    
C73   C74   S    
C54   H16   S    
C42   O24   A    
C18   C26   S    
C30   C71   S    
C57   C62   A    
Cu4   O19   S    
C21   H4    S    
C53   C54   S    
C27   C33   A    
Cu1   O15   S    
C12   C68   A    
C55   H17   S    
C50   H14   S    
C29   C30   A    
C18   C24   A    
C7    C45   S    
C47   C55   S    
C30   C31   A    
C75   N5    T    
C22   C41   S    
C63   C76   S    
C74   H30   S    
C26   H7    S    
C20   H2    S    
C43   O3    A    
C15   C17   S    
C18   C19   A    
C49   C50   A    
C77   H37   S    
C49   H13   S    
Cu3   O18   S    
Cu5   Cu6   S    
C35   C36   S    
C45   C56   A    
C44   O6    A    
C10   H34   S    
C16   O14   A    
C2    C79   A    
C1    O1    A    
C9    C10   A    
C1    O4    A    
C47   C53   A    
C55   C75   S    
Cu5   O3    S    
C59   C60   A    
C73   H35   S    
C15   H42   S    
C13   C14   A    
C42   O2    A    
C76   H40   S    
C54   H15   S    
C67   C78   A    
C64   C78   S    
Cu6   O9    S    
C25   C26   S    
Cu5   O24   S    
C21   C22   A    
C17   H44   S    
C76   H39   S    
C11   H41   S    
C1    C9    S    
C76   C77   S    
C52   C64   A    
Cu3   O22   S    
C8    C9    A    
C46   O9    A    
Cu4   O21   S    
Cu5   O8    S    
C26   H6    S    
C40   C52   A    
C39   C58   S    
C37   O12   A    
C39   O20   A    
C60   C61   A    
C63   H21   S    
C64   C66   A    
C12   C40   A    
C62   C63   S    
C77   H38   S    
C3    H12   S    
C72   N4    T    
C47   C48   A    
Cu6   O5    S    
C69   N1    T    
C23   C34   A    
C74   H31   S    
C70   N2    T    
C50   C51   A    
C25   H5    S    
C43   O5    A    
C34   C45   A    
C68   H25   S    
C24   C25   S    
C37   C48   S    
C19   C28   S    
C42   C61   S    
C65   H24   S    
C6    C7    A    
C41   O22   A    
Cu3   O20   S    
C44   C51   S    
C48   C49   A    
C35   C72   S    
Cu3   Cu4   S    
C15   H43   S    
C79   H28   S    
Cu4   O12   S    
C38   O19   A    
C37   O17   A    
Cu6   O2    S    
C13   C43   S    
C7    C79   A    
C35   H9    S    
Cu2   O4    S    
C74   H32   S    
C54   C55   S    
Cu1   O10   S    
C8    C14   A    
C73   H33   S    
C17   H45   S    
C34   C38   S    
C32   C46   S    
C31   C32   A    
C14   C15   S    
C57   C65   S    
Cu1   Cu2   S    
C3    C5    A    
Cu6   O7    S    
C71   N3    T    
C4    C67   S    
C46   O8    A    
C27   C36   S    
C56   C67   A    
C23   H26   S    
C8    C17   S    
Cu1   O1    S    
C12   H1    S    
C39   O21   A    
C16   O13   A    
C59   H18   S    
C32   C33   A    
C40   H3    S    
C19   C20   A    
C2    C3    A    
C58   C59   A    
C31   H8    S    
C11   C13   A    
C36   H10   S    
C57   C58   A    
C5    C6    A    
Cu4   O23   S    
Cu5   O6    S    
Cu2   O14   S    
C4    O10   A    
C33   C35   S    
C65   H22   S    
C52   H11   S    
C22   C24   A    
C23   C78   A    
C61   C62   A    
C77   H36   S    
C10   C11   A    
C41   O23   A    
Cu1   O13   S    
Cu2   O16   S    
C20   C21   A    
C16   C29   S    
C28   O16   A    
C44   O7    A    
Cu2   O11   S    
C4    O11   A    
C25   C70   S    
C66   H20   S    
C38   O18   A    
C51   C53   A    
C60   H19   S    
C36   C73   S    
C56   H27   S    
Cu3   O17   S    
C5    H23   S    
