data_mof_unit_9910.cif
_audit_creation_date              2012-12-11T15:52:29-0500
_audit_creation_method            fapswitch 2.2
_symmetry_space_group_name_H-M    P1
_symmetry_Int_Tables_number       1
_space_group_crystal_system       triclinic
_cell_length_a                    6.926314
_cell_length_b                    14.547833
_cell_length_c                    16.017808
_cell_angle_alpha                 90.251936
_cell_angle_beta                  90.108623
_cell_angle_gamma                 89.959578
_cell_volume                      1613.98123934

loop_
_atom_site_label
_atom_site_type_symbol
_atom_type_description
_atom_site_fract_x
_atom_site_fract_y
_atom_site_fract_z
_atom_type_partial_charge
O1    O     O_R   0.494400 0.415640 0.412830 -0.538188
O2    O     O_R   0.823920 0.405510 0.586560 -0.543820
O3    O     O_R   0.994250 0.584360 0.587170 -0.543481
C1    C     C_R   0.655039 0.383132 0.615215 0.684191
O4    O     O_R   0.824110 0.404610 0.413450 -0.543729
O5    O     O_R   0.994440 0.583460 0.412820 -0.534832
C2    C     C_R   0.654997 0.382173 0.384335 0.724080
O6    O     O_R   0.494210 0.416540 0.587180 -0.541722
O7    O     O_3   0.660810 0.558680 0.500000 -0.364134
V1    V     V_3+5 0.935650 0.489110 0.500000 1.423443
O8    O     O_R   0.324150 0.594490 0.413440 -0.529609
C3    C     C_R   0.154587 0.615108 0.383070 0.697480
O9    O     O_R   0.323970 0.595390 0.586550 -0.545930
C4    C     C_R   0.155315 0.616304 0.616621 0.659069
V2    V     V_3+5 0.435660 0.510890 0.500000 1.434258
O10   O     O_3   0.160630 0.441320 0.500000 -0.373249
C5    C     C_3   0.983899 0.659482 0.750836 -0.306517
H1    H     H_    0.841244 0.655955 0.718879 0.151659
H2    H     H_    0.013980 0.590048 0.776710 0.128709
C6    C     C_3   0.971430 0.730437 0.823144 -0.306394
H3    H     H_    0.998635 0.695028 0.883488 0.125796
H4    H     H_    0.822437 0.758410 0.826710 0.175480
H5    H     H_    0.955472 0.779731 0.618958 0.155864
C7    C     C_3   0.095970 0.782752 0.652741 -0.362102
C8    C     C_3   0.338460 0.692165 0.736084 -0.317323
C9    C     C_3   0.144279 0.686042 0.687444 0.091932
H6    H     H_    0.456308 0.714024 0.693396 0.168184
H7    H     H_    0.378117 0.623291 0.760782 0.134670
C10   C     C_3   0.121659 0.808801 0.811418 0.030175
C11   C     C_3   0.091505 0.855842 0.724452 -0.103237
C12   C     C_3   0.324025 0.761700 0.809297 -0.338152
H8    H     H_    0.351450 0.725608 0.869296 0.140031
H9    H     H_    0.439620 0.814092 0.802278 0.189267
H10   H     H_    0.206517 0.802854 0.605901 0.123621
H11   H     H_    0.216437 0.902802 0.714736 0.111131
C13   C     C_R   0.964537 0.754540 0.197513 -0.195864
H12   H     H_    0.835151 0.759318 0.159505 0.123810
C14   C     C_R   0.973079 0.689023 0.261341 -0.031507
C15   C     C_R   0.141058 0.681571 0.312266 -0.091608
C16   C     C_R   0.298673 0.739303 0.294651 -0.138171
H13   H     H_    0.429251 0.735807 0.331793 0.134832
C17   C     C_R   0.289744 0.803212 0.229648 -0.153311
H14   H     H_    0.413840 0.846656 0.218371 0.117867
C18   C     C_R   0.121849 0.812157 0.180909 -0.053636
C19   C     C_R   0.795196 0.309474 0.742806 -0.192011
H15   H     H_    0.917574 0.355511 0.737506 0.138772
C20   C     C_R   0.783570 0.249358 0.811369 -0.002125
C21   C     C_R   0.622760 0.188944 0.818368 -0.127148
C22   C     C_R   0.473294 0.195407 0.759073 -0.105910
H16   H     H_    0.348930 0.150482 0.762724 0.153819
C23   C     C_R   0.482942 0.258627 0.693633 -0.126731
H17   H     H_    0.364717 0.261891 0.649377 0.126327
C24   C     C_R   0.645107 0.315374 0.684140 -0.074305
C25   C     C_R   0.812405 0.275580 0.280214 -0.151033
H18   H     H_    0.953372 0.294938 0.303700 0.115197
C26   C     C_R   0.801397 0.211804 0.214585 -0.140495
H19   H     H_    0.934414 0.183867 0.189699 0.115284
C27   C     C_R   0.621540 0.184374 0.181746 -0.039041
C28   C     C_R   0.453041 0.222809 0.216233 -0.154023
H20   H     H_    0.312077 0.203501 0.192705 0.114160
C29   C     C_R   0.464058 0.286612 0.281842 -0.140723
H21   H     H_    0.331052 0.314644 0.306645 0.117877
C30   C     C_R   0.643881 0.313773 0.314903 -0.045340
O11   O     O_R   0.771300 0.080930 0.910090 -0.522259
O12   O     O_R   0.441270 0.092800 0.083770 -0.548825
O13   O     O_R   0.271080 0.913920 0.084380 -0.545142
C31   C     C_R   0.610382 0.115437 0.112764 0.704570
O14   O     O_R   0.441580 0.091910 0.910670 -0.532397
O15   O     O_R   0.271390 0.913020 0.910040 -0.542276
C32   C     C_R   0.611060 0.116756 0.884020 0.753799
O16   O     O_R   0.770990 0.081830 0.084440 -0.536976
O17   O     O_3   0.604750 0.938760 0.997250 -0.377464
V3    V     V_3+5 0.329850 0.008280 0.997210 1.445761
O18   O     O_R   0.941680 0.901940 0.910610 -0.537802
C33   C     C_R   0.110853 0.878748 0.882378 0.664991
O19   O     O_R   0.941370 0.902830 0.083720 -0.548440
C34   C     C_R   0.110653 0.880801 0.112674 0.675966
V4    V     V_3+5 0.829860 0.986420 0.997150 1.450484
O20   O     O_3   0.104830 0.056030 0.997180 -0.359847
C35   C     C_1   0.808971 0.628549 0.269979 0.288566
N1    N     N_1   0.677362 0.580146 0.276438 -0.356857
C36   C     C_2   0.934167 0.256953 0.877168 0.758199
O21   O     O_2   0.101395 0.273349 0.857959 -0.568304
O22   O     O_R   0.883639 0.249830 0.961399 -0.661643
H22   H     H_    0.998546 0.257199 0.000163 0.291715
C37   C     C_2   0.912275 0.915355 0.719635 0.724126
O23   O     O_2   0.751485 0.880766 0.720978 -0.586445
O24   O     O_R   0.932135 0.010649 0.712821 -0.673372
H23   H     H_    0.803123 0.043387 0.709489 0.288290

loop_
_geom_bond_atom_site_label_1
_geom_bond_atom_site_label_2
_ccdc_geom_bond_type
C8    C12   S    
C1    C24   S    
C1    O6    A    
C19   H15   S    
C8    H7    S    
C11   H11   S    
C5    C9    S    
C18   C34   S    
C7    C9    S    
O5    C3    A    
C14   C15   A    
C37   O24   S    
C25   C30   A    
V2    O10   S    
C5    C6    S    
O12   V3    S    
C26   H19   S    
C20   C36   S    
C29   C30   A    
O17   V4    S    
O8    V2    S    
C12   H8    S    
C22   C23   A    
H5    C7    S    
C12   H9    S    
O15   V3    S    
O1    V2    S    
O11   C32   A    
C11   C37   S    
O7    V1    S    
C6    C10   S    
C16   C17   A    
C19   C24   A    
C28   H20   S    
O1    C2    A    
O9    C4    A    
C17   C18   A    
O19   C34   A    
C19   C20   A    
C25   C26   A    
C28   C29   A    
O18   C33   A    
C23   H17   S    
O22   H22   S    
C21   C32   S    
C15   C16   A    
O4    C2    A    
C37   O23   D    
O17   V3    S    
O12   C31   A    
O14   V3    S    
O13   V3    S    
C7    H10   S    
C23   C24   A    
O2    C1    A    
C10   C11   S    
C20   C21   A    
C6    H3    S    
C5    H1    S    
V3    O20   S    
C4    C9    S    
C2    C30   S    
O3    C4    A    
C16   H13   S    
C6    H4    S    
C36   O21   D    
O6    V2    S    
C36   O22   S    
O9    V2    S    
C13   C18   A    
C17   H14   S    
O2    V1    S    
O13   C34   A    
C25   H18   S    
C13   H12   S    
V4    O20   S    
C27   C28   A    
O11   V4    S    
O19   V4    S    
C35   N1    T    
O5    V1    S    
O8    C3    A    
C10   C33   S    
C8    H6    S    
C3    C15   S    
C13   C14   A    
C8    C9    S    
O4    V1    S    
C10   C12   S    
O3    V1    S    
V1    O10   S    
C14   C35   S    
C21   C22   A    
C5    H2    S    
C26   C27   A    
O15   C33   A    
C31   O16   A    
O7    V2    S    
C29   H21   S    
C7    C11   S    
C27   C31   S    
O24   H23   S    
O14   C32   A    
C22   H16   S    
O18   V4    S    
O16   V4    S    
