data_mof_unit_44712.cif
_audit_creation_date              2012-12-11T14:35:53-0500
_audit_creation_method            fapswitch 2.2
_symmetry_space_group_name_H-M    P1
_symmetry_Int_Tables_number       1
_space_group_crystal_system       triclinic
_cell_length_a                    14.517369
_cell_length_b                    15.995914
_cell_length_c                    6.925931
_cell_angle_alpha                 89.999615
_cell_angle_beta                  80.654703
_cell_angle_gamma                 90.000225
_cell_volume                      1586.98358145

loop_
_atom_site_label
_atom_site_type_symbol
_atom_type_description
_atom_site_fract_x
_atom_site_fract_y
_atom_site_fract_z
_atom_type_partial_charge
O1    O     O_R   0.337460 0.413110 0.524760 -0.549882
O2    O     O_R   0.662540 0.913110 0.475240 -0.549883
O3    O     O_R   0.348690 0.587910 0.191230 -0.546541
O4    O     O_R   0.651310 0.087910 0.808770 -0.546545
O5    O     O_R   0.166530 0.586890 0.082470 -0.539227
O6    O     O_R   0.833470 0.086890 0.917530 -0.539223
C1    C     C_R   0.371876 0.615728 0.352830 0.751247
C2    C     C_R   0.628124 0.115727 0.647169 0.751243
O7    O     O_R   0.348700 0.413830 0.191250 -0.536747
O8    O     O_R   0.651300 0.913830 0.808750 -0.536748
O9    O     O_R   0.166530 0.411570 0.082490 -0.540801
O10   O     O_R   0.833470 0.911570 0.917510 -0.540800
C3    C     C_R   0.375432 0.388728 0.351250 0.741621
C4    C     C_R   0.624568 0.888728 0.648750 0.741622
O11   O     O_R   0.337460 0.588430 0.524740 -0.538861
O12   O     O_R   0.662540 0.088430 0.475260 -0.538867
O13   O     O_3   0.192230 0.499460 0.407330 -0.372646
O14   O     O_3   0.807770 0.999460 0.592670 -0.372642
V1    V     V_3+5 0.263080 0.500100 0.108540 1.375252
V2    V     V_3+5 0.736920 0.000100 0.891460 1.375244
O15   O     O_R   0.155290 0.412090 0.756570 -0.543617
O16   O     O_R   0.844710 0.912090 0.243430 -0.543618
C5    C     C_R   0.132750 0.382831 0.933511 0.651451
C6    C     C_R   0.867239 0.882822 0.066494 0.651464
O17   O     O_R   0.155290 0.586170 0.756550 -0.543770
O18   O     O_R   0.844710 0.086170 0.243450 -0.543767
C7    C     C_R   0.132580 0.615366 0.933087 0.652567
C8    C     C_R   0.867408 0.115375 0.066918 0.652587
V3    V     V_3+5 0.240910 0.499900 0.616030 1.372257
V4    V     V_3+5 0.759090 0.999900 0.383970 1.372254
O19   O     O_3   0.311760 0.500540 0.867100 -0.366384
O20   O     O_3   0.688240 0.000540 0.132900 -0.366391
C9    C     C_3   0.105306 0.765073 0.049207 -0.316577
C10   C     C_3   0.894768 0.264997 0.950191 -0.316563
H1    H     H_    0.129936 0.749328 0.188829 0.135991
H2    H     H_    0.870292 0.249116 0.810486 0.136047
H3    H     H_    0.167354 0.785838 0.944127 0.118762
H4    H     H_    0.832631 0.285836 0.054925 0.118761
C11   C     C_3   0.033372 0.837821 0.085862 -0.323628
C12   C     C_3   0.966708 0.337738 0.913491 -0.323585
H5    H     H_    0.060998 0.893313 0.998195 0.117087
H6    H     H_    0.938987 0.393313 0.000732 0.117039
H7    H     H_    0.023992 0.856327 0.242734 0.136719
H8    H     H_    0.976269 0.356081 0.756500 0.136814
H9    H     H_    0.996407 0.642470 0.258458 0.139437
H10   H     H_    0.003876 0.142268 0.741975 0.139371
H11   H     H_    0.890741 0.749634 0.312462 0.136590
H12   H     H_    0.109589 0.249410 0.688008 0.136503
C13   C     C_3   0.974722 0.660608 0.117325 -0.320057
C14   C     C_3   0.025396 0.160531 0.883185 -0.320081
C15   C     C_3   0.027181 0.712431 0.774850 -0.315711
C16   C     C_3   0.972563 0.212636 0.225279 -0.315702
C17   C     C_3   0.061629 0.686517 0.967539 0.116645
C18   C     C_3   0.938351 0.186533 0.032470 0.116632
H13   H     H_    0.087481 0.732456 0.664070 0.133570
H14   H     H_    0.912153 0.232716 0.335708 0.133478
C19   C     C_3   0.938065 0.811536 0.030466 0.117951
C20   C     C_3   0.061916 0.311551 0.969543 0.117921
C21   C     C_3   0.902853 0.733406 0.154083 -0.321423
C22   C     C_3   0.097275 0.233321 0.846462 -0.321428
C23   C     C_3   0.955689 0.784738 0.811218 -0.305264
C24   C     C_3   0.044038 0.284956 0.188920 -0.305229
H15   H     H_    0.982207 0.838885 0.717386 0.136249
H16   H     H_    0.017391 0.339181 0.282349 0.136145
H17   H     H_    0.888967 0.764450 0.766124 0.132170
H18   H     H_    0.110680 0.264755 0.234513 0.132264
H19   H     H_    0.941081 0.604958 0.062043 0.116452
H20   H     H_    0.058962 0.104936 0.938911 0.116453
H21   H     H_    0.834821 0.712515 0.116543 0.120172
H22   H     H_    0.165228 0.212490 0.884529 0.120200
H23   H     H_    0.587421 0.786711 0.372454 0.134944
H24   H     H_    0.412578 0.286712 0.627557 0.134951
H25   H     H_    0.419132 0.701732 0.644289 0.152171
H26   H     H_    0.580832 0.201702 0.355696 0.152180
C25   C     C_2   0.444830 0.680530 0.342413 -0.343020
C26   C     C_2   0.555172 0.180531 0.657588 -0.343022
C27   C     C_2   0.461726 0.718270 0.506229 -0.135440
C28   C     C_2   0.538259 0.218256 0.493767 -0.135451
C29   C     C_2   0.545385 0.828493 0.664382 -0.025772
C30   C     C_2   0.454611 0.328489 0.335620 -0.025759
C31   C     C_2   0.536922 0.780731 0.506008 -0.196516
C32   C     C_2   0.463072 0.280727 0.493996 -0.196517
H27   H     H_    0.485894 0.696246 0.202142 0.130332
H28   H     H_    0.514125 0.196262 0.797865 0.130341
C33   C     C_3   0.470613 0.822662 0.848134 -0.379233
C34   C     C_3   0.475455 0.885760 0.012165 -0.704024
H29   H     H_    0.535442 0.871949 0.088006 0.237838
H30   H     H_    0.479678 0.950652 0.954257 0.217455
H31   H     H_    0.411144 0.880564 0.122860 0.198672
H32   H     H_    0.401126 0.831547 0.803086 0.181742
H33   H     H_    0.472506 0.758989 0.910532 0.176277
C35   C     C_3   0.529382 0.322654 0.151867 -0.379234
C36   C     C_3   0.524544 0.385753 0.987834 -0.704055
H34   H     H_    0.464552 0.371945 0.912003 0.237845
H35   H     H_    0.520329 0.450645 0.045735 0.217456
H36   H     H_    0.588852 0.380550 0.877132 0.198673
H37   H     H_    0.598872 0.331535 0.196908 0.181744
H38   H     H_    0.527486 0.258982 0.089469 0.176265
H39   H     H_    0.994270 0.657970 0.712706 0.133520
H40   H     H_    0.005417 0.158250 0.287849 0.133616

loop_
_geom_bond_atom_site_label_1
_geom_bond_atom_site_label_2
_ccdc_geom_bond_type
C20   C24   S    
C5    C20   S    
C36   H34   S    
O11   V3    S    
O13   V3    S    
C15   C23   S    
O4    C2    A    
V1    O19   S    
C26   H28   S    
C33   H33   S    
C35   H38   S    
C11   H5    S    
C33   C34   S    
O9    V1    S    
C14   C18   S    
C10   C12   S    
C26   C28   D    
O3    C1    A    
C34   H30   S    
C19   C21   S    
C20   C22   S    
C11   C19   S    
C2    C26   S    
O17   V3    S    
C23   H15   S    
O7    C3    A    
C24   H16   S    
O13   V1    S    
O5    C7    A    
O7    V1    S    
O6    C8    A    
O8    V2    S    
C6    C19   S    
O3    V1    S    
O14   V4    S    
C27   C31   S    
O16   V4    S    
O14   V2    S    
C12   H6    S    
C3    C30   S    
C36   H35   S    
C15   H39   S    
C16   C18   S    
C35   H37   S    
H12   C22   S    
C9    C17   S    
C12   C20   S    
C24   H18   S    
C30   C32   D    
O8    C4    A    
C29   C31   D    
C8    C18   S    
C34   H29   S    
C11   H7    S    
C1    O11   A    
O15   V3    S    
C16   H40   S    
C9    H3    S    
C15   C17   S    
C30   C35   S    
C28   C32   S    
C22   H22   S    
O10   V2    S    
O1    V3    S    
H9    C13   S    
C9    C11   S    
C4    C29   S    
C25   C27   D    
C21   H21   S    
C10   C18   S    
C36   H36   S    
O15   C5    A    
O16   C6    A    
O1    C3    A    
O12   V4    S    
C29   C33   S    
V2    O20   S    
O10   C6    A    
C13   H19   S    
C10   H4    S    
C34   H31   S    
C1    C25   S    
C33   H32   S    
C7    C17   S    
C19   C23   S    
O5    V1    S    
O17   C7    A    
O6    V2    S    
H10   C14   S    
O18   C8    A    
C13   C21   S    
O2    V4    S    
C14   C22   S    
V3    O19   S    
C16   C24   S    
V4    O20   S    
C25   H27   S    
C13   C17   S    
O9    C5    A    
C35   C36   S    
C9    H1    S    
C10   H2    S    
C15   H13   S    
O2    C4    A    
H11   C21   S    
O4    V2    S    
C23   H17   S    
C12   H8    S    
C2    O12   A    
H26   C28   S    
H25   C27   S    
C14   H20   S    
H24   C32   S    
C16   H14   S    
H23   C31   S    
O18   V4    S    
