data_mof_unit_25440.cif
_audit_creation_date              2013-03-05T16:32:26-0500
_audit_creation_method            fapswitch 2.2
_symmetry_space_group_name_H-M    P1
_symmetry_Int_Tables_number       1
_space_group_crystal_system       triclinic
_cell_length_a                    10.673406
_cell_length_b                    10.827503
_cell_length_c                    9.582672
_cell_angle_alpha                 91.186943
_cell_angle_beta                  90.954678
_cell_angle_gamma                 91.265065
_cell_volume                      1106.76443763

loop_
_atom_site_label
_atom_site_type_symbol
_atom_site_description
_atom_site_fract_x
_atom_site_fract_y
_atom_site_fract_z
_atom_type_partial_charge
O1    O     O_R   0.500000 0.319640 0.618810 -0.538195
O2    O     O_R   0.500010 0.319680 0.381230 -0.581703
C1    C     C_R   0.496689 0.262769 0.498747 0.848789
O3    O     O_R   0.316850 0.499950 0.618770 -0.586090
O4    O     O_R   0.316860 0.499990 0.381190 -0.601556
C2    C     C_R   0.259850 0.499307 0.498778 0.869813
Cu1   Cu    Cu3+1 0.499990 0.499980 0.640670 1.022883
Cu2   Cu    Cu3+1 0.500010 0.500020 0.359330 0.997651
O5    O     O_R   0.499990 0.680320 0.618770 -0.597743
O6    O     O_R   0.500000 0.680360 0.381190 -0.588461
O7    O     O_R   0.683140 0.500010 0.618810 -0.551607
O8    O     O_R   0.683150 0.500050 0.381230 -0.555013
C3    C     C_R   0.499544 0.737667 0.500851 0.810863
C4    C     C_R   0.740375 0.496361 0.500850 0.860860
C5    C     C_3   0.041580 0.384191 0.527851 0.297830
C6    C     C_3   0.956052 0.413889 0.404697 0.107814
C7    C     C_3   0.877038 0.493148 0.502171 -0.084500
C8    C     C_3   0.962269 0.461654 0.628622 -0.193146
C9    C     C_3   0.044259 0.575407 0.592600 0.126367
C10   C     C_3   0.958514 0.608547 0.468869 -0.123092
C11   C     C_3   0.038593 0.527371 0.369608 -0.186662
C12   C     C_3   0.123786 0.497002 0.495825 -0.151231
H1    H     H_    0.933568 0.428419 0.732203 0.231013
H2    H     H_    0.923743 0.702201 0.447689 0.202558
H3    H     H_    0.071303 0.552121 0.264229 0.199590
C13   C     C_R   0.539329 0.069129 0.612686 0.075890
C14   C     C_R   0.489915 0.129775 0.498527 -0.100860
C15   C     C_R   0.432274 0.060664 0.388922 -0.105293
H4    H     H_    0.389178 0.106080 0.301256 0.179867
C16   C     C_R   0.433404 0.931543 0.390809 -0.158360
H5    H     H_    0.390684 0.879183 0.304274 0.158533
C17   C     C_R   0.492803 0.871198 0.501818 -0.026569
C18   C     C_R   0.541672 0.941662 0.614391 -0.005521
C19   C     C_3   0.670133 0.943314 0.681092 -0.152363
C20   C     C_3   0.667541 0.084306 0.678387 0.392763
H6    H     H_    0.669309 0.908029 0.787906 0.205780
C21   C     C_R   0.594986 0.555950 0.077537 0.167192
N1    N     N_R   0.500800 0.500930 0.147930 -0.221136
C22   C     C_R   0.411303 0.435720 0.071081 -0.040504
H7    H     H_    0.338270 0.385209 0.124030 0.150932
C23   C     C_R   0.410791 0.436367 0.922441 0.012059
H8    H     H_    0.337278 0.386444 0.864557 0.167384
N2    N     N_R   0.500800 0.500890 0.852020 -0.216280
C24   C     C_R   0.597677 0.553315 0.930398 0.226352
C25   C     C_3   0.642778 0.685987 0.930560 0.001161
C26   C     C_3   0.631792 0.688849 0.089320 0.073309
H9    H     H_    0.575960 0.746508 0.876560 0.079917
H10   H     H_    0.555111 0.748593 0.126422 0.098684
N3    N     N_3   0.905445 0.322630 0.303861 -0.520970
H11   H     H_    0.981340 0.284305 0.252360 0.261043
H12   H     H_    0.854355 0.370059 0.228901 0.271621
N4    N     N_3   0.764223 0.887744 0.591580 -0.541271
H13   H     H_    0.749873 0.791969 0.592575 0.237443
H14   H     H_    0.851976 0.904718 0.639031 0.269546
N5    N     N_R   0.667725 0.141203 0.818660 0.147356
O9    O     O_R   0.770120 0.143646 0.894357 -0.304605
O10   O     O_R   0.566013 0.185812 0.870992 -0.352639
N6    N     N_3   0.758806 0.144974 0.587577 -0.571380
H15   H     H_    0.754206 0.105257 0.487066 0.255013
H16   H     H_    0.848737 0.130384 0.627642 0.288867
N7    N     N_R   0.772671 0.700511 0.884870 0.153280
O11   O     O_R   0.833537 0.804468 0.908699 -0.326290
O12   O     O_R   0.834949 0.604785 0.844947 -0.376607
N8    N     N_R   0.749540 0.709454 0.167970 0.201748
O13   O     O_R   0.761115 0.803611 0.254050 -0.338131
O14   O     O_R   0.840726 0.632023 0.158103 -0.337488
N9    N     N_R   0.091102 0.262778 0.556131 0.120854
O15   O     O_R   0.080325 0.216065 0.679364 -0.349874
O16   O     O_R   0.154695 0.204986 0.461482 -0.381842
N10   N     N_3   0.096885 0.666000 0.693013 -0.537747
H17   H     H_    0.023889 0.721117 0.726974 0.284287
H18   H     H_    0.129086 0.617901 0.779484 0.247814

loop_
_geom_bond_atom_site_label_1
_geom_bond_atom_site_label_2
_geom_bond_distance
_ccdc_geom_bond_type
C5    C8    1.541948 S    
N5    O9    1.301079 A    
C6    C11   1.542134 S    
C23   H8    1.081599 S    
C3    C17   1.449028 S    
C9    C10   1.538867 S    
Cu1   Cu2   2.696001 S    
C22   C23   1.424444 A    
C25   C26   1.527539 S    
C24   C25   1.504872 S    
Cu1   O7    1.969487 S    
C13   C14   1.389922 A    
C20   N6    1.470141 S    
C15   H4    1.083220 S    
C8    C9    1.543393 S    
C16   H5    1.083261 S    
O7    C4    1.294107 A    
N6    H16   1.044326 S    
C5    C6    1.523898 S    
C2    C12   1.451730 S    
C7    C10   1.548254 S    
C19   C20   1.528198 S    
C25   N7    1.466958 S    
N7    O12   1.298052 A    
O5    C3    1.300556 A    
C5    C12   1.527476 S    
C10   H2    1.108981 S    
C6    C7    1.531393 S    
N3    H12   1.044825 S    
N10   H17   1.044036 S    
Cu1   N2    2.024992 S    
C11   C12   1.546244 S    
C23   N2    1.370372 A    
C4    C7    1.459689 S    
Cu2   N1    2.026163 S    
O3    Cu1   1.962473 S    
N4    H14   1.045245 S    
C18   C19   1.502684 S    
C25   H9    1.108228 S    
N1    C22   1.370604 A    
C26   H10   1.112767 S    
C20   N5    1.466948 S    
C8    H1    1.108427 S    
C9    C12   1.525320 S    
C6    N3    1.456466 S    
O3    C2    1.291698 A    
C22   H7    1.081685 S    
N6    H15   1.046595 S    
N9    O15   1.300114 A    
C26   N8    1.465048 S    
N9    O16   1.300254 A    
N8    O14   1.301882 A    
N2    C24   1.373330 A    
C21   N1    1.354003 A    
C13   C18   1.381361 A    
Cu2   O8    1.962473 S    
C5    N9    1.456589 S    
C7    C8    1.551205 S    
O8    C4    1.291614 A    
N5    O10   1.301765 A    
N4    H13   1.045159 S    
Cu1   O5    1.968193 S    
C11   H3    1.110068 S    
O1    Cu1   1.959519 S    
O2    Cu2   1.968196 S    
O6    C3    1.292572 A    
O4    Cu2   1.969488 S    
C19   N4    1.462995 S    
N8    O13   1.300477 A    
C21   C24   1.410466 A    
C1    C14   1.440165 S    
O2    C1    1.295468 A    
C17   C18   1.395507 A    
C16   C17   1.408917 A    
O4    C2    1.289573 A    
C15   C16   1.398859 A    
C19   H6    1.100030 S    
N7    O11   1.301260 A    
C13   C20   1.501045 S    
C10   C11   1.559941 S    
Cu2   O6    1.959519 S    
N3    H11   1.044801 S    
C14   C15   1.402564 A    
C9    N10   1.456750 S    
N10   H18   1.045112 S    
O1    C1    1.293243 A    
C21   C26   1.484757 S    
