data_mof_unit_30710.cif
_audit_creation_date              2012-12-10T16:55:05-0500
_audit_creation_method            fapswitch 2.2
_symmetry_space_group_name_H-M    P1
_symmetry_Int_Tables_number       1
_space_group_crystal_system       triclinic
_cell_length_a                    9.720295
_cell_length_b                    10.925602
_cell_length_c                    15.545595
_cell_angle_alpha                 89.106588
_cell_angle_beta                  73.63216
_cell_angle_gamma                 89.702191
_cell_volume                      1583.84128826

loop_
_atom_site_label
_atom_site_type_symbol
_atom_type_description
_atom_site_fract_x
_atom_site_fract_y
_atom_site_fract_z
_atom_type_partial_charge
C1    C     C_R   0.000723 0.265434 0.499050 0.853113
C2    C     C_R   0.676436 0.515352 0.909332 0.027688
C3    C     C_R   0.774630 0.482683 0.958399 0.078651
C4    C     C_R   0.530391 0.540973 0.955658 0.093736
C5    C     C_R   0.481417 0.520552 0.049957 0.078566
C6    C     C_R   0.582992 0.490805 0.096562 -0.241248
C7    C     C_R   0.726382 0.473454 0.051719 -0.206374
C8    C     C_R   0.432391 0.588705 0.911311 -0.239183
C9    C     C_R   0.289877 0.610283 0.957220 -0.195155
C10   C     C_R   0.238483 0.582102 0.048239 0.162660
C11   C     C_R   0.332893 0.534010 0.095058 0.055496
C12   C     C_R   0.916745 0.498881 0.672106 0.815853
C13   C     C_R   0.092937 0.600565 0.092978 -0.128854
C14   C     C_R   0.039286 0.570027 0.183597 -0.217556
C15   C     C_R   0.274705 0.499187 0.185355 -0.251733
C16   C     C_2   0.887828 0.933617 0.497959 -0.158503
C17   C     C_2   0.999057 0.866433 0.506309 -0.313133
C18   C     C_2   0.886374 0.067507 0.502058 -0.142579
C19   C     C_2   0.005181 0.133457 0.494656 -0.317891
C20   C     C_2   0.407832 0.410610 0.534263 0.461687
C21   C     C_2   0.556969 0.422426 0.546829 -0.062127
C22   C     C_R   0.999314 0.734541 0.501224 0.851849
C23   C     C_R   0.083299 0.502936 0.328010 0.798589
C24   C     C_R   0.870727 0.495734 0.770630 -0.098800
C25   C     C_R   0.130625 0.520251 0.230319 -0.054983
C26   C     C_R   0.919574 0.457719 0.913669 0.427375
C27   C     C_R   0.967498 0.468350 0.819884 -0.313531
C28   C     C_R   0.726761 0.517734 0.815308 -0.242105
Cu1   Cu    Cu3+1 0.138640 0.500020 0.499980 0.956383
Cu2   Cu    Cu3+1 0.861360 0.499980 0.500020 0.946015
H1    H     H_    0.799261 0.450715 0.091030 0.185160
H2    H     H_    0.020737 0.639348 0.057903 0.154072
H3    H     H_    0.792890 0.889666 0.489034 0.166466
H4    H     H_    0.092811 0.906760 0.518914 0.144157
H5    H     H_    0.783807 0.112538 0.509770 0.179073
H6    H     H_    0.110096 0.092175 0.482944 0.152543
H7    H     H_    0.395981 0.582727 0.492971 0.147879
H8    H     H_    0.625837 0.550756 0.452403 0.177748
H9    H     H_    0.339045 0.454071 0.222518 0.156472
H10   H     H_    0.927650 0.588133 0.217480 0.152315
H11   H     H_    0.218823 0.647744 0.920779 0.155771
H12   H     H_    0.079611 0.453278 0.785678 0.144358
H13   H     H_    0.654933 0.533898 0.774854 0.162730
H14   H     H_    0.556103 0.484076 0.168600 0.146597
H15   H     H_    0.463293 0.614767 0.841404 0.141789
N1    N     N_2   0.346430 0.498660 0.500980 -0.313928
N2    N     N_2   0.652550 0.498630 0.501000 -0.326475
O1    O     O_R   0.117050 0.321960 0.499980 -0.532619
O2    O     O_R   0.882890 0.321920 0.500020 -0.569545
O3    O     O_R   0.052910 0.500040 0.629810 -0.602136
O4    O     O_R   0.818750 0.499990 0.629840 -0.572319
O5    O     O_R   0.117110 0.678080 0.499980 -0.586139
O6    O     O_R   0.882950 0.678040 0.500020 -0.577128
O7    O     O_R   0.181250 0.500010 0.370160 -0.572339
O8    O     O_R   0.947090 0.499960 0.370190 -0.582694
O9    O     O_3   0.345287 0.295703 0.547149 -0.581383
C29   C     C_3   0.275460 0.272438 0.638868 0.082872
H16   H     H_    0.161684 0.300725 0.653839 0.177614
H17   H     H_    0.323074 0.321484 0.685913 0.091648
C30   C     C_3   0.279736 0.134546 0.656262 -0.332010
H18   H     H_    0.227290 0.085834 0.611740 0.218790
H19   H     H_    0.393109 0.103560 0.640409 0.228620
C31   C     C_3   0.203313 0.100957 0.753384 -0.948808
H20   H     H_    0.259015 0.143899 0.798335 0.261658
H21   H     H_    0.205161 0.000097 0.762901 0.264149
H22   H     H_    0.089958 0.132113 0.771122 0.251821
C32   C     C_1   0.596429 0.338812 0.608686 0.352011
N3    N     N_1   0.627150 0.271781 0.658689 -0.328944
O10   O     O_3   0.014233 0.430799 0.963487 -0.634615
C33   C     C_3   0.084088 0.317821 0.937999 0.037600
H23   H     H_    0.183035 0.333963 0.882147 0.154356
H24   H     H_    0.014104 0.250641 0.916909 0.141174
C34   C     C_3   0.125398 0.262738 0.018304 -0.304368
H25   H     H_    0.194538 0.327819 0.041101 0.238213
H26   H     H_    0.026730 0.246761 0.074369 0.218333
C35   C     C_3   0.206042 0.142096 0.995197 -0.927375
H27   H     H_    0.140498 0.075291 0.970693 0.261033
H28   H     H_    0.229208 0.103066 0.056016 0.261568
H29   H     H_    0.309421 0.157571 0.943089 0.260329

loop_
_geom_bond_atom_site_label_1
_geom_bond_atom_site_label_2
_ccdc_geom_bond_type
Cu2   O4    S    
C31   H21   S    
C34   H25   S    
C13   H2    S    
C24   C27   A    
C20   O9    S    
C26   C27   A    
C30   C31   S    
C35   H28   S    
C5    C11   A    
C3    C7    A    
C19   H6    S    
C5    C6    A    
C15   C25   A    
Cu1   O7    S    
O9    C29   S    
C30   H19   S    
C18   C19   D    
C8    H15   S    
C11   C15   A    
C8    C9    A    
C35   H29   S    
C33   H23   S    
C18   H5    S    
C4    C8    A    
C31   H22   S    
C6    H14   S    
C13   C14   A    
C21   C32   S    
C34   H26   S    
C22   O6    A    
Cu1   O3    S    
Cu2   O6    S    
C1    C19   S    
C7    H1    S    
Cu1   O1    S    
C32   N3    T    
Cu2   N2    S    
C35   H27   S    
C16   C17   D    
C29   C30   S    
C33   H24   S    
C30   H18   S    
C2    C4    A    
Cu1   Cu2   S    
C16   H3    S    
C33   C34   S    
C15   H9    S    
H8    N2    S    
Cu2   O2    S    
C34   C35   S    
C17   H4    S    
C12   O4    A    
C23   O7    A    
C22   O5    A    
C9    C10   A    
C3    C26   A    
C24   C28   A    
C4    C5    A    
C10   C13   A    
C12   O3    A    
C1    O1    A    
C23   O8    A    
C6    C7    A    
Cu2   O8    S    
C12   C24   S    
C28   H13   S    
C9    H11   S    
C17   C22   S    
Cu1   N1    S    
C2    C3    A    
C27   H12   S    
C29   H16   S    
C23   C25   S    
C14   C25   A    
O10   C33   S    
C29   H17   S    
C10   C11   A    
C14   H10   S    
C31   H20   S    
C20   C21   S    
C16   C18   S    
C26   O10   S    
C2    C28   A    
H7    N1    S    
C1    O2    A    
C20   N1    D    
C21   N2    D    
Cu1   O5    S    
