data_mof_unit_34421.cif
_audit_creation_date              2013-03-05T16:23:10-0500
_audit_creation_method            fapswitch 2.2
_symmetry_space_group_name_H-M    P1
_symmetry_Int_Tables_number       1
_space_group_crystal_system       triclinic
_cell_length_a                    15.04329
_cell_length_b                    13.907813
_cell_length_c                    15.877569
_cell_angle_alpha                 89.892734
_cell_angle_beta                  91.105425
_cell_angle_gamma                 90.242947
_cell_volume                      3321.23988381

loop_
_atom_site_label
_atom_site_type_symbol
_atom_site_description
_atom_site_fract_x
_atom_site_fract_y
_atom_site_fract_z
_atom_type_partial_charge
O1    O     O_R   0.371450 0.581430 0.500010 -0.600810
O2    O     O_R   0.371450 0.418570 0.500010 -0.581497
C1    C     C_R   0.329655 0.499824 0.499616 0.801898
O3    O     O_R   0.500000 0.581470 0.379440 -0.561992
O4    O     O_R   0.500000 0.418530 0.379440 -0.598981
C2    C     C_R   0.500083 0.500042 0.340515 0.829389
Cu1   Cu    Cu3+1 0.499990 0.596430 0.500000 0.941650
Cu2   Cu    Cu3+1 0.499990 0.403570 0.500000 0.937814
O5    O     O_R   0.628540 0.581440 0.499990 -0.570562
O6    O     O_R   0.628540 0.418560 0.499990 -0.585191
O7    O     O_R   0.499990 0.581400 0.620560 -0.586991
O8    O     O_R   0.499990 0.418600 0.620560 -0.563225
C3    C     C_R   0.669609 0.500000 0.499605 0.787361
C4    C     C_R   0.500169 0.500020 0.659643 0.847070
C5    C     C_3   0.459364 0.599275 0.051211 -0.165231
C6    C     C_3   0.434375 0.412627 0.047892 -0.177804
C7    C     C_3   0.435664 0.411676 0.948654 -0.150185
C8    C     C_3   0.454739 0.600434 0.951778 -0.161180
H1    H     H_    0.469760 0.345321 0.063242 0.119143
H2    H     H_    0.515196 0.647986 0.067484 0.140458
H3    H     H_    0.480927 0.351242 0.932973 0.116743
H4    H     H_    0.508214 0.652401 0.935055 0.105895
C9    C     C_1   0.497362 0.500502 0.748805 -0.171853
C10   C     C_3   0.495365 0.497961 0.084079 0.134361
C11   C     C_3   0.488690 0.501742 0.916145 0.179655
C12   C     C_3   0.586565 0.488780 0.949373 -0.500739
C13   C     C_3   0.595660 0.485212 0.049426 0.023819
C14   C     C_1   0.493477 0.501616 0.824010 -0.087564
C15   C     C_1   0.497958 0.498861 0.176215 -0.100811
C16   C     C_1   0.499352 0.499874 0.251518 -0.193558
H5    H     H_    0.631089 0.541636 0.919678 0.157058
H6    H     H_    0.611365 0.421186 0.921112 0.167251
C17   C     C_R   0.094115 0.588007 0.505537 0.010366
C18   C     C_R   0.092584 0.412660 0.487185 0.007079
C19   C     C_R   0.186726 0.586260 0.507234 -0.239369
C20   C     C_R   0.185349 0.413446 0.488144 -0.238535
H7    H     H_    0.223094 0.653319 0.514480 0.150012
H8    H     H_    0.220685 0.346205 0.481352 0.159541
C21   C     C_R   0.232511 0.499677 0.498549 -0.064408
C22   C     C_R   0.046591 0.500615 0.495821 -0.008737
C23   C     C_R   0.901004 0.482303 0.421878 -0.152911
C24   C     C_R   0.905828 0.517149 0.571943 -0.183983
H9    H     H_    0.934757 0.468786 0.363443 0.128512
H10   H     H_    0.943252 0.530028 0.629833 0.125433
C25   C     C_R   0.808628 0.481842 0.422961 -0.206671
C26   C     C_R   0.813584 0.514835 0.573149 -0.196546
H11   H     H_    0.770975 0.468023 0.365362 0.118543
H12   H     H_    0.779729 0.524966 0.632014 0.142521
C27   C     C_R   0.765308 0.499517 0.498430 0.003365
C28   C     C_R   0.949519 0.500942 0.496278 0.112365
C29   C     C_R   0.527878 0.102535 0.561669 -0.415379
C30   C     C_R   0.566093 0.897413 0.525603 -0.409639
H13   H     H_    0.553316 0.061609 0.614967 0.164215
H14   H     H_    0.621916 0.938372 0.550846 0.164205
C31   C     C_R   0.536089 0.203231 0.563642 0.178931
C32   C     C_R   0.567029 0.796832 0.534681 0.174425
N1    N     N_R   0.500020 0.258690 0.500000 -0.200751
N2    N     N_R   0.500020 0.741310 0.500000 -0.207098
C33   C     C_R   0.460039 0.214107 0.432433 -0.086560
C34   C     C_R   0.429457 0.785851 0.460981 -0.068937
H15   H     H_    0.430131 0.257178 0.382859 0.143135
H16   H     H_    0.376598 0.742905 0.433133 0.154848
C35   C     C_R   0.458754 0.112587 0.424249 0.395522
C36   C     C_R   0.421713 0.887254 0.458787 0.399228
C37   C     C_R   0.490672 0.054572 0.491490 0.049490
C38   C     C_R   0.492764 0.945398 0.489290 0.046992
C39   C     C_R   0.373742 0.644758 0.905238 0.109460
C40   C     C_R   0.285727 0.640267 0.934138 -0.123468
C41   C     C_R   0.215415 0.680350 0.887347 -0.152681
C42   C     C_R   0.231353 0.726421 0.811054 -0.126291
C43   C     C_R   0.317858 0.733374 0.781781 -0.134485
C44   C     C_R   0.388259 0.693746 0.828624 -0.167985
H17   H     H_    0.270016 0.608686 0.993406 0.138507
H18   H     H_    0.148384 0.676168 0.910720 0.125774
H19   H     H_    0.176803 0.757620 0.775150 0.113279
H20   H     H_    0.330545 0.769707 0.722826 0.120329
H21   H     H_    0.454703 0.700751 0.804675 0.117657
C45   C     C_R   0.352055 0.374312 0.901833 0.105038
C46   C     C_R   0.323743 0.279473 0.919180 -0.146014
C47   C     C_R   0.249292 0.239843 0.878078 -0.130530
C48   C     C_R   0.202207 0.293504 0.818021 -0.116627
C49   C     C_R   0.229788 0.386680 0.798767 -0.148332
C50   C     C_R   0.304134 0.426728 0.839835 -0.137100
H22   H     H_    0.359502 0.236110 0.965230 0.119764
H23   H     H_    0.228295 0.167273 0.892691 0.123112
H24   H     H_    0.144665 0.262698 0.786022 0.120220
H25   H     H_    0.193731 0.427980 0.751506 0.133484
H26   H     H_    0.323023 0.497955 0.821453 0.159092
C51   C     C_R   0.588164 0.244721 0.634263 0.167194
C52   C     C_R   0.554034 0.243059 0.715988 -0.147664
C53   C     C_R   0.606567 0.273985 0.784357 -0.135670
C54   C     C_R   0.693194 0.306947 0.771733 -0.125041
C55   C     C_R   0.728307 0.306526 0.690886 -0.178040
C56   C     C_R   0.676560 0.273864 0.622568 -0.117129
H27   H     H_    0.487184 0.217118 0.726692 0.127851
H28   H     H_    0.580503 0.271156 0.847220 0.120874
H29   H     H_    0.733607 0.331120 0.824785 0.119825
H30   H     H_    0.796141 0.329794 0.681363 0.129513
H31   H     H_    0.705891 0.269789 0.560921 0.137531
C57   C     C_R   0.636195 0.756762 0.591275 0.171496
C58   C     C_R   0.614930 0.734610 0.674749 -0.116325
C59   C     C_R   0.681399 0.708155 0.732846 -0.167670
C60   C     C_R   0.770170 0.707313 0.708719 -0.149620
C61   C     C_R   0.792297 0.732424 0.626432 -0.138454
C62   C     C_R   0.725707 0.757226 0.567724 -0.150621
H32   H     H_    0.546988 0.740102 0.695075 0.119115
H33   H     H_    0.664219 0.690066 0.796881 0.120091
H34   H     H_    0.821845 0.687431 0.753740 0.125342
H35   H     H_    0.861037 0.731538 0.608088 0.171303
H36   H     H_    0.743814 0.777811 0.504482 0.126816
O9    O     O_3   0.424564 0.071024 0.351494 -0.536026
C63   C     C_3   0.485001 0.085309 0.285647 0.059675
H37   H     H_    0.552317 0.057687 0.303448 0.131587
H38   H     H_    0.489916 0.162852 0.268688 0.115989
C64   C     C_3   0.452071 0.030735 0.208165 -0.764688
H39   H     H_    0.385543 0.057623 0.187935 0.242867
H40   H     H_    0.499141 0.041274 0.155868 0.186500
H41   H     H_    0.447184 0.952723 0.222691 0.261815
O10   O     O_3   0.344768 0.927807 0.426204 -0.536449
C65   C     C_3   0.281474 0.931968 0.490577 0.050940
H42   H     H_    0.307525 0.974013 0.545528 0.133605
H43   H     H_    0.262618 0.858330 0.511757 0.124511
C66   C     C_3   0.198211 0.981719 0.456782 -0.726042
H44   H     H_    0.168697 0.939854 0.403616 0.241288
H45   H     H_    0.148556 0.987295 0.507362 0.198898
H46   H     H_    0.214969 0.055241 0.434479 0.251935
C67   C     C_R   0.387931 0.657018 0.097577 0.109183
C68   C     C_R   0.381951 0.756612 0.080101 -0.144192
C69   C     C_R   0.320939 0.814788 0.121069 -0.131173
C70   C     C_R   0.265401 0.775393 0.181410 -0.092007
C71   C     C_R   0.270942 0.677815 0.200854 -0.155820
C72   C     C_R   0.331678 0.619207 0.159819 -0.125744
H47   H     H_    0.424943 0.789365 0.034103 0.121431
H48   H     H_    0.317119 0.890668 0.106246 0.129104
H49   H     H_    0.218489 0.820583 0.213518 0.132700
H50   H     H_    0.228467 0.647438 0.248430 0.133741
H51   H     H_    0.334062 0.545548 0.179110 0.161135
C73   C     C_R   0.345935 0.394420 0.093076 0.114341
C74   C     C_R   0.262337 0.424958 0.061788 -0.117318
C75   C     C_R   0.184781 0.407829 0.106574 -0.154278
C76   C     C_R   0.188691 0.359054 0.183259 -0.123764
C77   C     C_R   0.270128 0.326148 0.214843 -0.133759
C78   C     C_R   0.347755 0.342868 0.170044 -0.170881
H52   H     H_    0.255223 0.460192 0.002293 0.139212
H53   H     H_    0.121355 0.432140 0.081412 0.128093
H54   H     H_    0.128437 0.346051 0.217660 0.120017
H55   H     H_    0.273236 0.287486 0.274074 0.131780
H56   H     H_    0.409640 0.315840 0.196217 0.117115
C79   C     C_R   0.659065 0.565616 0.086354 0.115818
C80   C     C_R   0.696140 0.554693 0.168770 -0.117713
C81   C     C_R   0.752780 0.623981 0.204373 -0.144653
C82   C     C_R   0.773942 0.706583 0.159369 -0.109212
C83   C     C_R   0.737907 0.720469 0.078896 -0.134178
C84   C     C_R   0.681103 0.651584 0.042707 -0.187065
H57   H     H_    0.681783 0.491861 0.206380 0.128387
H58   H     H_    0.780276 0.613591 0.267202 0.124728
H59   H     H_    0.817683 0.760298 0.187171 0.114374
H60   H     H_    0.753202 0.785610 0.044560 0.121413
H61   H     H_    0.652595 0.670031 0.982205 0.106163
C85   C     C_R   0.644513 0.388692 0.071481 0.105954
C86   C     C_R   0.618146 0.322841 0.134707 -0.192165
C87   C     C_R   0.667781 0.240337 0.152804 -0.136291
C88   C     C_R   0.746156 0.222405 0.110453 -0.103398
C89   C     C_R   0.776022 0.287814 0.050778 -0.143420
C90   C     C_R   0.726794 0.370381 0.032433 -0.153568
H62   H     H_    0.560606 0.333605 0.172278 0.124003
H63   H     H_    0.645854 0.190645 0.200742 0.113318
H64   H     H_    0.784521 0.158609 0.124926 0.115127
H65   H     H_    0.837948 0.275090 0.019112 0.120987
H66   H     H_    0.753470 0.420942 0.987420 0.121379
C91   C     C_R   0.049567 0.682586 0.512912 0.118133
C92   C     C_R   0.990895 0.715541 0.449294 -0.127216
C93   C     C_R   0.952080 0.806404 0.455388 -0.160997
C94   C     C_R   0.972002 0.865214 0.524559 -0.125339
C95   C     C_R   0.030844 0.833386 0.587681 -0.157124
C96   C     C_R   0.069626 0.742567 0.581911 -0.184955
H67   H     H_    0.976219 0.671638 0.394502 0.120470
H68   H     H_    0.906720 0.831321 0.406391 0.120094
H69   H     H_    0.941579 0.935198 0.529569 0.121550
H70   H     H_    0.046383 0.879075 0.641116 0.125157
H71   H     H_    0.115268 0.718849 0.631164 0.119620
C97   C     C_R   0.045694 0.319086 0.476598 0.116154
C98   C     C_R   0.984647 0.286736 0.536492 -0.123145
C99   C     C_R   0.939022 0.199898 0.524402 -0.147419
C100  C     C_R   0.954964 0.144005 0.453265 -0.114164
C101  C     C_R   0.017315 0.174229 0.394654 -0.132414
C102  C     C_R   0.062677 0.261264 0.406266 -0.168812
H72   H     H_    0.972429 0.328511 0.592500 0.117208
H73   H     H_    0.891297 0.175967 0.570188 0.121154
H74   H     H_    0.919101 0.077258 0.443519 0.111554
H75   H     H_    0.030178 0.130450 0.339967 0.126306
H76   H     H_    0.110351 0.284093 0.360067 0.115355

loop_
_geom_bond_atom_site_label_1
_geom_bond_atom_site_label_2
_geom_bond_distance
_ccdc_geom_bond_type
C92   H67   1.082518 S    
C5    C8    1.579002 S    
C62   H36   1.083163 S    
C35   C37   1.414812 A    
C12   H6    1.111444 S    
C55   C56   1.398286 A    
C23   C28   1.400552 A    
C66   H45   1.110319 S    
O9    C63   1.411909 S    
C10   C13   1.626402 S    
C91   C92   1.405939 A    
C68   C69   1.396942 A    
C63   H38   1.113566 S    
C48   C49   1.394178 A    
C100  C101  1.396911 A    
C100  H74   1.081575 S    
C93   C94   1.397691 A    
C92   C93   1.398632 A    
C11   C14   1.466035 S    
Cu1   O7    1.925190 S    
C26   C27   1.395222 A    
C12   C13   1.592541 S    
C47   H23   1.082368 S    
C36   O10   1.380893 S    
C18   C22   1.416100 A    
C56   H31   1.083069 S    
C89   C90   1.396276 A    
C19   H7    1.084443 S    
C69   C70   1.393252 A    
C73   C78   1.415575 A    
C29   C37   1.405479 A    
C61   H35   1.079819 S    
O7    C4    1.289735 A    
N1    C33   1.368042 A    
N2    C34   1.368614 A    
C49   H25   1.082846 S    
C101  H75   1.082382 S    
C99   C100  1.397441 A    
C13   C85   1.568873 S    
C34   H16   1.080721 S    
C39   C44   1.413330 A    
C24   C26   1.388378 A    
C83   H60   1.082658 S    
O5    C3    1.292567 A    
C94   C95   1.396915 A    
C61   C62   1.398949 A    
C44   H21   1.080209 S    
C53   H28   1.079978 S    
C67   C72   1.412734 A    
C76   C77   1.393522 A    
C45   C50   1.412264 A    
C88   C89   1.391720 A    
C65   H43   1.114601 S    
C6    C7    1.576237 S    
C64   H40   1.110726 S    
C98   H72   1.082269 S    
C81   C82   1.390808 A    
C18   C97   1.485912 S    
C42   C43   1.393165 A    
Cu1   N2    2.014961 S    
C18   C20   1.395284 A    
C48   H24   1.082449 S    
C65   C66   1.521701 S    
C50   H26   1.070969 S    
C101  C102  1.397811 A    
C1    C21   1.461134 S    
C12   H5    1.103645 S    
C13   C79   1.573489 S    
O1    Cu1   1.944009 S    
C90   H66   1.083088 S    
C23   H9    1.083333 S    
C89   H65   1.082451 S    
C5    H2    1.103899 S    
C8    C11   1.576365 S    
C24   H10   1.083364 S    
O3    Cu1   1.925864 S    
C63   H37   1.115698 S    
C30   H14   1.083589 S    
C54   H29   1.082449 S    
C86   C87   1.398023 A    
C25   H11   1.083469 S    
C96   H71   1.082597 S    
C26   H12   1.082705 S    
C33   H15   1.080581 S    
C17   C22   1.414655 A    
C39   C40   1.410741 A    
C58   C59   1.397265 A    
C66   H44   1.110804 S    
C75   C76   1.393045 A    
C8    C39   1.542927 S    
O3    C2    1.291178 A    
C71   H50   1.082825 S    
C53   C54   1.397583 A    
C45   C46   1.412603 A    
C40   C41   1.398077 A    
C66   H46   1.111049 S    
C11   C12   1.565450 S    
C85   C90   1.419229 A    
C7    H3    1.115469 S    
C87   H63   1.082377 S    
O1    C1    1.295110 A    
C36   C38   1.416006 A    
C4    C9    1.417144 S    
C19   C21   1.398129 A    
C79   C84   1.421999 A    
C98   C99   1.398309 A    
C15   C16   1.195519 T    
Cu2   N1    2.014965 S    
C74   H52   1.067119 S    
C95   C96   1.397466 A    
C25   C27   1.397685 A    
Cu2   O8    1.925969 S    
C64   H41   1.111207 S    
C57   C62   1.404427 A    
C41   H18   1.082476 S    
C81   H58   1.082207 S    
O10   C65   1.411689 S    
C102  H76   1.081988 S    
C60   H34   1.082298 S    
C76   H54   1.081666 S    
C24   C28   1.399582 A    
C3    C27   1.440145 S    
Cu2   O6    1.944143 S    
C5    C10   1.594956 S    
C2    C16   1.412893 S    
C70   H49   1.082480 S    
O8    C4    1.292247 A    
C49   C50   1.397920 A    
C80   H57   1.080866 S    
C31   N1    1.374728 A    
C9    C14   1.196763 T    
C32   C57   1.472263 S    
C71   C72   1.398208 A    
C17   C91   1.484632 S    
C5    C67   1.543272 S    
C59   H33   1.082789 S    
C43   H20   1.082727 S    
C42   H19   1.081976 S    
C30   C38   1.405319 A    
C65   H42   1.115128 S    
C64   H39   1.111277 S    
C87   C88   1.392174 A    
C58   H32   1.080796 S    
Cu1   O5    1.945901 S    
C82   H59   1.082488 S    
C46   H22   1.083327 S    
C69   H48   1.082348 S    
C8    H4    1.114710 S    
C77   H55   1.082760 S    
C20   C21   1.399263 A    
C6    C73   1.543414 S    
C7    C45   1.537672 S    
C86   H62   1.071851 S    
C47   C48   1.394165 A    
O6    C3    1.287956 A    
C52   H27   1.083354 S    
C75   H53   1.082499 S    
C51   C56   1.404181 A    
O4    Cu2   1.925089 S    
C74   C75   1.397366 A    
C67   C68   1.415046 A    
C91   C96   1.405588 A    
C33   C35   1.418142 A    
C34   C36   1.415894 A    
C7    C11   1.573779 S    
C85   C86   1.418711 A    
C20   H8    1.084235 S    
O2    C1    1.295462 A    
C40   H17   1.067930 S    
C88   H64   1.082399 S    
C84   H61   1.075485 S    
C31   C51   1.472639 S    
C79   C80   1.420674 A    
C52   C53   1.397739 A    
O4    C2    1.290168 A    
C93   H68   1.082336 S    
C6    H1    1.103345 S    
C22   C28   1.460480 S    
C94   H69   1.081037 S    
C54   C55   1.397510 A    
C17   C19   1.393229 A    
C32   N2    1.374486 A    
C70   C71   1.393687 A    
C29   C31   1.405732 A    
C97   C102  1.405385 A    
C35   O9    1.382089 S    
C59   C60   1.396459 A    
C41   C42   1.393705 A    
C78   H56   1.080794 S    
Cu1   Cu2   2.682262 S    
C73   C74   1.410083 A    
C95   H70   1.082285 S    
C46   C47   1.397122 A    
C30   C32   1.406102 A    
C10   C15   1.462745 S    
C43   C44   1.396985 A    
C82   C83   1.391738 A    
C6    C10   1.597929 S    
C37   C38   1.519312 S    
O2    Cu2   1.945768 S    
C60   C61   1.397805 A    
C77   C78   1.397447 A    
C23   C25   1.390069 A    
C80   C81   1.396647 A    
C57   C58   1.402793 A    
C72   H51   1.069254 S    
C29   H13   1.083559 S    
C51   C52   1.404766 A    
C68   H47   1.083356 S    
C55   H30   1.082524 S    
C99   H73   1.082555 S    
C63   C64   1.520434 S    
C97   C98   1.406671 A    
C83   C84   1.397985 A    
