data_mof_unit_27001.cif
_audit_creation_date              2012-12-10T17:09:53-0500
_audit_creation_method            fapswitch 2.2
_symmetry_space_group_name_H-M    P1
_symmetry_Int_Tables_number       1
_space_group_crystal_system       triclinic
_cell_length_a                    10.819628
_cell_length_b                    13.06023
_cell_length_c                    11.704398
_cell_angle_alpha                 98.970261
_cell_angle_beta                  93.239008
_cell_angle_gamma                 92.569902
_cell_volume                      1628.65811613

loop_
_atom_site_label
_atom_site_type_symbol
_atom_type_description
_atom_site_fract_x
_atom_site_fract_y
_atom_site_fract_z
_atom_type_partial_charge
C1    C     C_R   0.490861 0.299134 0.480178 0.884972
C2    C     C_R   0.076684 0.596913 0.538994 0.004984
C3    C     C_R   0.129342 0.501047 0.504203 -0.213781
C4    C     C_R   0.054576 0.410001 0.467736 0.346823
C5    C     C_R   0.926112 0.413589 0.467250 0.306900
C6    C     C_R   0.871883 0.509352 0.495366 -0.234651
C7    C     C_R   0.474138 0.811110 0.530945 -0.077137
C8    C     C_R   0.474749 0.185542 0.471936 -0.039111
C9    C     C_R   0.448424 0.017784 0.348790 -0.177960
C10   C     C_R   0.467429 0.124799 0.361536 -0.131926
C11   C     C_R   0.465005 0.135932 0.571627 0.104849
C12   C     C_R   0.262599 0.496857 0.500734 0.846615
C13   C     C_R   0.475387 0.027829 0.557510 0.092600
C14   C     C_R   0.450431 0.967799 0.446553 0.142610
C15   C     C_R   0.429260 0.859229 0.436887 0.111389
C16   C     C_R   0.514292 0.871976 0.636899 -0.162151
C17   C     C_R   0.510594 0.978491 0.651369 -0.210425
C18   C     C_R   0.379251 0.405169 0.022919 -0.286555
C19   C     C_R   0.391470 0.411750 0.143665 0.572308
C20   C     C_R   0.552624 0.542615 0.156969 0.037067
C21   C     C_R   0.544779 0.537022 0.034356 -0.085984
C22   C     C_R   0.455779 0.467625 0.967198 -0.046540
C23   C     C_R   0.487952 0.699074 0.520348 0.849741
C24   C     C_R   0.445266 0.461497 0.845368 -0.054859
C25   C     C_R   0.610245 0.588495 0.854695 0.511789
C26   C     C_R   0.622380 0.598587 0.976981 0.241983
C27   C     C_R   0.737672 0.506766 0.499485 0.986311
C28   C     C_R   0.151551 0.687331 0.584508 -0.139019
C29   C     C_R   0.100049 0.783075 0.609395 -0.212767
C30   C     C_R   0.975274 0.792023 0.581427 -0.089126
C31   C     C_R   0.899532 0.704292 0.534883 0.413470
C32   C     C_R   0.946793 0.603450 0.523894 -0.016820
Cu1   Cu    Cu3+1 0.509250 0.507730 0.615930 1.009648
Cu2   Cu    Cu3+1 0.490750 0.492270 0.384070 1.050007
H1    H     H_    0.544512 0.021710 0.734509 0.161667
H2    H     H_    0.472129 0.160173 0.284029 0.203417
H3    H     H_    0.374229 0.411125 0.794595 0.160195
H4    H     H_    0.310773 0.350485 0.972869 0.172420
H5    H     H_    0.619048 0.595916 0.211030 0.216527
H6    H     H_    0.250365 0.685337 0.601406 0.136211
H7    H     H_    0.158667 0.851573 0.643824 0.165289
H8    H     H_    0.938571 0.868483 0.590734 0.182526
H9    H     H_    0.549085 0.837376 0.709773 0.215093
H10   H     H_    0.438424 0.974369 0.261884 0.168638
N1    N     N_R   0.523180 0.519350 0.790130 -0.241141
N2    N     N_R   0.476820 0.480650 0.209890 -0.239591
O1    O     O_R   0.506570 0.354460 0.582000 -0.601900
O2    O     O_R   0.490940 0.341410 0.386200 -0.536621
O3    O     O_R   0.327470 0.506530 0.597920 -0.614284
O4    O     O_R   0.311840 0.493480 0.402120 -0.536949
O5    O     O_R   0.509060 0.658590 0.613800 -0.555093
O6    O     O_R   0.493430 0.645540 0.418000 -0.582362
O7    O     O_R   0.688160 0.506520 0.597880 -0.529351
O8    O     O_R   0.672530 0.493470 0.402080 -0.547598
Cl1   Cl    Cl    0.121407 0.289712 0.426889 -0.518495
C33   C     C_3   0.421272 0.191107 0.686346 -0.433828
C34   C     C_3   0.289750 0.227059 0.670033 -0.730083
H11   H     H_    0.288636 0.293213 0.621444 0.272089
H12   H     H_    0.227608 0.162310 0.622696 0.280230
H13   H     H_    0.252452 0.252136 0.755806 0.224409
H14   H     H_    0.414130 0.139230 0.752137 0.204206
H15   H     H_    0.487526 0.254831 0.727845 0.233119
Cl2   Cl    Cl    0.708767 0.669027 0.787716 -0.525233
Cl3   Cl    Cl    0.735221 0.688395 0.056589 -0.520090
Cl4   Cl    Cl    0.293936 0.327372 0.204785 -0.533228
Cl5   Cl    Cl    0.759722 0.730266 0.465835 -0.617788
Cl6   Cl    Cl    0.832516 0.296761 0.430755 -0.530469
C35   C     C_3   0.349323 0.799410 0.333521 -0.435042
C36   C     C_3   0.221700 0.844189 0.320364 -0.758892
H16   H     H_    0.175949 0.851013 0.403480 0.259201
H17   H     H_    0.228082 0.921452 0.292659 0.268814
H18   H     H_    0.162286 0.791599 0.253479 0.269277
H19   H     H_    0.398146 0.798269 0.252445 0.225771
H20   H     H_    0.327463 0.718013 0.343382 0.233687

loop_
_geom_bond_atom_site_label_1
_geom_bond_atom_site_label_2
_ccdc_geom_bond_type
C31   Cl5   S    
C6    C32   A    
C21   C26   A    
C1    C8    S    
Cu1   N1    S    
C5    Cl6   S    
C12   O3    A    
C34   H11   S    
C19   N2    A    
C24   N1    A    
C28   C29   A    
C5    C6    A    
C34   H12   S    
C16   C17   A    
C28   H6    S    
C35   H20   S    
C33   C34   S    
C2    C32   A    
C18   C19   A    
C25   Cl2   S    
C36   H17   S    
C26   Cl3   S    
C3    C12   S    
C31   C32   A    
C35   C36   S    
Cu2   N2    S    
C9    C10   A    
C7    C15   A    
C18   C22   A    
C13   C14   A    
C25   C26   A    
C24   H3    S    
Cu1   O7    S    
C27   O8    A    
Cu2   O4    S    
C20   H5    S    
C1    O1    A    
C34   H13   S    
C35   H19   S    
C36   H18   S    
C9    C14   A    
C29   C30   A    
C23   O5    A    
C6    C27   S    
Cu1   Cu2   S    
C16   H9    S    
C7    C16   A    
Cu2   O8    S    
C4    Cl1   S    
Cu1   O1    S    
C33   H15   S    
Cu2   O2    S    
C3    C4    A    
C25   N1    A    
C9    H10   S    
C29   H7    S    
C14   C15   A    
C4    C5    A    
C10   H2    S    
C27   O7    A    
C1    O2    A    
Cu1   O5    S    
Cu2   O6    S    
C13   C17   A    
C2    C3    A    
C18   H4    S    
C11   C13   A    
C23   O6    A    
C30   C31   A    
C8    C11   A    
C7    C23   S    
C15   C35   S    
C19   Cl4   S    
C22   C24   A    
C36   H16   S    
C20   C21   A    
C8    C10   A    
C33   H14   S    
C30   H8    S    
C2    C28   A    
C17   H1    S    
C21   C22   A    
Cu1   O3    S    
C12   O4    A    
C20   N2    A    
C11   C33   S    
