data_mof_unit_33140.cif
_audit_creation_date              2013-03-05T15:51:13-0500
_audit_creation_method            fapswitch 2.2
_symmetry_space_group_name_H-M    P1
_symmetry_Int_Tables_number       1
_space_group_crystal_system       triclinic
_cell_length_a                    23.058532
_cell_length_b                    7.083587
_cell_length_c                    20.62816
_cell_angle_alpha                 89.948019
_cell_angle_beta                  93.16572
_cell_angle_gamma                 89.938782
_cell_volume                      3364.19902338

loop_
_atom_site_label
_atom_site_type_symbol
_atom_site_description
_atom_site_fract_x
_atom_site_fract_y
_atom_site_fract_z
_atom_type_partial_charge
O1    O     O_R   0.188030 0.379840 0.189340 -0.567578
O2    O     O_R   0.811970 0.620160 0.810660 -0.570084
O3    O     O_R   0.311970 0.879840 0.310660 -0.562435
O4    O     O_R   0.688030 0.120160 0.689340 -0.569389
O5    O     O_R   0.307090 0.708420 0.185790 -0.614347
O6    O     O_R   0.692910 0.291580 0.814210 -0.616129
O7    O     O_R   0.192910 0.208420 0.314210 -0.614612
O8    O     O_R   0.807090 0.791580 0.685790 -0.616242
C1    C     C_R   0.326130 0.541399 0.170693 1.055460
C2    C     C_R   0.673557 0.458379 0.828921 1.059934
C3    C     C_R   0.173941 0.041408 0.329411 1.039482
C4    C     C_R   0.826346 0.958367 0.670980 1.057309
O9    O     O_R   0.188180 0.709480 0.181650 -0.560126
O10   O     O_R   0.811820 0.290520 0.818350 -0.560083
O11   O     O_R   0.311820 0.209480 0.318350 -0.561746
O12   O     O_R   0.688180 0.790520 0.681650 -0.559049
O13   O     O_R   0.192210 0.880960 0.306500 -0.574487
O14   O     O_R   0.807790 0.119040 0.693500 -0.573789
O15   O     O_R   0.307790 0.380960 0.193500 -0.571099
O16   O     O_R   0.692210 0.619040 0.806500 -0.573894
C5    C     C_R   0.168380 0.540985 0.165391 1.077859
C6    C     C_R   0.831803 0.459033 0.834299 1.081797
C7    C     C_R   0.331681 0.040570 0.334545 1.065067
C8    C     C_R   0.668240 0.959307 0.665689 1.079870
O17   O     O_3   0.251460 0.546730 0.290970 -0.260610
O18   O     O_3   0.748540 0.453270 0.709030 -0.264885
O19   O     O_3   0.248540 0.046730 0.209030 -0.264627
O20   O     O_3   0.751460 0.953270 0.790970 -0.266154
V1    V     V_3+5 0.249730 0.821120 0.242400 1.302481
V2    V     V_3+5 0.750270 0.178880 0.757600 1.304779
V3    V     V_3+5 0.250270 0.321120 0.257600 1.298339
V4    V     V_3+5 0.749730 0.678880 0.742400 1.304708
C9    C     C_R   0.570757 0.850379 0.621095 0.346039
C10   C     C_R   0.429181 0.149826 0.379749 0.326244
C11   C     C_R   0.929984 0.352352 0.878199 0.345384
C12   C     C_R   0.071050 0.650838 0.119843 0.347696
C13   C     C_R   0.619276 0.969203 0.615930 -0.457307
C14   C     C_R   0.380923 0.029547 0.384154 -0.466556
C15   C     C_R   0.880834 0.468501 0.884030 -0.456049
C16   C     C_R   0.119728 0.532038 0.115045 -0.458284
C17   C     C_R   0.621027 0.098344 0.563810 0.334709
C18   C     C_R   0.379919 0.896105 0.435090 0.339882
C19   C     C_R   0.878748 0.596136 0.936481 0.333383
C20   C     C_R   0.121760 0.403439 0.062804 0.336650
C21   C     C_R   0.574250 0.107625 0.515929 -0.164533
C22   C     C_R   0.427553 0.881044 0.481760 -0.159598
C23   C     C_R   0.925755 0.606468 0.984026 -0.158096
C24   C     C_R   0.075007 0.394216 0.014809 -0.158649
C25   C     C_R   0.524922 0.989709 0.522144 -0.010369
C26   C     C_R   0.476553 0.000876 0.476138 -0.021539
C27   C     C_R   0.976107 0.494039 0.976484 -0.005542
C28   C     C_R   0.024751 0.507240 0.022077 -0.006712
C29   C     C_R   0.523535 0.861631 0.574612 -0.016703
C30   C     C_R   0.477261 0.133227 0.424819 -0.059851
C31   C     C_R   0.977946 0.367640 0.923596 -0.024404
C32   C     C_R   0.023065 0.634722 0.074631 -0.024904
C33   C     C_R   0.575588 0.228325 0.461115 0.545510
C34   C     C_R   0.427690 0.750927 0.534211 0.540775
C35   C     C_R   0.923677 0.722872 0.039793 0.545403
C36   C     C_R   0.077243 0.278581 0.958855 0.546813
C37   C     C_R   0.526908 0.244060 0.418134 -0.315064
C38   C     C_R   0.474209 0.749093 0.580757 -0.313333
C39   C     C_R   0.972454 0.740135 0.082563 -0.292374
C40   C     C_R   0.028678 0.262750 0.915609 -0.294710
H1    H     H_    0.529308 0.342723 0.378298 0.196847
H2    H     H_    0.470776 0.658447 0.622575 0.187433
H3    H     H_    0.969295 0.834734 0.123387 0.191189
H4    H     H_    0.032029 0.169205 0.874537 0.190569
C41   C     C_3   0.047457 0.080182 0.532955 0.288863
C42   C     C_3   0.956343 0.914896 0.471079 0.313227
C43   C     C_3   0.452108 0.580546 0.967316 0.288813
C44   C     C_3   0.543595 0.414347 0.028378 0.312845
C45   C     C_3   0.019614 0.890637 0.553372 0.320077
C46   C     C_3   0.984231 0.103098 0.451045 0.338554
C47   C     C_3   0.479806 0.391053 0.946553 0.323493
C48   C     C_3   0.515843 0.602571 0.048709 0.338234
C49   C     C_1   0.871849 0.963225 0.625578 -0.275326
C50   C     C_1   0.129441 0.034887 0.376078 -0.282526
C51   C     C_1   0.627829 0.463254 0.874077 -0.275041
C52   C     C_1   0.370713 0.534829 0.124169 -0.280766
C53   C     C_3   0.986758 0.169878 0.522118 0.290100
C54   C     C_3   0.016916 0.823521 0.482047 0.328102
C55   C     C_3   0.512832 0.669912 0.977655 0.290782
C56   C     C_3   0.482989 0.323323 0.017854 0.328089
C57   C     C_3   0.958383 0.980704 0.542822 -0.314776
C58   C     C_3   0.045248 0.012305 0.461011 -0.324909
C59   C     C_3   0.541095 0.480715 0.956637 -0.316552
C60   C     C_3   0.454831 0.512076 0.039215 -0.324284
C61   C     C_1   0.910585 0.965778 0.588018 0.131242
C62   C     C_1   0.091771 0.028185 0.414744 0.211047
C63   C     C_1   0.588934 0.465801 0.911452 0.131462
C64   C     C_1   0.408415 0.528064 0.085570 0.209886
N1    N     N_R   0.568778 0.722181 0.674974 0.230026
O21   O     O_R   0.569935 0.540769 0.665256 -0.388698
O22   O     O_R   0.568857 0.786762 0.734008 -0.454863
N2    N     N_R   0.430086 0.285283 0.328016 0.235040
O23   O     O_R   0.431889 0.228741 0.268220 -0.450162
O24   O     O_R   0.428694 0.465123 0.340624 -0.393765
N3    N     N_R   0.932129 0.224625 0.824308 0.228534
O25   O     O_R   0.931043 0.289409 0.765209 -0.457828
O26   O     O_R   0.932584 0.043160 0.834174 -0.382112
N4    N     N_R   0.069304 0.782343 0.172611 0.230915
O27   O     O_R   0.067398 0.721334 0.231913 -0.457389
O28   O     O_R   0.069773 0.963105 0.161387 -0.377595
N5    N     N_R   0.670744 0.218757 0.560030 0.259059
O29   O     O_R   0.721470 0.146065 0.550780 -0.457769
O30   O     O_R   0.666780 0.396713 0.574766 -0.313602
N6    N     N_R   0.328970 0.782706 0.440451 0.261208
O31   O     O_R   0.326315 0.616214 0.413941 -0.354791
O32   O     O_R   0.282268 0.857410 0.462131 -0.428904
N7    N     N_R   0.828645 0.714972 0.940711 0.259177
O33   O     O_R   0.778008 0.640494 0.948923 -0.457027
O34   O     O_R   0.832319 0.894231 0.927726 -0.314401
N8    N     N_R   0.171609 0.283213 0.059071 0.259246
O35   O     O_R   0.222594 0.356292 0.051791 -0.458920
O36   O     O_R   0.167227 0.103667 0.071241 -0.313502
O37   O     O_3   0.623491 0.338562 0.449874 -0.588680
C65   C     C_3   0.655048 0.252271 0.401079 0.298555
H5    H     H_    0.628961 0.247828 0.354021 0.071734
H6    H     H_    0.668306 0.105983 0.415401 0.107826
C66   C     C_3   0.709737 0.366269 0.391098 -0.811919
H7    H     H_    0.737482 0.371071 0.436819 0.283873
H8    H     H_    0.734670 0.299710 0.352640 0.186365
H9    H     H_    0.698003 0.512583 0.376023 0.247729
O38   O     O_3   0.380073 0.637269 0.544093 -0.599189
C67   C     C_3   0.395344 0.445708 0.535502 0.272356
H10   H     H_    0.429546 0.399126 0.572233 0.089523
H11   H     H_    0.410978 0.422401 0.486040 0.134098
C68   C     C_3   0.342193 0.322434 0.543493 -0.743797
H12   H     H_    0.307730 0.356809 0.505588 0.280093
H13   H     H_    0.354189 0.171455 0.538960 0.203024
H14   H     H_    0.325051 0.345525 0.592148 0.242435
O39   O     O_3   0.874604 0.825670 0.052701 -0.587303
C69   C     C_3   0.844191 0.728866 0.100197 0.294894
H15   H     H_    0.870555 0.720296 0.147018 0.070574
H16   H     H_    0.832352 0.583503 0.083566 0.108990
C70   C     C_3   0.788442 0.835124 0.112301 -0.813420
H17   H     H_    0.760463 0.843953 0.066815 0.283407
H18   H     H_    0.764382 0.759919 0.149669 0.188172
H19   H     H_    0.798750 0.980114 0.129825 0.247069
O40   O     O_3   0.126309 0.175531 0.946117 -0.587794
C71   C     C_3   0.157416 0.273716 0.899534 0.296752
H20   H     H_    0.169275 0.418298 0.916968 0.108652
H21   H     H_    0.131561 0.284360 0.852432 0.068780
C72   C     C_3   0.213207 0.167204 0.887768 -0.816449
H22   H     H_    0.202889 0.023239 0.869242 0.247668
H23   H     H_    0.237956 0.243788 0.851306 0.188793
H24   H     H_    0.240567 0.155730 0.933632 0.281149
O41   O     O_3   0.033922 0.782118 0.609525 -0.603526
C73   C     C_3   0.093709 0.737699 0.614953 0.291813
H25   H     H_    0.122180 0.845163 0.593989 0.129248
H26   H     H_    0.101392 0.603461 0.589710 0.112459
C74   C     C_3   0.112399 0.714896 0.686512 -0.915876
H27   H     H_    0.086225 0.603246 0.708792 0.268471
H28   H     H_    0.159080 0.676106 0.691755 0.219723
H29   H     H_    0.105957 0.848862 0.712981 0.261624
O42   O     O_3   0.968782 0.214198 0.395929 -0.598709
C75   C     C_3   0.909870 0.269298 0.395828 0.322197
H30   H     H_    0.906196 0.403099 0.423125 0.155588
H31   H     H_    0.881284 0.164800 0.418428 0.115399
C76   C     C_3   0.886915 0.296925 0.325773 -0.952470
H32   H     H_    0.890268 0.163489 0.298168 0.265378
H33   H     H_    0.840610 0.340007 0.324376 0.218051
H34   H     H_    0.912623 0.405994 0.301583 0.273126
O43   O     O_3   0.464979 0.283341 0.890451 -0.601828
C77   C     C_3   0.405199 0.238922 0.885787 0.278129
H35   H     H_    0.376866 0.346395 0.907020 0.125307
H36   H     H_    0.397848 0.104725 0.911233 0.113294
C78   C     C_3   0.385862 0.216091 0.814437 -0.908070
H37   H     H_    0.412126 0.105204 0.791833 0.272643
H38   H     H_    0.339303 0.176114 0.809758 0.215074
H39   H     H_    0.391611 0.350391 0.787873 0.261640
O44   O     O_3   0.531613 0.713112 0.103762 -0.599006
C79   C     C_3   0.590481 0.768004 0.103389 0.321852
H40   H     H_    0.593944 0.901824 0.075986 0.155858
H41   H     H_    0.618952 0.663414 0.080618 0.115698
C80   C     C_3   0.613832 0.795432 0.173284 -0.953623
H42   H     H_    0.610821 0.661827 0.200936 0.264972
H43   H     H_    0.660067 0.838812 0.174314 0.219539
H44   H     H_    0.588156 0.904244 0.197669 0.273367
O45   O     O_3   0.096646 0.168027 0.563318 -0.623078
C81   C     C_3   0.085641 0.215275 0.628046 0.293977
H45   H     H_    0.061260 0.104714 0.653248 0.136248
H46   H     H_    0.059481 0.346295 0.629158 0.157565
C82   C     C_3   0.143334 0.244015 0.666195 -0.949432
H47   H     H_    0.168844 0.356016 0.643193 0.269869
H48   H     H_    0.135604 0.285023 0.716936 0.219602
H49   H     H_    0.168939 0.111146 0.667010 0.269078
O46   O     O_3   0.906466 0.830507 0.440914 -0.623318
C83   C     C_3   0.915511 0.789904 0.375244 0.325018
H50   H     H_    0.941131 0.658512 0.371693 0.162526
H51   H     H_    0.939420 0.902191 0.350420 0.135076
C84   C     C_3   0.856678 0.766391 0.338988 -0.974277
H52   H     H_    0.831941 0.900815 0.339791 0.266519
H53   H     H_    0.862611 0.726525 0.287727 0.224161
H54   H     H_    0.831118 0.655690 0.362592 0.274451
O47   O     O_3   0.402552 0.668861 0.937801 -0.624579
C85   C     C_3   0.412602 0.716570 0.872876 0.292448
H55   H     H_    0.436400 0.605737 0.847117 0.137293
H56   H     H_    0.438899 0.847039 0.871338 0.157741
C86   C     C_3   0.354368 0.746834 0.835946 -0.948208
H57   H     H_    0.329334 0.858734 0.859683 0.267146
H58   H     H_    0.361290 0.788739 0.785085 0.232817
H59   H     H_    0.328695 0.614270 0.835450 0.263713
O48   O     O_3   0.593656 0.329411 0.058110 -0.622528
C87   C     C_3   0.585088 0.288590 0.123892 0.324613
H60   H     H_    0.559516 0.157343 0.127687 0.161906
H61   H     H_    0.561355 0.400887 0.148933 0.134615
C88   C     C_3   0.644154 0.264624 0.159641 -0.973543
H62   H     H_    0.668837 0.398962 0.158631 0.266153
H63   H     H_    0.638593 0.224464 0.210972 0.223331
H64   H     H_    0.669566 0.153968 0.135792 0.274817
O49   O     O_3   0.025418 0.636714 0.460437 -0.571555
C89   C     C_3   0.084797 0.591376 0.457039 0.283070
H65   H     H_    0.093804 0.462709 0.486467 0.174512
H66   H     H_    0.115448 0.701933 0.476156 0.057426
C90   C     C_3   0.097348 0.544915 0.387243 -0.779013
H67   H     H_    0.086447 0.667308 0.355492 0.270107
H68   H     H_    0.144057 0.510083 0.384069 0.225214
H69   H     H_    0.070751 0.422590 0.369940 0.275886
O50   O     O_3   0.973930 0.357919 0.539657 -0.570673
C91   C     C_3   0.922950 0.359230 0.574079 0.218713
H70   H     H_    0.931917 0.295492 0.622893 0.153327
H71   H     H_    0.886305 0.291583 0.545257 0.106201
C92   C     C_3   0.903385 0.554702 0.586569 -0.759826
H72   H     H_    0.895867 0.627962 0.539531 0.285435
H73   H     H_    0.861945 0.550221 0.611478 0.218328
H74   H     H_    0.936833 0.624238 0.618833 0.288215
O51   O     O_3   0.474669 0.136352 0.039458 -0.571214
C93   C     C_3   0.415356 0.091514 0.043612 0.284225
H75   H     H_    0.406062 0.962829 0.014411 0.174438
H76   H     H_    0.384548 0.202209 0.024703 0.053239
C94   C     C_3   0.403474 0.045401 0.113639 -0.779572
H77   H     H_    0.414919 0.167559 0.145172 0.269738
H78   H     H_    0.356776 0.011748 0.117458 0.226759
H79   H     H_    0.430029 0.922416 0.130675 0.275058
O52   O     O_3   0.525445 0.857985 0.959955 -0.570500
C95   C     C_3   0.576092 0.859215 0.924961 0.219171
H80   H     H_    0.566773 0.795349 0.876273 0.153288
H81   H     H_    0.612995 0.791644 0.953494 0.106444
C96   C     C_3   0.595462 0.054634 0.912149 -0.759456
H82   H     H_    0.603500 0.127501 0.959130 0.285364
H83   H     H_    0.636596 0.049966 0.886659 0.218227
H84   H     H_    0.561713 0.124705 0.880327 0.288218

loop_
_geom_bond_atom_site_label_1
_geom_bond_atom_site_label_2
_geom_bond_distance
_ccdc_geom_bond_type
C34   C38   1.399575 A    
C55   C59   1.561791 S    
C55   O52   1.415778 S    
O1    C5    1.313578 A    
O43   C77   1.412322 S    
C59   C63   1.486699 S    
O19   V1    1.739088 S    
C9    C29   1.412727 A    
O13   V1    1.969954 S    
C78   H37   1.109953 S    
C72   H24   1.110645 S    
N5    O29   1.301245 A    
O3    C7    1.312634 A    
N7    O33   1.301273 A    
C79   H41   1.110933 S    
C44   C48   1.546568 S    
O4    V2    1.998632 S    
O15   V3    1.970047 S    
C88   H64   1.109658 S    
C69   C70   1.521545 S    
C72   H22   1.110755 S    
O41   C73   1.412117 S    
C47   O43   1.413083 S    
C27   C31   1.414389 A    
O48   C87   1.411736 S    
C50   C62   1.212207 T    
C90   H69   1.109893 S    
O7    C3    1.305691 A    
C84   H52   1.110058 S    
N5    O30   1.301270 A    
C95   C96   1.482986 S    
C21   C33   1.418681 A    
O5    C1    1.305421 A    
C67   H10   1.112620 S    
C17   N5    1.435156 S    
C40   H4    1.082130 S    
O9    V1    2.004450 S    
C48   O44   1.411265 S    
C10   N2    1.435479 S    
C14   C18   1.413835 A    
O16   V4    1.970047 S    
C77   C78   1.522936 S    
O4    C8    1.312272 A    
C89   H66   1.113242 S    
C47   C56   1.544536 S    
C82   H48   1.110294 S    
O47   C85   1.412533 S    
C81   H46   1.107295 S    
O1    V3    1.997462 S    
C92   H74   1.106853 S    
N6    O31   1.300510 A    
C93   C94   1.520359 S    
O2    V4    1.997462 S    
C96   H82   1.105110 S    
C18   C22   1.423878 A    
C33   C37   1.395758 A    
O3    V1    1.998634 S    
O50   C91   1.406508 S    
C65   H5    1.113870 S    
C66   H9    1.110681 S    
C83   C84   1.521870 S    
C72   H23   1.110400 S    
C79   H40   1.108439 S    
C28   C32   1.413703 A    
C1    O15   1.309120 A    
O42   C75   1.412864 S    
C60   C64   1.478396 S    
C2    O16   1.310017 A    
C80   H43   1.108905 S    
C73   C74   1.523136 S    
N2    O24   1.301134 A    
O2    C6    1.312577 A    
C83   H51   1.109141 S    
C43   O47   1.410210 S    
C85   H55   1.109902 S    
O14   V2    1.969954 S    
C21   C25   1.423310 A    
C74   H28   1.110073 S    
C94   H77   1.106380 S    
C48   C60   1.549260 S    
C90   H68   1.110147 S    
C51   C63   1.214685 T    
C75   C76   1.523670 S    
O8    C4    1.304518 A    
C68   H14   1.110997 S    
C80   H44   1.109173 S    
O11   C7    1.316866 A    
C20   N8    1.435347 S    
O12   C8    1.315560 A    
O44   C79   1.412819 S    
O52   C95   1.406454 S    
C22   C34   1.420558 A    
C77   H36   1.103239 S    
C86   H58   1.110142 S    
C71   C72   1.521809 S    
C77   H35   1.108779 S    
N4    O27   1.300057 A    
C19   N7    1.435325 S    
O10   V2    2.004452 S    
C11   N3    1.436896 S    
C48   C55   1.538843 S    
C76   H34   1.109155 S    
C76   H33   1.109005 S    
C18   N6    1.433115 S    
C24   C36   1.419162 A    
O5    V1    1.979993 S    
O17   V1    2.185210 S    
C92   H73   1.110120 S    
C70   H19   1.110724 S    
C95   H81   1.114856 S    
O7    V3    1.980279 S    
C38   H2    1.081367 S    
C11   C31   1.413439 A    
C27   C28   1.426641 A    
O8    V4    1.980280 S    
O20   V4    2.186901 S    
C8    C13   1.484892 S    
C58   C62   1.479007 S    
C4    C49   1.444912 S    
C57   C61   1.486160 S    
C87   H60   1.106476 S    
C82   H49   1.110137 S    
C23   C27   1.422917 A    
C67   C68   1.521860 S    
C84   H53   1.110432 S    
C90   H67   1.106414 S    
O45   C81   1.413249 S    
O19   V3    2.186901 S    
O11   V3    2.002357 S    
C35   O39   1.383265 S    
C9    C13   1.409428 A    
C96   H83   1.110073 S    
C1    C52   1.445332 S    
C10   C14   1.409058 A    
C75   H30   1.108436 S    
C52   C64   1.211823 T    
C11   C15   1.410332 A    
C39   H3    1.082231 S    
C42   C46   1.546538 S    
O51   C93   1.411582 S    
C12   C32   1.411949 A    
C3    C50   1.445976 S    
C37   H1    1.082041 S    
C36   O40   1.383243 S    
C54   O49   1.413627 S    
C70   H18   1.110354 S    
C41   C45   1.556597 S    
N8    O36   1.301258 A    
N3    O25   1.301152 A    
O49   C89   1.411533 S    
C93   H76   1.113228 S    
C84   H54   1.109659 S    
C49   C61   1.214434 T    
C31   C40   1.402613 A    
C85   C86   1.521668 S    
C88   H62   1.110099 S    
C32   C39   1.402031 A    
O9    C5    1.315473 A    
N7    O34   1.301318 A    
N1    O21   1.301243 A    
C26   C30   1.414229 A    
C46   C58   1.549611 S    
C74   H29   1.109187 S    
C91   H71   1.114892 S    
C56   O51   1.413663 S    
C94   H78   1.110133 S    
C79   C80   1.523635 S    
C45   C57   1.552985 S    
C66   H7    1.110602 S    
C44   C56   1.544163 S    
C34   O38   1.386240 S    
C47   C59   1.553566 S    
N3    O26   1.301193 A    
C16   C20   1.414414 A    
C10   C30   1.411721 A    
O38   C67   1.415272 S    
C86   H59   1.110337 S    
C73   H26   1.103377 S    
C12   C16   1.410052 A    
C83   H50   1.106509 S    
C46   C53   1.538989 S    
C45   C54   1.544618 S    
C44   C59   1.550373 S    
N2    O23   1.300058 A    
C33   O37   1.383258 S    
C68   H12   1.110292 S    
C78   H38   1.109650 S    
C42   C54   1.543980 S    
C95   H80   1.112097 S    
C3    O13   1.309392 A    
C67   H11   1.113147 S    
C46   O42   1.411353 S    
C45   O41   1.413186 S    
C89   H65   1.107691 S    
C65   C66   1.521594 S    
O17   V3    1.740290 S    
C56   C60   1.560201 S    
C85   H56   1.107285 S    
C89   C90   1.520428 S    
C9    N1    1.437296 S    
O6    C2    1.304507 A    
C15   C19   1.413448 A    
C2    C51   1.445379 S    
N6    O32   1.300823 A    
N8    O35   1.301283 A    
C44   O48   1.410787 S    
O18   V4    1.740290 S    
C30   C37   1.401819 A    
O12   V4    2.002361 S    
C7    C14   1.487922 S    
C53   O50   1.415800 S    
C70   H17   1.110615 S    
C22   C26   1.423706 A    
C69   H15   1.114003 S    
C35   C39   1.396152 A    
C91   C92   1.483007 S    
C86   H57   1.110047 S    
N4    O28   1.301160 A    
C36   C40   1.397321 A    
C96   H84   1.106814 S    
O10   C6    1.315513 A    
O20   V2    1.739089 S    
C93   H75   1.107635 S    
C54   C58   1.560616 S    
O40   C71   1.413355 S    
C43   C47   1.556447 S    
C75   H31   1.110918 S    
C87   C88   1.521834 S    
C82   H47   1.109830 S    
O39   C69   1.413369 S    
C5    C16   1.487531 S    
C76   H32   1.108755 S    
C25   C29   1.413379 A    
C6    C15   1.485703 S    
C88   H63   1.110432 S    
C12   N4    1.435558 S    
C69   H16   1.115076 S    
C42   C57   1.550257 S    
C71   H21   1.113989 S    
C13   C17   1.413318 A    
O46   C83   1.411748 S    
O6    V2    1.979992 S    
C94   H79   1.109917 S    
C65   H6    1.115047 S    
C66   H8    1.110250 S    
C41   C53   1.541398 S    
C80   H42   1.108788 S    
C23   C35   1.418892 A    
C43   C60   1.557951 S    
C20   C24   1.424455 A    
C24   C28   1.422598 A    
C29   C38   1.401017 A    
N1    O22   1.301156 A    
C25   C26   1.426048 A    
C4    O14   1.310007 A    
C17   C21   1.423139 A    
C71   H20   1.115087 S    
C43   C55   1.541409 S    
C78   H39   1.109152 S    
C68   H13   1.109699 S    
C74   H27   1.109948 S    
O37   C65   1.413274 S    
C87   H61   1.109111 S    
C19   C23   1.423008 A    
C91   H70   1.111996 S    
C81   C82   1.521756 S    
C53   C57   1.561381 S    
C41   C58   1.558618 S    
C81   H45   1.110027 S    
C42   O46   1.410804 S    
C41   O45   1.410561 S    
C73   H25   1.108735 S    
C92   H72   1.105053 S    
O18   V2    2.185209 S    
