data_mof_unit_22945.cif
_audit_creation_date              2012-12-11T15:22:42-0500
_audit_creation_method            fapswitch 2.2
_symmetry_space_group_name_H-M    P1
_symmetry_Int_Tables_number       1
_space_group_crystal_system       triclinic
_cell_length_a                    22.734501
_cell_length_b                    7.378681
_cell_length_c                    20.921543
_cell_angle_alpha                 89.99885
_cell_angle_beta                  93.66682
_cell_angle_gamma                 89.950011
_cell_volume                      3502.41590625

loop_
_atom_site_label
_atom_site_type_symbol
_atom_type_description
_atom_site_fract_x
_atom_site_fract_y
_atom_site_fract_z
_atom_type_partial_charge
O1    O     O_R   0.438030 0.494310 0.439340 -0.530427
O2    O     O_R   0.561970 0.994310 0.560660 -0.530661
O3    O     O_R   0.556900 0.822900 0.435960 -0.534254
O4    O     O_R   0.443100 0.322900 0.564040 -0.534232
C1    C     C_R   0.575933 0.656258 0.421846 0.712274
C2    C     C_R   0.424140 0.156272 0.578275 0.712120
O5    O     O_R   0.438170 0.823950 0.431660 -0.533421
O6    O     O_R   0.561830 0.323950 0.568340 -0.533686
O7    O     O_R   0.442390 0.995390 0.556340 -0.543329
O8    O     O_R   0.557610 0.495390 0.443660 -0.543192
C3    C     C_R   0.419017 0.655621 0.415969 0.687278
C4    C     C_R   0.580896 0.155431 0.584112 0.687234
O9    O     O_3   0.501520 0.661170 0.540910 -0.384626
O10   O     O_3   0.498480 0.161170 0.459090 -0.384262
V1    V     V_3+5 0.499720 0.935580 0.492410 1.370802
V2    V     V_3+5 0.500280 0.435580 0.507590 1.370144
C5    C     C_R   0.812460 0.012048 0.880654 0.208308
C6    C     C_R   0.188664 0.524036 0.117692 0.212569
C7    C     C_R   0.868395 0.082824 0.867288 -0.206040
C8    C     C_R   0.131722 0.582462 0.132627 -0.206858
C9    C     C_R   0.876523 0.160118 0.806688 0.210050
C10   C     C_R   0.122300 0.644873 0.195044 0.211245
C11   C     C_R   0.829212 0.166127 0.759486 0.095583
C12   C     C_R   0.169924 0.654870 0.241755 0.102195
C13   C     C_R   0.772651 0.104841 0.774082 -0.124537
C14   C     C_R   0.227458 0.606908 0.225666 -0.124423
C15   C     C_R   0.763415 0.034216 0.835534 -0.041651
C16   C     C_R   0.237511 0.546454 0.163037 -0.040730
C17   C     C_R   0.837147 0.234915 0.697791 -0.143408
C18   C     C_R   0.161172 0.712788 0.304621 -0.151542
C19   C     C_R   0.790251 0.243751 0.651664 -0.232703
C20   C     C_R   0.208183 0.723510 0.350604 -0.230778
C21   C     C_R   0.733758 0.190273 0.666140 0.138811
C22   C     C_R   0.265428 0.681499 0.334954 0.140394
C23   C     C_R   0.724865 0.117743 0.727156 0.085175
C24   C     C_R   0.275176 0.619997 0.272655 0.084064
C25   C     C_R   0.668166 0.058514 0.741078 0.048512
C26   C     C_R   0.332606 0.570664 0.257667 0.048896
C27   C     C_R   0.658749 0.996076 0.802623 -0.303173
C28   C     C_R   0.342638 0.516924 0.195288 -0.302374
C29   C     C_R   0.704769 0.994783 0.850926 0.464280
C30   C     C_R   0.296549 0.515190 0.147059 0.463348
C31   C     C_R   0.686041 0.208500 0.620545 -0.237554
C32   C     C_R   0.313035 0.699542 0.380711 -0.240259
C33   C     C_R   0.629942 0.145381 0.633725 -0.056050
C34   C     C_R   0.369932 0.646226 0.366366 -0.053538
C35   C     C_R   0.621303 0.068760 0.693829 -0.183097
C36   C     C_R   0.379436 0.580276 0.304960 -0.182487
H1    H     H_    0.879678 0.282463 0.684506 0.157064
H2    H     H_    0.117865 0.750417 0.318828 0.157277
H3    H     H_    0.798304 0.291598 0.604342 0.137918
H4    H     H_    0.199605 0.763330 0.398765 0.136093
H5    H     H_    0.692698 0.269839 0.574503 0.111343
H6    H     H_    0.305688 0.753373 0.427689 0.110812
H7    H     H_    0.577788 0.021355 0.704190 0.105730
H8    H     H_    0.423519 0.540273 0.293744 0.103957
H9    H     H_    0.614867 0.955896 0.814327 0.131980
H10   H     H_    0.386898 0.482120 0.183188 0.131149
C37   C     C_3   0.252304 0.201789 0.812279 0.024687
C38   C     C_3   0.746060 0.697731 0.186489 0.019913
C39   C     C_3   0.228576 0.885060 0.766579 0.695066
C40   C     C_3   0.770372 0.383045 0.233163 0.694652
C41   C     C_3   0.282726 0.917293 0.721396 0.277878
C42   C     C_3   0.716763 0.416262 0.278940 0.280110
H11   H     H_    0.343675 0.189264 0.784497 0.170490
H12   H     H_    0.655146 0.688332 0.215893 0.171431
H13   H     H_    0.271844 0.136032 0.855384 0.160635
H14   H     H_    0.726068 0.629871 0.144110 0.161696
H15   H     H_    0.324313 0.898970 0.749945 0.028746
H16   H     H_    0.674861 0.397975 0.251022 0.028772
C43   C     C_1   0.376641 0.150461 0.621802 -0.247755
C44   C     C_1   0.623518 0.650567 0.378482 -0.246422
C45   C     C_3   0.200883 0.080134 0.782973 -0.052649
C46   C     C_3   0.797860 0.577779 0.215783 -0.050230
C47   C     C_3   0.299864 0.229545 0.762193 -0.609600
C48   C     C_3   0.699283 0.727979 0.237433 -0.611329
C49   C     C_3   0.285473 0.119615 0.699244 -0.034652
C50   C     C_3   0.714261 0.618835 0.300599 -0.036638
C51   C     C_3   0.223295 0.181423 0.665644 0.647362
C52   C     C_3   0.776733 0.680636 0.333409 0.645145
C53   C     C_3   0.177042 0.180089 0.719449 0.098776
C54   C     C_3   0.822014 0.679934 0.278732 0.101299
C55   C     C_1   0.335705 0.141873 0.656630 0.002466
C56   C     C_1   0.664391 0.641918 0.343604 0.001656
C57   C     C_1   0.155119 0.074358 0.832156 0.056227
C58   C     C_1   0.843658 0.572281 0.166570 0.057151
C59   C     C_1   0.118492 0.076090 0.872421 -0.224091
C60   C     C_1   0.880734 0.575431 0.126783 -0.216658
H17   H     H_    0.175465 0.323423 0.733634 0.117297
H18   H     H_    0.822204 0.823054 0.264286 0.116787
H19   H     H_    0.305340 0.373046 0.750344 0.181247
H20   H     H_    0.694302 0.871937 0.249093 0.181224
O11   O     O_R   0.942420 0.735670 0.056390 -0.536219
O12   O     O_R   0.057580 0.235670 0.943610 -0.534877
O13   O     O_R   0.061840 0.404850 0.068350 -0.532725
O14   O     O_R   0.938160 0.904850 0.931650 -0.530771
C61   C     C_R   0.081458 0.573113 0.083597 0.712068
C62   C     C_R   0.918719 0.073302 0.916187 0.721531
O15   O     O_R   0.943100 0.406010 0.064050 -0.533744
O16   O     O_R   0.056900 0.906010 0.935950 -0.531986
O17   O     O_R   0.938020 0.234710 0.939330 -0.541118
O18   O     O_R   0.061980 0.734710 0.060670 -0.538613
C63   C     C_R   0.924920 0.573486 0.079124 0.706900
C64   C     C_R   0.074916 0.073521 0.920713 0.705547
O19   O     O_3   0.998500 0.567790 0.959120 -0.383962
O20   O     O_3   0.001500 0.067790 0.040880 -0.382848
V3    V     V_3+5 0.000280 0.293330 0.007580 1.354653
V4    V     V_3+5 0.999720 0.793330 0.992420 1.360275
N1    N     N_2   0.805960 0.911935 0.938111 -0.474508
H21   H     H_    0.832084 0.954497 0.977291 0.235201
C65   C     C_3   0.806685 0.717075 0.929444 -0.452488
H22   H     H_    0.799372 0.648418 0.975407 0.162593
H23   H     H_    0.849883 0.672309 0.913049 0.187720
H24   H     H_    0.771123 0.674434 0.893736 0.205632
N2    N     N_2   0.196130 0.431617 0.058901 -0.473385
H25   H     H_    0.169488 0.476595 0.020458 0.233672
C66   C     C_3   0.196738 0.235911 0.064970 -0.462506
H26   H     H_    0.205248 0.172837 0.018369 0.166107
H27   H     H_    0.153630 0.186215 0.079965 0.187748
H28   H     H_    0.232101 0.191920 0.100729 0.207098
O21   O     O_3   0.188284 0.769509 0.729605 -0.545745
C67   C     C_3   0.129046 0.747753 0.747795 0.105513
H29   H     H_    0.104772 0.679738 0.706815 0.118367
H30   H     H_    0.105076 0.873844 0.752976 0.167210
C68   C     C_3   0.119893 0.632052 0.806963 -0.364718
H31   H     H_    0.136160 0.494726 0.800145 0.226597
H32   H     H_    0.141894 0.693358 0.850492 0.235165
C69   C     C_3   0.054289 0.610346 0.816645 -0.807900
H33   H     H_    0.033755 0.743216 0.826161 0.240970
H34   H     H_    0.048838 0.518492 0.857660 0.262102
H35   H     H_    0.031207 0.548671 0.773557 0.214514
O22   O     O_3   0.811160 0.269075 0.270138 -0.544914
C70   C     C_3   0.869830 0.245422 0.250544 0.104803
H36   H     H_    0.894630 0.176133 0.290911 0.117793
H37   H     H_    0.894050 0.371143 0.245322 0.163363
C71   C     C_3   0.877059 0.129387 0.190965 -0.360686
H38   H     H_    0.860049 0.993715 0.198184 0.228065
H39   H     H_    0.854705 0.192001 0.147847 0.234417
C72   C     C_3   0.941976 0.101674 0.179613 -0.815668
H40   H     H_    0.962329 0.231775 0.167221 0.244466
H41   H     H_    0.945845 0.005125 0.139620 0.263428
H42   H     H_    0.966060 0.044014 0.222838 0.213063
O23   O     O_3   0.245155 0.787530 0.824928 -0.600740
C73   C     C_3   0.302867 0.805083 0.856430 -0.026462
H43   H     H_    0.297118 0.805203 0.908501 0.161308
H44   H     H_    0.326759 0.930417 0.847397 0.102739
C74   C     C_3   0.344450 0.647805 0.842435 -0.315200
H45   H     H_    0.331228 0.522577 0.866316 0.226420
H46   H     H_    0.343741 0.623180 0.790523 0.184214
C75   C     C_3   0.408021 0.688338 0.866128 -0.860679
H47   H     H_    0.424627 0.809344 0.841333 0.229936
H48   H     H_    0.436464 0.570874 0.855768 0.231983
H49   H     H_    0.411009 0.712385 0.918593 0.228425
O24   O     O_3   0.753046 0.283520 0.175447 -0.601542
C76   C     C_3   0.694980 0.300336 0.144588 -0.026399
H50   H     H_    0.700225 0.298061 0.092446 0.164764
H51   H     H_    0.671176 0.426150 0.153323 0.103088
C77   C     C_3   0.653191 0.144786 0.159844 -0.322297
H52   H     H_    0.666434 0.017389 0.137537 0.225396
H53   H     H_    0.653314 0.124186 0.211942 0.182852
C78   C     C_3   0.589854 0.184057 0.134877 -0.857074
H54   H     H_    0.573066 0.307918 0.157831 0.230230
H55   H     H_    0.561179 0.068319 0.146393 0.231404
H56   H     H_    0.587467 0.202483 0.082119 0.228431
O25   O     O_3   0.281648 0.797611 0.667083 -0.526429
C79   C     C_3   0.337862 0.715200 0.658986 0.121148
H57   H     H_    0.339182 0.578629 0.680732 0.099525
H58   H     H_    0.375882 0.791512 0.681820 0.063678
C80   C     C_3   0.351753 0.697971 0.588435 -0.276823
H59   H     H_    0.349243 0.830173 0.564086 0.176651
H60   H     H_    0.397890 0.649939 0.587035 0.188353
C81   C     C_3   0.312579 0.564743 0.550793 -0.728518
H61   H     H_    0.312861 0.435613 0.576730 0.242234
H62   H     H_    0.330674 0.537204 0.503904 0.194650
H63   H     H_    0.267295 0.619114 0.542778 0.240367
O26   O     O_3   0.718497 0.297463 0.333538 -0.527253
C82   C     C_3   0.662510 0.215103 0.342642 0.121011
H64   H     H_    0.661048 0.078011 0.321256 0.100287
H65   H     H_    0.624201 0.290892 0.320107 0.064181
C83   C     C_3   0.649535 0.199375 0.413528 -0.278028
H66   H     H_    0.652222 0.332286 0.437466 0.175121
H67   H     H_    0.603505 0.151337 0.415793 0.188950
C84   C     C_3   0.689251 0.066798 0.450984 -0.728859
H68   H     H_    0.688168 0.936252 0.425802 0.241487
H69   H     H_    0.672297 0.042467 0.498645 0.194555
H70   H     H_    0.734712 0.120256 0.457520 0.240458
N3    N     N_2   0.114745 0.143817 0.700685 -0.538664
H71   H     H_    0.085318 0.229079 0.721261 0.246225
C85   C     C_3   0.091921 0.061780 0.641179 -0.472867
H72   H     H_    0.044460 0.031153 0.644135 0.144198
H73   H     H_    0.113493 0.930282 0.632522 0.244777
H74   H     H_    0.095761 0.156496 0.600753 0.198285
N4    N     N_2   0.884845 0.647793 0.296256 -0.539847
H75   H     H_    0.913036 0.738836 0.276563 0.247412
C86   C     C_3   0.909097 0.566218 0.355236 -0.475518
H76   H     H_    0.956815 0.540210 0.351371 0.151759
H77   H     H_    0.888611 0.433239 0.364049 0.242822
H78   H     H_    0.905063 0.659747 0.395941 0.198806
N5    N     N_2   0.226430 0.368468 0.641045 -0.559322
H79   H     H_    0.245262 0.459016 0.673454 0.282615
C87   C     C_3   0.174623 0.448535 0.607782 -0.516196
H80   H     H_    0.164416 0.382068 0.561183 0.194971
H81   H     H_    0.182925 0.593907 0.598083 0.227639
H82   H     H_    0.135883 0.443205 0.637127 0.193576
N6    N     N_2   0.773523 0.867437 0.358298 -0.558284
H83   H     H_    0.753947 0.957751 0.326296 0.282052
C88   C     C_3   0.825537 0.948567 0.390626 -0.513096
H84   H     H_    0.836325 0.883301 0.437301 0.196188
H85   H     H_    0.817168 0.094074 0.400032 0.229139
H86   H     H_    0.863873 0.943086 0.360733 0.193813
N7    N     N_2   0.231131 0.374944 0.834503 -0.523703
H87   H     H_    0.235337 0.484452 0.805176 0.324335
C89   C     C_3   0.228390 0.406035 0.902822 -0.511829
H88   H     H_    0.220318 0.551269 0.912400 0.212093
H89   H     H_    0.270114 0.365388 0.929519 0.198596
H90   H     H_    0.191540 0.328525 0.921067 0.206091
N8    N     N_2   0.766945 0.869136 0.162582 -0.525823
H91   H     H_    0.761737 0.980119 0.190854 0.324099
C90   C     C_3   0.767025 0.896924 0.093841 -0.505075
H92   H     H_    0.779986 0.038103 0.083382 0.205757
H93   H     H_    0.722842 0.870465 0.070000 0.196278
H94   H     H_    0.799139 0.804806 0.073334 0.205872
N9    N     N_2   0.933009 0.225493 0.791831 -0.532907
H95   H     H_    0.955652 0.302660 0.826237 0.272309
C91   C     C_3   0.969238 0.099251 0.758862 -0.593250
H96   H     H_    0.009109 0.063797 0.789694 0.188049
H97   H     H_    0.982761 0.164771 0.714558 0.203167
H98   H     H_    0.945214 0.972165 0.745379 0.206199
N10   N     N_2   0.063975 0.682506 0.212572 -0.530714
H99   H     H_    0.038220 0.753133 0.178735 0.264362
C92   C     C_3   0.034492 0.525012 0.236333 -0.595861
H100  H     H_    0.987201 0.555040 0.240181 0.200940
H101  H     H_    0.054291 0.486402 0.284286 0.208864
H102  H     H_    0.038310 0.409015 0.203139 0.200454
O27   O     O_3   0.205194 0.056411 0.615980 -0.542573
C93   C     C_3   0.232980 0.075191 0.557472 0.163691
H103  H     H_    0.266182 0.967795 0.554720 0.139532
H104  H     H_    0.255916 0.205139 0.551822 0.137566
C94   C     C_3   0.187868 0.048588 0.500714 -0.365604
H105  H     H_    0.177965 0.901865 0.495154 0.177727
H106  H     H_    0.145888 0.117995 0.509242 0.195139
C95   C     C_3   0.210716 0.123971 0.438923 -0.841291
H107  H     H_    0.217520 0.272750 0.443096 0.238069
H108  H     H_    0.177974 0.098154 0.398282 0.239873
H109  H     H_    0.253131 0.058583 0.428806 0.234472
O28   O     O_3   0.795890 0.555471 0.382666 -0.542292
C96   C     C_3   0.768577 0.572949 0.441516 0.167829
H110  H     H_    0.736973 0.461582 0.445247 0.138799
H111  H     H_    0.743679 0.699770 0.446606 0.136827
C97   C     C_3   0.814504 0.553849 0.497994 -0.365446
H112  H     H_    0.824074 0.407885 0.506452 0.174674
H113  H     H_    0.856591 0.619080 0.487352 0.196760
C98   C     C_3   0.792953 0.640843 0.558588 -0.844137
H114  H     H_    0.787033 0.789193 0.551563 0.238793
H115  H     H_    0.826002 0.619014 0.599266 0.237887
H116  H     H_    0.750270 0.580603 0.570551 0.233635
O29   O     O_3   0.692084 0.963051 0.913938 -0.554956
C99   C     C_3   0.660033 0.111427 0.937531 0.094309
H117  H     H_    0.643306 0.069490 0.984027 0.133617
H118  H     H_    0.620338 0.144922 0.905783 0.106931
C100  C     C_3   0.698909 0.280573 0.949456 -0.334734
H119  H     H_    0.733661 0.250974 0.987788 0.190826
H120  H     H_    0.721035 0.318090 0.905574 0.190161
C101  C     C_3   0.662324 0.443472 0.968409 -0.841669
H121  H     H_    0.632345 0.486878 0.927227 0.243945
H122  H     H_    0.691913 0.558185 0.982572 0.248278
H123  H     H_    0.635494 0.409751 0.009212 0.219320
O30   O     O_3   0.309208 0.486749 0.083830 -0.554993
C102  C     C_3   0.341596 0.635148 0.060994 0.094725
H124  H     H_    0.357096 0.595700 0.013674 0.136683
H125  H     H_    0.382022 0.664002 0.092142 0.105651
C103  C     C_3   0.303585 0.807186 0.051629 -0.337203
H126  H     H_    0.266933 0.780912 0.015129 0.192613
H127  H     H_    0.283998 0.845143 0.097032 0.188954
C104  C     C_3   0.340367 0.967423 0.030825 -0.841979
H128  H     H_    0.373226 0.005954 0.070037 0.242934
H129  H     H_    0.311346 0.085628 0.019540 0.249640
H130  H     H_    0.363957 0.933176 0.987640 0.219493

loop_
_geom_bond_atom_site_label_1
_geom_bond_atom_site_label_2
_ccdc_geom_bond_type
O17   V3    S    
O15   C63   A    
O25   C79   S    
C76   H51   S    
C66   H26   S    
N2    C66   S    
C80   H59   S    
C94   H105  S    
O1    C3    A    
C74   H45   S    
O7    V1    S    
O2    C4    A    
C69   H33   S    
O11   C63   A    
C2    O7    A    
C78   H54   S    
C27   C29   A    
C17   H1    S    
C89   H88   S    
C81   H61   S    
O5    C3    A    
C68   H31   S    
C11   C17   A    
C10   C12   A    
C71   H38   S    
C7    C9    A    
C48   C50   S    
C49   C51   S    
C1    C44   S    
C84   H69   S    
O11   V4    S    
C98   H114  S    
C72   H42   S    
C58   C60   T    
C96   C97   S    
C73   H44   S    
C90   H93   S    
O20   V3    S    
C49   C55   S    
C12   C18   A    
C97   H113  S    
N2    H25   S    
C27   H9    S    
O16   C64   A    
C91   H98   S    
C37   H13   S    
C93   H103  S    
C39   O21   S    
O29   C99   S    
C87   H80   S    
C37   N7    S    
C16   C30   A    
C39   C41   S    
C103  C104  S    
C20   H4    S    
C54   N4    S    
C40   C42   S    
C77   C78   S    
C5    C7    A    
C31   H5    S    
C8    C61   S    
C41   H15   S    
C59   C64   S    
C32   C34   A    
C101  H121  S    
N4    C86   S    
C75   H49   S    
O14   C62   A    
C81   H62   S    
C88   H86   S    
C95   H108  S    
O27   C93   S    
C19   C21   A    
O18   V4    S    
C42   H16   S    
C60   C63   S    
C25   C35   A    
C37   C45   S    
C26   C36   A    
C61   O18   A    
C83   C84   S    
C47   H19   S    
C86   H78   S    
C53   H17   S    
C97   C98   S    
C33   C35   A    
C52   N6    S    
O14   V4    S    
O12   C64   A    
N5    H79   S    
O6    V2    S    
C102  H124  S    
C76   C77   S    
C77   H53   S    
C87   H81   S    
C79   H57   S    
C46   C54   S    
C73   C74   S    
C45   C53   S    
C14   C16   A    
C78   H55   S    
C7    C62   S    
C83   H67   S    
C91   H96   S    
C43   C55   T    
C96   H111  S    
C2    C43   S    
C91   H97   S    
O19   V4    S    
C34   C36   A    
O12   V3    S    
O16   V4    S    
C95   H109  S    
C28   H10   S    
C57   C59   T    
C88   H84   S    
C5    C15   A    
C40   O22   S    
C79   H58   S    
C6    C16   A    
N9    H95   S    
C71   H39   S    
C66   H28   S    
C90   H92   S    
C100  H120  S    
C102  H125  S    
C103  H126  S    
O5    V1    S    
C82   H65   S    
C97   H112  S    
N6    H83   S    
C38   C48   S    
C40   O24   S    
C69   H34   S    
C94   H106  S    
C21   C31   A    
O4    V2    S    
C85   H74   S    
C99   H118  S    
C84   H68   S    
N10   H99   S    
C75   H48   S    
C32   H6    S    
C68   C69   S    
C70   H36   S    
C47   C49   S    
C15   C29   A    
C98   H115  S    
N7    H87   S    
C101  H122  S    
C41   O25   S    
O6    C4    A    
C82   C83   S    
H12   C48   S    
C104  H130  S    
C100  C101  S    
N9    C91   S    
C95   H107  S    
O21   C67   S    
C50   C52   S    
C22   C32   A    
C65   H23   S    
O1    V2    S    
C46   C58   S    
C39   O23   S    
O2    V1    S    
C31   C33   A    
C45   C57   S    
O24   C76   S    
C44   C56   T    
O13   V3    S    
C48   H20   S    
C70   C71   S    
O4    C2    A    
O26   C82   S    
N7    C89   S    
C104  H128  S    
C8    C10   A    
N4    H75   S    
C9    C11   A    
C102  C103  S    
C77   H52   S    
N10   C92   S    
C87   H82   S    
C52   O28   S    
C84   H70   S    
C99   C100  S    
N8    C90   S    
C30   O30   S    
C24   C26   A    
C69   H35   S    
C37   C47   S    
C74   C75   S    
C92   H100  S    
C78   H56   S    
O3    V1    S    
C83   H66   S    
C23   C25   A    
C81   H63   S    
C35   H7    S    
C41   C49   S    
C89   H90   S    
C14   C24   A    
C36   H8    S    
O28   C96   S    
C29   O29   S    
C18   C20   A    
C9    N9    S    
C65   H22   S    
C74   H46   S    
C17   C19   A    
C42   C50   S    
C12   C14   A    
C19   H3    S    
C28   C30   A    
O3    C1    A    
C5    N1    S    
C6    N2    S    
C98   H116  S    
C88   H85   S    
C72   H40   S    
O13   C61   A    
C4    C33   S    
C13   C15   A    
C62   O17   A    
O15   V3    S    
C51   N5    S    
C51   C53   S    
C54   H18   S    
C93   C94   S    
C73   H43   S    
C38   H14   S    
C39   C45   S    
C104  H129  S    
C67   C68   S    
C66   H27   S    
C99   H117  S    
N8    H91   S    
C89   H89   S    
C51   O27   S    
N3    H71   S    
C25   C27   A    
O8    V2    S    
N1    H21   S    
C71   C72   S    
C90   H94   S    
C26   C28   A    
C72   H41   S    
C100  H119  S    
C10   N10   S    
C101  H123  S    
N1    C65   S    
C38   C46   S    
C21   C23   A    
C52   C54   S    
C93   H104  S    
O22   C70   S    
C65   H24   S    
C6    C8    A    
C11   C13   A    
C18   H2    S    
C85   H72   S    
N5    C87   S    
N3    C85   S    
C13   C23   A    
C92   H102  S    
C92   H101  S    
C86   H76   S    
C94   C95   S    
C50   C56   S    
C1    O8    A    
O30   C102  S    
C22   C24   A    
C79   C80   S    
C103  H127  S    
C82   H64   S    
O9    V2    S    
C76   H50   S    
C68   H32   S    
C70   H37   S    
O10   V1    S    
C40   C46   S    
C3    C34   S    
C42   O26   S    
C80   C81   S    
C85   H73   S    
C67   H29   S    
C38   N8    S    
N6    C88   S    
C67   H30   S    
C53   N3    S    
H11   C47   S    
O23   C73   S    
C96   H110  S    
C20   C22   A    
C75   H47   S    
C86   H77   S    
C80   H60   S    
