data_mof_unit_67955.cif
_audit_creation_date              2012-12-10T20:34:49-0500
_audit_creation_method            fapswitch 2.2
_symmetry_space_group_name_H-M    P1
_symmetry_Int_Tables_number       1
_space_group_crystal_system       triclinic
_cell_length_a                    10.616807
_cell_length_b                    10.685151
_cell_length_c                    9.898774
_cell_angle_alpha                 89.250059
_cell_angle_beta                  88.923295
_cell_angle_gamma                 90.61156
_cell_volume                      1122.57714949

loop_
_atom_site_label
_atom_site_type_symbol
_atom_type_description
_atom_site_fract_x
_atom_site_fract_y
_atom_site_fract_z
_atom_type_partial_charge
C1    C     C_R   0.500596 0.260450 0.500504 0.937077
C2    C     C_3   0.877715 0.488626 0.501131 -0.074232
C3    C     C_3   0.931642 0.620067 0.455896 0.263122
C4    C     C_3   0.926423 0.392604 0.396186 -0.499666
C5    C     C_R   0.415794 0.060921 0.578968 0.057241
C6    C     C_R   0.500519 0.128648 0.498348 -0.143978
C7    C     C_R   0.571888 0.068706 0.398655 -0.356519
C8    C     C_R   0.575794 0.937904 0.397278 0.516310
C9    C     C_R   0.500681 0.871576 0.493869 -0.263782
C10   C     C_R   0.415156 0.933675 0.576395 -0.010926
C11   C     C_3   0.383759 0.921790 0.723958 0.374262
C12   C     C_R   0.257933 0.492797 0.500850 0.918967
C13   C     C_3   0.385361 0.064175 0.726305 -0.503157
C14   C     C_R   0.471187 0.393424 0.074303 0.164126
C15   C     C_R   0.545295 0.599711 0.069434 -0.104032
C16   C     C_R   0.547659 0.598663 0.925707 -0.168287
C17   C     C_R   0.459287 0.397314 0.932536 0.122959
C18   C     C_3   0.326566 0.345501 0.949870 0.297176
C19   C     C_3   0.354082 0.322430 0.098178 -0.591314
C20   C     C_R   0.502089 0.739578 0.498810 0.968880
C21   C     C_R   0.741677 0.493535 0.499710 0.927899
C22   C     C_3   0.069008 0.453143 0.643435 -0.379305
C23   C     C_3   0.924950 0.443024 0.643528 0.351158
C24   C     C_3   0.075838 0.621004 0.461387 -0.600897
C25   C     C_3   0.072186 0.387909 0.399644 0.368745
C26   C     C_3   0.121090 0.488283 0.500977 -0.033135
H1    H     H_    0.115683 0.648837 0.360282 0.173111
H2    H     H_    0.627367 0.123943 0.326604 0.169131
H3    H     H_    0.579348 0.681433 0.121272 0.187434
H4    H     H_    0.110457 0.362721 0.675860 0.237483
H5    H     H_    0.373228 0.222709 0.122837 0.157884
H6    H     H_    0.110587 0.411975 0.297017 0.064141
H7    H     H_    0.883818 0.298498 0.416979 0.235017
N1    N     N_R   0.499150 0.499140 0.142800 -0.094484
N2    N     N_R   0.499150 0.499180 0.857150 -0.109064
O1    O     O_R   0.500020 0.316790 0.614690 -0.634297
O2    O     O_R   0.500000 0.316760 0.385350 -0.626991
O3    O     O_R   0.314800 0.500000 0.614670 -0.610211
O4    O     O_R   0.314790 0.499960 0.385330 -0.642827
O5    O     O_R   0.500000 0.683240 0.614650 -0.661315
O6    O     O_R   0.499980 0.683210 0.385310 -0.574873
O7    O     O_R   0.685210 0.500040 0.614670 -0.661953
O8    O     O_R   0.685200 0.500000 0.385330 -0.627042
Zn1   Zn    Zn3+2 0.500010 0.500020 0.653130 0.930735
Zn2   Zn    Zn3+2 0.499990 0.499980 0.346870 0.959332
H8    H     H_    0.098602 0.525020 0.716502 0.151730
H9    H     H_    0.897341 0.419125 0.292397 0.129176
H10   H     H_    0.910667 0.628687 0.346268 0.135733
O9    O     O_3   0.645308 0.872278 0.301042 -0.610310
C27   C     C_3   0.768026 0.922322 0.277523 0.156454
H11   H     H_    0.835451 0.843909 0.281585 0.196002
H12   H     H_    0.799505 0.990327 0.354584 0.129558
C28   C     C_3   0.778414 0.980013 0.136111 -0.947951
H13   H     H_    0.710361 0.057183 0.124611 0.252538
H14   H     H_    0.875219 0.017708 0.117788 0.219967
H15   H     H_    0.758315 0.907815 0.059466 0.259940
O10   O     O_3   0.259624 0.874389 0.744793 -0.618505
C29   C     C_3   0.257743 0.769860 0.833648 0.149116
H16   H     H_    0.333640 0.702506 0.809841 0.189652
H17   H     H_    0.167692 0.718828 0.819649 0.161099
C30   C     C_3   0.262519 0.810005 0.981023 -0.879520
H18   H     H_    0.183657 0.874257 0.004067 0.252765
H19   H     H_    0.253813 0.726218 0.048257 0.247550
H20   H     H_    0.353208 0.858074 0.001626 0.241924
H21   H     H_    0.460643 0.879006 0.783988 0.067721
H22   H     H_    0.290752 0.104555 0.745006 0.222699
H23   H     H_    0.463274 0.104022 0.786438 0.156700
H24   H     H_    0.584719 0.679107 0.870060 0.136921
O11   O     O_3   0.235660 0.440320 0.933557 -0.582449
C31   C     C_3   0.114826 0.395495 0.976039 0.106496
H25   H     H_    0.115784 0.329652 0.063745 0.110700
H26   H     H_    0.071253 0.343083 0.893692 0.150004
C32   C     C_3   0.032818 0.505571 0.016484 -0.908844
H27   H     H_    0.020202 0.570613 0.929894 0.237531
H28   H     H_    0.938666 0.471219 0.051682 0.201474
H29   H     H_    0.077319 0.557429 0.099883 0.256168
H30   H     H_    0.308330 0.259880 0.891614 0.064523
H31   H     H_    0.291811 0.370445 0.171360 0.234085
O12   O     O_3   0.888226 0.315536 0.667061 -0.583482
C33   C     C_3   0.813810 0.299452 0.786513 0.099650
H32   H     H_    0.722887 0.348303 0.779602 0.187675
H33   H     H_    0.863152 0.334143 0.876356 0.119676
C34   C     C_3   0.784053 0.161586 0.808131 -0.866330
H34   H     H_    0.872571 0.110093 0.825759 0.267861
H35   H     H_    0.720146 0.148872 0.897320 0.204604
H36   H     H_    0.736337 0.124221 0.718062 0.262505
H37   H     H_    0.889413 0.504383 0.725160 0.028595
H38   H     H_    0.111457 0.691648 0.533130 0.220944
O13   O     O_3   0.873571 0.728040 0.511673 -0.619384
C35   C     C_3   0.879824 0.737615 0.653496 0.122885
H39   H     H_    0.967983 0.700946 0.695931 0.122382
H40   H     H_    0.797120 0.689535 0.701351 0.159461
C36   C     C_3   0.871724 0.874264 0.691270 -0.845707
H41   H     H_    0.786513 0.916143 0.646501 0.251267
H42   H     H_    0.865611 0.881989 0.802966 0.206948
H43   H     H_    0.956938 0.925770 0.653687 0.279206
O14   O     O_3   0.111310 0.267271 0.442827 -0.587612
C37   C     C_3   0.110897 0.181087 0.335625 0.066601
H44   H     H_    0.203275 0.185106 0.281914 0.150532
H45   H     H_    0.034802 0.198638 0.261858 0.114885
C38   C     C_3   0.091607 0.049641 0.393459 -0.769478
H46   H     H_    0.000039 0.043780 0.449028 0.256091
H47   H     H_    0.091508 0.980638 0.310512 0.195268
H48   H     H_    0.168207 0.026475 0.463982 0.274406

loop_
_geom_bond_atom_site_label_1
_geom_bond_atom_site_label_2
_ccdc_geom_bond_type
C36   H41   S    
C19   H31   S    
C32   H27   S    
C24   H1    S    
C19   H5    S    
C18   O11   S    
C4    C25   S    
C35   H39   S    
C7    C8    A    
C28   H13   S    
C38   H46   S    
C24   C26   S    
C16   N2    A    
C5    C6    A    
C20   O5    A    
C29   H17   S    
C15   C16   A    
O14   C37   S    
C3    H10   S    
C18   C19   S    
C30   H19   S    
C21   O8    A    
C8    C9    A    
C27   H12   S    
C31   H25   S    
C16   H24   S    
C9    C10   A    
C15   N1    A    
C5    C13   S    
C1    O2    A    
O4    Zn2   S    
C29   C30   S    
C36   H42   S    
C23   H37   S    
C32   H28   S    
C14   C17   A    
C3    C24   S    
C30   H18   S    
O7    Zn1   S    
C31   C32   S    
C33   C34   S    
C20   O6    A    
C15   H3    S    
C13   H22   S    
C28   H14   S    
C27   C28   S    
C1    C6    S    
C33   H33   S    
C27   H11   S    
C29   H16   S    
C7    H2    S    
O12   C33   S    
C12   C26   S    
C30   H20   S    
C2    C4    S    
O3    Zn1   S    
O8    Zn2   S    
C9    C20   S    
C35   H40   S    
C34   H34   S    
C2    C21   S    
C17   C18   S    
N1    Zn2   S    
N2    Zn1   S    
C24   H38   S    
C25   O14   S    
C34   H35   S    
O9    C27   S    
C36   H43   S    
C37   H45   S    
C32   H29   S    
O1    Zn1   S    
O2    Zn2   S    
C35   C36   S    
C13   H23   S    
C28   H15   S    
C4    H7    S    
C22   H4    S    
C22   H8    S    
C14   C19   S    
C33   H32   S    
C14   N1    A    
C6    C7    A    
C38   H48   S    
C37   C38   S    
C3    O13   S    
C12   O4    A    
C2    C3    S    
C25   C26   S    
C5    C10   A    
C11   C13   S    
O10   C29   S    
C25   H6    S    
C18   H30   S    
C12   O3    A    
O11   C31   S    
C10   C11   S    
C21   O7    A    
O5    Zn1   S    
C34   H36   S    
C38   H47   S    
C37   H44   S    
C22   C26   S    
C2    C23   S    
O6    Zn2   S    
C22   C23   S    
C31   H26   S    
C17   N2    A    
C23   O12   S    
O13   C35   S    
C11   O10   S    
C8    O9    S    
C11   H21   S    
C1    O1    A    
C4    H9    S    
