data_mof_unit_11900.cif
_audit_creation_date              2012-12-10T18:00:15-0500
_audit_creation_method            fapswitch 2.2
_symmetry_space_group_name_H-M    P1
_symmetry_Int_Tables_number       1
_space_group_crystal_system       triclinic
_cell_length_a                    10.77145
_cell_length_b                    9.532332
_cell_length_c                    10.653932
_cell_angle_alpha                 89.451676
_cell_angle_beta                  90.208043
_cell_angle_gamma                 89.978531
_cell_volume                      1093.85677979

loop_
_atom_site_label
_atom_site_type_symbol
_atom_type_description
_atom_site_fract_x
_atom_site_fract_y
_atom_site_fract_z
_atom_type_partial_charge
C1    C     C_R   0.871409 0.499844 0.500146 -0.259449
C2    C     C_R   0.128591 0.500157 0.499854 -0.259449
C3    C     C_R   0.262417 0.500048 0.499697 0.906972
C4    C     C_R   0.737583 0.499952 0.500302 0.906972
C5    C     C_R   0.499168 0.500812 0.259423 0.911234
C6    C     C_R   0.500831 0.499188 0.740576 0.911234
C7    C     C_3   0.487223 0.632574 0.037519 0.295951
C8    C     C_3   0.512776 0.367426 0.962481 0.295951
C9    C     C_3   0.595009 0.576825 0.957957 0.273322
C10   C     C_3   0.404990 0.423175 0.042043 0.273323
C11   C     C_3   0.392308 0.553471 0.955274 -0.267745
C12   C     C_3   0.607691 0.446529 0.044726 -0.267746
C13   C     C_3   0.501094 0.497409 0.877040 -0.237866
C14   C     C_3   0.498905 0.502591 0.122960 -0.237866
C15   C     C_R   0.419405 0.075197 0.425537 0.045241
C16   C     C_R   0.580595 0.924803 0.574463 0.045241
C17   C     C_R   0.580665 0.073513 0.574353 0.053902
C18   C     C_R   0.419335 0.926487 0.425648 0.053902
C19   C     C_R   0.065304 0.434461 0.599479 0.209673
C20   C     C_R   0.934697 0.565538 0.400520 0.209673
C21   C     C_R   0.935806 0.434112 0.599548 0.222002
C22   C     C_R   0.064194 0.565888 0.400451 0.222001
Cu1   Cu    Cu3+1 0.500000 0.640660 0.500000 1.044760
Cu2   Cu    Cu3+1 0.500000 0.359340 0.500000 1.044760
H1    H     H_    0.354848 0.131777 0.365760 0.170027
H2    H     H_    0.645152 0.868223 0.634240 0.170027
H3    H     H_    0.645356 0.128743 0.633912 0.182094
H4    H     H_    0.354643 0.871257 0.366089 0.182094
H5    H     H_    0.304183 0.596893 0.916961 0.232552
H6    H     H_    0.695816 0.403107 0.083039 0.232552
N1    N     N_R   0.500000 0.852070 0.500000 -0.189684
N2    N     N_R   0.500000 0.147930 0.500000 -0.189684
O1    O     O_R   0.319640 0.618740 0.499990 -0.575330
O2    O     O_R   0.680360 0.381260 0.500010 -0.575329
O3    O     O_R   0.680360 0.618740 0.500010 -0.563142
O4    O     O_R   0.319640 0.381260 0.499990 -0.563142
O5    O     O_R   0.499970 0.618770 0.316850 -0.545429
O6    O     O_R   0.500030 0.381230 0.683150 -0.545429
O7    O     O_R   0.500030 0.618770 0.683150 -0.577965
O8    O     O_R   0.499970 0.381230 0.316850 -0.577965
Br1   Br    Br    0.466889 0.826183 0.087542 -0.315392
Br2   Br    Br    0.533109 0.173816 0.912458 -0.315392
Br3   Br    Br    0.732935 0.687814 0.895872 -0.316569
Br4   Br    Br    0.267064 0.312186 0.104128 -0.316569
Br5   Br    Br    0.155639 0.351113 0.738545 -0.337637
Br6   Br    Br    0.844361 0.648888 0.261455 -0.337637
Br7   Br    Br    0.847184 0.348930 0.738130 -0.361524
Br8   Br    Br    0.152816 0.651070 0.261870 -0.361525

loop_
_geom_bond_atom_site_label_1
_geom_bond_atom_site_label_2
_ccdc_geom_bond_type
C2    C22   A    
C15   C18   A    
C22   Br8   S    
Cu1   Cu2   S    
Cu2   N2    S    
C1    C21   A    
C8    C13   S    
C5    O5    A    
Cu2   O6    S    
C20   C22   A    
C8    C12   S    
C1    C4    S    
C12   H6    S    
C19   Br5   S    
C2    C3    S    
C4    O3    A    
C15   N2    A    
C16   N1    A    
C7    C11   S    
C11   C13   S    
C5    C14   S    
Cu2   O4    S    
C3    O4    A    
Cu1   O7    S    
C19   C21   A    
C8    Br2   S    
Cu1   O3    S    
C7    Br1   S    
C16   H2    S    
C9    C12   S    
C4    O2    A    
C15   H1    S    
C9    Br3   S    
C10   C11   S    
C3    O1    A    
C10   Br4   S    
C17   H3    S    
C20   Br6   S    
C18   H4    S    
C11   H5    S    
C8    C10   S    
C10   C14   S    
C5    O8    A    
C7    C9    S    
C17   N2    A    
C9    C13   S    
C6    O7    A    
Cu2   O8    S    
C1    C20   A    
C18   N1    A    
C21   Br7   S    
C2    C19   A    
Cu1   O5    S    
C6    O6    A    
C7    C14   S    
Cu2   O2    S    
Cu1   O1    S    
C12   C14   S    
C16   C17   A    
C6    C13   S    
Cu1   N1    S    
