data_mof_unit_38512.cif
_audit_creation_date              2012-10-26T19:40:40-0400
_audit_creation_method            fapswitch 2.2
_symmetry_space_group_name_H-M    P1
_symmetry_Int_Tables_number       1
_space_group_crystal_system       triclinic
_cell_length_a                    9.739685
_cell_length_b                    10.947237
_cell_length_c                    13.32346
_cell_angle_alpha                 89.781292
_cell_angle_beta                  72.919715
_cell_angle_gamma                 89.041315
_cell_volume                      1357.73548298

loop_
_atom_site_label
_atom_site_type_symbol
_atom_type_description
_atom_site_fract_x
_atom_site_fract_y
_atom_site_fract_z
_atom_type_partial_charge
C1    C     C_R   0.501366 0.734242 0.493510 0.538193
C2    C     C_R   0.372829 0.495777 0.816945 0.022778
C3    C     C_2   0.615782 0.063793 0.476091 0.133259
C4    C     C_R   0.422504 0.497476 0.700616 0.618554
C5    C     C_2   0.497430 0.133644 0.519717 0.316123
C6    C     C_2   0.609873 0.931309 0.492749 -0.035147
C7    C     C_2   0.505737 0.865512 0.473162 0.259559
C8    C     C_2   0.046495 0.548868 0.573947 0.125622
C9    C     C_2   0.896529 0.568413 0.562578 0.437537
C10   C     C_R   0.500003 0.265576 0.503303 0.546611
C11   C     C_R   0.576927 0.496192 0.299899 0.529213
C12   C     C_R   0.423366 0.467577 0.984537 0.019408
C13   C     C_R   0.752362 0.338925 0.043466 0.243685
C14   C     C_R   0.618809 0.468838 0.187377 -0.054666
C15   C     C_R   0.245085 0.560973 0.868902 0.262680
C16   C     C_R   0.195611 0.561836 0.979335 0.113836
C17   C     C_R   0.283551 0.513756 0.037485 0.073558
C18   C     C_R   0.455539 0.438834 0.876554 -0.008683
C19   C     C_R   0.529802 0.443543 0.036189 0.022185
C20   C     C_R   0.649707 0.366034 0.988827 0.023295
C21   C     C_R   0.663091 0.318092 0.888944 -0.113978
C22   C     C_R   0.566380 0.351446 0.833762 0.099539
C23   C     C_R   0.523377 0.500507 0.131554 -0.107177
C24   C     C_R   0.735537 0.391185 0.141950 -0.081278
Cu1   Cu    Cu3+1 0.361370 0.499980 0.499980 1.029617
Cu2   Cu    Cu3+1 0.638630 0.500020 0.500020 1.015784
H1    H     H_    0.809269 0.364865 0.185643 0.142143
H2    H     H_    0.859288 0.326671 0.537206 0.231166
H3    H     H_    0.890265 0.357083 0.408449 0.271185
H4    H     H_    0.837945 0.191961 0.969032 0.322805
H5    H     H_    0.090677 0.671497 0.854909 0.357578
H6    H     H_    0.136961 0.440292 0.163660 0.251640
H7    H     H_    0.189401 0.583232 0.183448 0.248096
H8    H     H_    0.067637 0.684323 0.079938 0.234829
H9    H     H_    0.993401 0.545087 0.078240 0.250047
H10   H     H_    0.675889 0.288996 0.689669 0.238578
H11   H     H_    0.551014 0.193202 0.760704 0.234481
H12   H     H_    0.694428 0.888168 0.519155 0.120135
H13   H     H_    0.827960 0.048312 0.391665 0.233286
H14   H     H_    0.730787 0.147462 0.343431 0.231661
H15   H     H_    0.065408 0.577508 0.646427 0.115821
H16   H     H_    0.749388 0.255463 0.850779 0.116656
H17   H     H_    0.444082 0.570770 0.164586 0.166986
H18   H     H_    0.303773 0.145553 0.616879 0.334672
H19   H     H_    0.347131 0.858851 0.411309 0.341308
H20   H     H_    0.206690 0.445859 0.362468 0.377972
H21   H     H_    0.862270 0.702817 0.661213 0.292142
N1    N     N_2   0.152660 0.501340 0.501130 -0.081036
N2    N     N_2   0.846520 0.501370 0.501160 -0.106191
N3    N     N_3   0.910724 0.386309 0.477130 -0.489683
N4    N     N_3   0.224755 0.498373 0.148945 -0.635598
N5    N     N_3   0.056088 0.612518 0.031738 -0.638012
N6    N     N_3   0.571456 0.284872 0.740318 -0.608890
N7    N     N_3   0.747879 0.116200 0.413138 -0.648468
O1    O     O_R   0.382960 0.678040 0.499980 -0.494993
O2    O     O_3   0.409209 0.921402 0.428238 -0.664755
O3    O     O_3   0.137088 0.506390 0.404282 -0.601037
O4    O     O_3   0.808584 0.659485 0.619809 -0.679781
O5    O     O_3   0.868065 0.260321 0.005563 -0.695371
O6    O     O_3   0.170284 0.621656 0.809428 -0.692223
O7    O     O_R   0.617100 0.678080 0.500020 -0.474575
O8    O     O_R   0.325800 0.499940 0.650950 -0.466570
O9    O     O_R   0.559930 0.499980 0.650990 -0.455444
O10   O     O_R   0.382900 0.321920 0.499980 -0.510636
O11   O     O_R   0.617040 0.321960 0.500020 -0.517908
O12   O     O_R   0.440070 0.500020 0.349010 -0.501534
O13   O     O_R   0.674200 0.500060 0.349050 -0.511011
O14   O     O_3   0.375740 0.080634 0.585853 -0.669575

loop_
_geom_bond_atom_site_label_1
_geom_bond_atom_site_label_2
_ccdc_geom_bond_type
H5    O6    S    
C12   C17   A    
C2    C4    S    
Cu2   O9    S    
C8    N1    D    
H6    N4    S    
C6    C7    D    
C13   O5    S    
C2    C18   A    
C15   O6    S    
H8    N5    S    
C19   C20   A    
C4    O9    A    
C11   O12   A    
Cu1   O8    S    
C24   H1    S    
H11   N6    S    
H4    O5    S    
C17   N4    S    
C6    H12   S    
Cu1   O1    S    
C1    O1    A    
C23   H17   S    
C5    C10   S    
C18   C22   A    
C21   C22   A    
C20   C21   A    
H21   O4    S    
C2    C15   A    
Cu1   N1    S    
C7    O2    S    
C5    O14   S    
Cu2   O13   S    
C12   C19   A    
C11   C14   S    
C14   C23   A    
C11   O13   A    
C9    O4    S    
C22   N6    S    
H14   N7    S    
H3    N3    S    
H20   O3    S    
C3    N7    S    
H18   O14   S    
H13   N7    S    
H7    N4    S    
C14   C24   A    
C21   H16   S    
C4    O8    A    
N1    O3    S    
C9    N2    D    
C8    H15   S    
C13   C24   A    
C16   N5    S    
N2    N3    S    
C10   O11   A    
C12   C18   A    
H9    N5    S    
C19   C23   A    
C8    C9    S    
H10   N6    S    
C13   C20   A    
Cu1   Cu2   S    
C1    C7    S    
Cu2   O11   S    
H2    N3    S    
Cu2   O7    S    
C3    C6    S    
C10   O10   A    
Cu1   O12   S    
C15   C16   A    
H19   O2    S    
C1    O7    A    
C16   C17   A    
C3    C5    D    
Cu1   O10   S    
Cu2   N2    S    
