data_mof_unit_26875.cif
_audit_creation_date              2012-10-26T18:44:32-0400
_audit_creation_method            fapswitch 2.2
_symmetry_space_group_name_H-M    P1
_symmetry_Int_Tables_number       1
_space_group_crystal_system       triclinic
_cell_length_a                    12.975265
_cell_length_b                    15.999261
_cell_length_c                    14.753629
_cell_angle_alpha                 88.992522
_cell_angle_beta                  96.479085
_cell_angle_gamma                 90.545383
_cell_volume                      3042.65490916

loop_
_atom_site_label
_atom_site_type_symbol
_atom_type_description
_atom_site_fract_x
_atom_site_fract_y
_atom_site_fract_z
_atom_type_partial_charge
C1    C     C_R   0.499950 0.340960 0.500812 0.548178
C2    C     C_R   0.429698 0.450729 0.043743 -0.135766
C3    C     C_R   0.500610 0.494752 0.902910 -0.023084
C4    C     C_R   0.505619 0.496879 0.097766 -0.020512
C5    C     C_R   0.426197 0.448382 0.947241 -0.007710
C6    C     C_R   0.581893 0.540932 0.053497 -0.003285
C7    C     C_1   0.499995 0.498181 0.802664 0.113831
C8    C     C_1   0.502186 0.498849 0.197581 0.116320
C9    C     C_R   0.300108 0.499604 0.482887 0.543911
C10   C     C_R   0.699929 0.500849 0.517047 0.544033
C11   C     C_R   0.812459 0.503981 0.527270 -0.018141
C12   C     C_R   0.499445 0.659020 0.499276 0.549416
C13   C     C_R   0.187673 0.496068 0.472600 -0.017665
C14   C     C_R   0.026193 0.446948 0.392028 -0.019564
C15   C     C_R   0.974462 0.550058 0.609728 -0.016066
C16   C     C_R   0.133575 0.457095 0.397569 -0.137206
C17   C     C_R   0.866807 0.541396 0.603204 -0.137799
C18   C     C_R   0.135307 0.527894 0.541482 -0.136870
C19   C     C_R   0.864804 0.472998 0.457858 -0.149656
C20   C     C_R   0.028079 0.518456 0.539074 0.027402
C21   C     C_R   0.972651 0.478173 0.462931 0.021121
C22   C     C_R   0.494659 0.952952 0.583325 -0.021677
C23   C     C_R   0.493472 0.958724 0.416716 -0.021661
C24   C     C_R   0.495179 0.046789 0.418764 -0.021749
C25   C     C_R   0.493864 0.912463 0.499073 -0.007382
C26   C     C_R   0.496507 0.087394 0.503069 -0.007498
C27   C     C_R   0.973249 0.402523 0.312121 0.014482
C28   C     C_R   0.978109 0.434784 0.223500 -0.105732
C29   C     C_R   0.926670 0.393919 0.148245 -0.112145
C30   C     C_R   0.871098 0.320145 0.160803 -0.106924
C31   C     C_R   0.867619 0.286717 0.248575 -0.113807
C32   C     C_R   0.919027 0.327352 0.323998 -0.102858
C33   C     C_R   0.027140 0.596060 0.688650 0.018201
C34   C     C_R   0.496181 0.041131 0.585468 -0.021229
C35   C     C_R   0.002405 0.680071 0.701293 -0.098244
C36   C     C_R   0.053346 0.724572 0.774092 -0.115302
C37   C     C_R   0.129141 0.685600 0.834818 -0.110931
C38   C     C_R   0.153463 0.601858 0.823326 -0.111742
C39   C     C_R   0.101971 0.556828 0.751124 -0.101839
C40   C     C_R   0.497686 0.084572 0.674006 0.040474
C41   C     C_R   0.584699 0.132119 0.707998 -0.093290
C42   C     C_R   0.588112 0.169633 0.793197 -0.117582
C43   C     C_R   0.505208 0.159444 0.845278 -0.107848
C44   C     C_R   0.418200 0.112550 0.811778 -0.113813
C45   C     C_1   0.495270 0.822615 0.497661 -0.048774
C46   C     C_R   0.414036 0.075591 0.726256 -0.090889
C47   C     C_R   0.489639 0.914849 0.328340 0.041435
C48   C     C_R   0.572345 0.864161 0.310085 -0.094427
C49   C     C_R   0.567550 0.821359 0.228021 -0.107839
C50   C     C_R   0.481093 0.829657 0.162990 -0.098462
C51   C     C_R   0.398837 0.880597 0.180290 -0.108815
C52   C     C_R   0.402772 0.922884 0.262802 -0.081758
C53   C     C_R   0.496090 0.902626 0.669345 0.040965
C54   C     C_R   0.584222 0.902936 0.734066 -0.080038
C55   C     C_R   0.585579 0.854961 0.814383 -0.109446
C56   C     C_1   0.498095 0.177250 0.504240 -0.052305
C57   C     C_R   0.499241 0.806298 0.830491 -0.100862
C58   C     C_R   0.411263 0.805683 0.766401 -0.105137
C59   C     C_R   0.409494 0.853713 0.686124 -0.093511
C60   C     C_R   0.499325 0.096679 0.333082 0.041600
C61   C     C_R   0.588211 0.095050 0.286912 -0.084167
C62   C     C_R   0.592779 0.143057 0.207285 -0.112122
C63   C     C_R   0.508866 0.193006 0.173348 -0.097795
C64   C     C_R   0.420101 0.194833 0.218847 -0.103782
C65   C     C_R   0.415120 0.146780 0.298377 -0.092622
C66   C     C_R   0.667660 0.588654 0.105283 0.029118
C67   C     C_1   0.499142 0.252141 0.502987 -0.026345
C68   C     C_R   0.727400 0.552638 0.181403 -0.073627
C69   C     C_R   0.809201 0.597538 0.228121 -0.105072
C70   C     C_R   0.834266 0.677600 0.198032 -0.114083
C71   C     C_R   0.777087 0.713296 0.121461 -0.128670
C72   C     C_R   0.693664 0.669531 0.075737 -0.109711
C73   C     C_R   0.343467 0.397515 0.895117 0.021599
C74   C     C_R   0.366648 0.344208 0.825328 -0.078196
C75   C     C_R   0.288106 0.298088 0.775755 -0.103579
C76   C     C_R   0.186115 0.302735 0.796792 -0.115048
C77   C     C_R   0.162454 0.353533 0.867482 -0.123414
C78   C     C_1   0.497217 0.747779 0.497736 -0.020616
C79   C     C_R   0.240465 0.400726 0.916368 -0.112820
C80   C     C_R   0.577505 0.539589 0.957026 -0.133544
Cu1   Cu    Cu3+1 0.500030 0.500000 0.589220 0.977912
Cu2   Cu    Cu3+1 0.499970 0.500000 0.410780 0.980734
H1    H     H_    0.820006 0.445931 0.399172 0.134882
H2    H     H_    0.944638 0.711321 0.654116 0.103242
H3    H     H_    0.034498 0.789436 0.783094 0.100132
H4    H     H_    0.169143 0.720315 0.890698 0.101030
H5    H     H_    0.212689 0.572192 0.870147 0.116644
H6    H     H_    0.121639 0.492060 0.742657 0.128572
H7    H     H_    0.650224 0.139218 0.669000 0.102678
H8    H     H_    0.655350 0.206126 0.819139 0.102948
H9    H     H_    0.508128 0.188261 0.911372 0.106422
H10   H     H_    0.353800 0.105098 0.851966 0.109931
H11   H     H_    0.346217 0.039331 0.701089 0.102222
H12   H     H_    0.179687 0.560513 0.596582 0.139002
H13   H     H_    0.640101 0.857455 0.359658 0.102962
H14   H     H_    0.630810 0.781599 0.215203 0.129556
H15   H     H_    0.477795 0.796512 0.099366 0.103966
H16   H     H_    0.331788 0.886960 0.129984 0.101030
H17   H     H_    0.338114 0.961484 0.275874 0.102205
H18   H     H_    0.651756 0.940048 0.722086 0.101675
H19   H     H_    0.653666 0.855332 0.864059 0.098552
H20   H     H_    0.500523 0.769061 0.892586 0.097765
H21   H     H_    0.344446 0.767973 0.778910 0.113256
H22   H     H_    0.340840 0.852867 0.637015 0.103529
H23   H     H_    0.824984 0.566306 0.656233 0.130532
H24   H     H_    0.653954 0.057003 0.312903 0.099836
H25   H     H_    0.661491 0.141729 0.172016 0.095340
H26   H     H_    0.512621 0.230302 0.111844 0.104601
H27   H     H_    0.355195 0.233562 0.192527 0.105378
H28   H     H_    0.345954 0.148665 0.333072 0.101676
H29   H     H_    0.711963 0.489459 0.203985 0.122402
H30   H     H_    0.854038 0.569966 0.287139 0.121568
H31   H     H_    0.898158 0.711893 0.233937 0.107325
H32   H     H_    0.796480 0.775412 0.098200 0.102680
H33   H     H_    0.649200 0.698975 0.017457 0.093109
H34   H     H_    0.175459 0.431896 0.344733 0.129060
H35   H     H_    0.445554 0.337555 0.809520 0.121028
H36   H     H_    0.306524 0.258254 0.721356 0.123814
H37   H     H_    0.125494 0.266749 0.758540 0.105348
H38   H     H_    0.083384 0.357052 0.883851 0.106729
H39   H     H_    0.219953 0.440731 0.969891 0.097801
H40   H     H_    0.635771 0.573329 0.923457 0.111049
H41   H     H_    0.372923 0.415410 0.077512 0.104916
H42   H     H_    0.020198 0.492274 0.212910 0.108408
H43   H     H_    0.929561 0.419639 0.080224 0.108526
H44   H     H_    0.831010 0.288744 0.102523 0.101306
H45   H     H_    0.825024 0.229349 0.258200 0.104128
H46   H     H_    0.915843 0.300792 0.391674 0.107041
N1    N     N_1   0.500030 0.499980 0.276710 -0.195268
N2    N     N_1   0.499970 0.500020 0.723290 -0.195929
O1    O     O_R   0.500050 0.380310 0.575330 -0.493323
O2    O     O_R   0.499950 0.619690 0.424670 -0.485026
O3    O     O_R   0.500000 0.380310 0.424640 -0.488561
O4    O     O_R   0.500000 0.619690 0.575360 -0.488323
O5    O     O_R   0.349020 0.499990 0.563110 -0.496095
O6    O     O_R   0.650980 0.500010 0.436890 -0.500737
O7    O     O_R   0.348970 0.499990 0.412410 -0.499889
O8    O     O_R   0.651030 0.500010 0.587590 -0.499323

loop_
_geom_bond_atom_site_label_1
_geom_bond_atom_site_label_2
_ccdc_geom_bond_type
C66   C68   A    
C30   H44   S    
C40   C41   A    
C48   H13   S    
C29   H43   S    
C41   C42   A    
C41   H7    S    
C35   C36   A    
C31   H45   S    
C4    C8    S    
C77   H38   S    
Cu1   Cu2   S    
C53   C59   A    
Cu1   O4    S    
C80   H40   S    
C53   C54   A    
C40   C46   A    
C57   H20   S    
C79   H39   S    
C72   H33   S    
C11   C19   A    
C29   C30   A    
C13   C18   A    
C34   C40   S    
C59   H22   S    
C14   C21   A    
C28   C29   A    
C19   C21   A    
C10   O6    A    
Cu2   O7    S    
C3    C7    S    
C30   C31   A    
C69   H30   S    
C1    O3    A    
Cu1   O1    S    
C73   C74   A    
C9    C13   S    
C7    N2    T    
C1    C67   S    
C9    O7    A    
C26   C34   A    
C66   C72   A    
C47   C48   A    
C68   C69   A    
C22   C25   A    
C12   C78   S    
C23   C24   A    
C45   C78   T    
C14   C27   S    
C61   C62   A    
C44   H10   S    
C51   H16   S    
C12   O4    A    
C5    C73   S    
C54   H18   S    
C15   C20   A    
C75   H36   S    
C39   H6    S    
C19   H1    S    
C3    C80   A    
C16   H34   S    
C44   C46   A    
Cu1   O5    S    
C22   C53   S    
C77   C79   A    
C70   H31   S    
Cu1   O8    S    
C22   C34   A    
C76   H37   S    
C23   C47   S    
C74   C75   A    
C51   C52   A    
C37   H4    S    
C76   C77   A    
C4    C6    A    
C62   H25   S    
C1    O1    A    
C58   C59   A    
C2    H41   S    
C43   H9    S    
C71   H32   S    
C26   C56   S    
C60   C61   A    
C42   H8    S    
C68   H29   S    
C2    C4    A    
C75   C76   A    
C37   C38   A    
C17   H23   S    
C6    C80   A    
C31   C32   A    
C24   C60   S    
C62   C63   A    
C50   C51   A    
C73   C79   A    
C33   C39   A    
Cu2   N1    S    
C61   H24   S    
C70   C71   A    
C9    O5    A    
C48   C49   A    
C60   C65   A    
C64   H27   S    
C55   C57   A    
C43   C44   A    
C18   H12   S    
C14   C16   A    
C2    C5    A    
C42   C43   A    
Cu2   O2    S    
C25   C45   S    
C8    N1    T    
C15   C17   A    
C74   H35   S    
C54   C55   A    
C36   C37   A    
C50   H15   S    
C12   O2    A    
C27   C32   A    
C24   C26   A    
C3    C5    A    
C11   C17   A    
C35   H2    S    
C28   H42   S    
C47   C52   A    
C36   H3    S    
C56   C67   T    
C55   H19   S    
C52   H17   S    
C38   H5    S    
C64   C65   A    
C32   H46   S    
Cu2   O3    S    
C71   C72   A    
C57   C58   A    
C38   C39   A    
C46   H11   S    
C33   C35   A    
C18   C20   A    
C23   C25   A    
C49   H14   S    
Cu2   O6    S    
C69   C70   A    
C65   H28   S    
C10   C11   S    
Cu1   N2    S    
C63   C64   A    
C6    C66   S    
C20   C21   A    
C49   C50   A    
C13   C16   A    
C27   C28   A    
C58   H21   S    
C10   O8    A    
C63   H26   S    
C15   C33   S    
