data_mof_unit_59621.cif
_audit_creation_date              2012-12-11T14:15:20-0500
_audit_creation_method            fapswitch 2.2
_symmetry_space_group_name_H-M    P1
_symmetry_Int_Tables_number       1
_space_group_crystal_system       triclinic
_cell_length_a                    11.134542
_cell_length_b                    12.728103
_cell_length_c                    23.52789
_cell_angle_alpha                 90.473608
_cell_angle_beta                  96.084926
_cell_angle_gamma                 68.705459
_cell_volume                      3087.60725413

loop_
_atom_site_label
_atom_site_type_symbol
_atom_type_description
_atom_site_fract_x
_atom_site_fract_y
_atom_site_fract_z
_atom_type_partial_charge
C1    C     C_R   0.150011 0.616579 0.428889 0.553383
C2    C     C_R   0.667030 0.555061 0.310200 -0.126961
C3    C     C_R   0.712472 0.727088 0.317195 -0.100731
C4    C     C_R   0.703751 0.736145 0.257352 0.021565
C5    C     C_R   0.691940 0.645379 0.224401 0.016451
C6    C     C_R   0.701636 0.648224 0.165452 -0.021384
C7    C     C_R   0.685919 0.842771 0.169786 -0.124006
C8    C     C_R   0.707920 0.832628 0.229399 -0.006849
C9    C     C_1   0.232447 0.163725 0.122264 0.061336
C10   C     C_2   0.167777 0.232965 0.225036 -0.010593
C11   C     C_2   0.167087 0.157264 0.265306 0.234006
C12   C     C_R   0.750824 0.603426 0.403648 0.551367
C13   C     C_1   0.139038 0.192551 0.322639 -0.008669
C14   C     C_1   0.203179 0.198499 0.168600 0.042668
C15   C     C_1   0.119398 0.228180 0.369755 0.013214
C16   C     C_1   0.166632 0.752196 0.124206 0.053339
C17   C     C_2   0.140508 0.695730 0.229210 -0.072198
C18   C     C_2   0.238251 0.675418 0.271274 -0.052579
C19   C     C_1   0.219820 0.652055 0.329091 -0.004005
C20   C     C_1   0.153896 0.725053 0.171632 0.016279
C21   C     C_1   0.195483 0.634494 0.376142 0.026286
C22   C     C_1   0.620141 0.763265 0.864054 0.055909
C23   C     C_R   0.101914 0.281416 0.423781 0.548569
C24   C     C_2   0.660338 0.743170 0.755925 -0.128414
C25   C     C_2   0.700236 0.641629 0.732961 -0.023615
C26   C     C_1   0.703103 0.634151 0.672461 -0.014753
C27   C     C_1   0.643599 0.754966 0.815402 0.010523
C28   C     C_1   0.714931 0.623927 0.622492 0.052103
C29   C     C_R   0.232926 0.141832 0.843701 -0.065161
C30   C     C_R   0.108451 0.205703 0.634464 -0.066461
C31   C     C_R   0.008731 0.154854 0.712106 0.189619
C32   C     C_R   0.000134 0.190187 0.654641 -0.037570
C33   C     C_R   0.226789 0.167990 0.667620 -0.093195
C34   C     C_R   0.146362 0.614962 0.592200 0.577881
C35   C     C_R   0.234794 0.142351 0.725135 -0.017394
C36   C     C_R   0.121386 0.146178 0.748974 -0.030677
C37   C     C_R   0.123178 0.144329 0.808647 -0.133448
C38   C     C_R   0.343779 0.143742 0.818319 -0.023582
C39   C     C_R   0.350128 0.128407 0.759930 0.203781
C40   C     C_R   0.120477 0.730269 0.858363 -0.017334
C41   C     C_R   0.177650 0.629925 0.653181 -0.003920
C42   C     C_R   0.309105 0.570082 0.744212 -0.062745
C43   C     C_R   0.297546 0.566251 0.684552 0.221726
C44   C     C_R   0.073982 0.698125 0.682285 -0.154342
C45   C     C_R   0.750827 0.601215 0.566281 0.562358
C46   C     C_R   0.085920 0.701534 0.741447 -0.034843
C47   C     C_R   0.203876 0.636144 0.773096 -0.028304
C48   C     C_R   0.214321 0.640894 0.832932 0.185176
C49   C     C_R   0.996807 0.782073 0.828186 -0.045711
C50   C     C_R   0.979653 0.766701 0.769535 -0.130830
C51   C     C_R   0.264960 0.110563 0.069171 0.564103
C52   C     C_R   0.601804 0.774343 0.080641 0.543826
C53   C     C_R   0.189251 0.788339 0.069888 0.554666
C54   C     C_R   0.247070 0.108017 0.904645 0.548167
C55   C     C_R   0.574787 0.776645 0.918721 0.542452
C56   C     C_R   0.099105 0.276046 0.583960 0.532565
C57   C     C_R   0.162396 0.783289 0.908859 0.545261
C58   C     C_R   0.675613 0.752586 0.137728 -0.022955
C59   C     C_R   0.700922 0.633645 0.343580 0.002132
C60   C     C_R   0.664649 0.558521 0.251256 -0.024734
Cr1   Cr    Cr6+3 0.189770 0.415650 0.511620 1.139842
Cr2   Cr    Cr6+3 0.930400 0.667320 0.496770 1.060286
Cr3   Cr    Cr6+3 0.879870 0.417010 0.491650 1.074829
Cr4   Cr    Cr6+3 0.149500 0.973980 0.985330 1.101685
Cr5   Cr    Cr6+3 0.457000 0.976510 0.994660 1.084896
Cr6   Cr    Cr6+3 0.411170 0.724270 0.995270 1.156253
H1    H     H_    0.047658 0.693525 0.238168 0.142440
H2    H     H_    0.629350 0.819021 0.728910 0.212128
H3    H     H_    0.038738 0.149201 0.828798 0.223486
H4    H     H_    0.308468 0.177101 0.650342 0.234047
H5    H     H_    0.670694 0.922694 0.148653 0.156692
H6    H     H_    0.401757 0.523031 0.767852 0.241905
H7    H     H_    0.886201 0.811100 0.745430 0.174162
H8    H     H_    0.980516 0.745829 0.659038 0.163854
H9    H     H_    0.650609 0.485753 0.330286 0.153384
H10   H     H_    0.733692 0.789767 0.343492 0.147951
H11   H     H_    0.330851 0.678744 0.262746 0.165337
O1    O     O_R   0.196340 0.303200 0.448500 -0.492774
O2    O     O_R   0.811960 0.658090 0.547150 -0.503099
O3    O     O_R   0.757930 0.506140 0.547110 -0.476349
O4    O     O_R   0.988670 0.321620 0.556040 -0.505676
O5    O     O_3   0.000020 0.499990 0.500010 -0.284985
O6    O     O_R   0.113660 0.883270 0.047820 -0.489943
O7    O     O_R   0.186930 0.068530 0.043990 -0.479365
O8    O     O_R   0.377770 0.089040 0.054220 -0.494306
O9    O     O_R   0.562800 0.872960 0.056970 -0.502532
O10   O     O_R   0.555390 0.700940 0.062700 -0.492283
O11   O     O_R   0.295020 0.731920 0.049950 -0.483591
O12   O     O_R   0.199310 0.519670 0.454880 -0.482391
O13   O     O_R   0.094290 0.884230 0.921550 -0.498005
O14   O     O_R   0.168980 0.069410 0.926940 -0.485257
O15   O     O_R   0.358400 0.089990 0.927950 -0.507330
O16   O     O_R   0.544850 0.873850 0.939920 -0.494892
O17   O     O_R   0.536020 0.701900 0.936430 -0.457752
O18   O     O_R   0.277070 0.732810 0.932890 -0.438609
O19   O     O_3   0.339220 0.891590 0.991750 -0.288244
O20   O     O_R   0.045660 0.691380 0.441680 -0.501416
O21   O     O_R   0.811930 0.659460 0.430950 -0.500066
O22   O     O_R   0.757900 0.507620 0.421760 -0.509447
O23   O     O_R   0.988630 0.322990 0.439840 -0.495717
O24   O     O_R   0.196380 0.301720 0.573850 -0.477420
O25   O     O_R   0.199350 0.518300 0.571080 -0.428985
O26   O     O_R   0.045700 0.689900 0.567030 -0.523197
C61   C     C_1   0.743921 0.545576 0.133406 0.246124
N1    N     N_1   0.778210 0.463936 0.107756 -0.236465
C62   C     C_1   0.748979 0.538411 0.767711 0.267143
N2    N     N_1   0.788331 0.456149 0.795700 -0.194462
C63   C     C_1   0.451364 0.164053 0.850965 0.379913
N3    N     N_1   0.536896 0.180259 0.876984 -0.144684
S1    S     S_3+6 0.880382 0.122424 0.737452 0.011880
O27   O     O_2   0.786714 0.227000 0.760545 -0.196843
O28   O     O_2   0.809551 0.079323 0.690580 -0.217464
O29   O     O_3   0.939873 0.022745 0.789833 -0.538047
H12   H     H_    0.022245 0.970088 0.777526 0.330709
S2    S     S_3+6 0.502661 0.092127 0.731332 0.037099
O30   O     O_2   0.506485 0.023457 0.678784 -0.278183
O31   O     O_2   0.521787 0.198948 0.716028 -0.168796
O32   O     O_3   0.624875 0.015163 0.779619 -0.528102
H13   H     H_    0.678367 0.061720 0.788598 0.426607
C64   C     C_1   0.879301 0.215527 0.618013 0.305032
N4    N     N_1   0.782721 0.235927 0.588770 -0.192579
S3    S     S_3+6 0.325547 0.523499 0.874810 0.037163
O33   O     O_2   0.458130 0.530371 0.881032 -0.212415
O34   O     O_2   0.283353 0.518484 0.933038 -0.266449
O35   O     O_3   0.332141 0.405436 0.840867 -0.513126
H14   H     H_    0.241881 0.407346 0.836784 0.331992
C65   C     C_1   0.888548 0.852456 0.856787 0.297230
N5    N     N_1   0.803175 0.908731 0.880494 -0.229801
S4    S     S_3+6 0.435076 0.482696 0.651265 0.051699
O36   O     O_2   0.417186 0.376923 0.630355 -0.200495
O37   O     O_2   0.450409 0.548094 0.601408 -0.296284
O38   O     O_3   0.569770 0.446187 0.697833 -0.490838
H15   H     H_    0.641296 0.403703 0.675246 0.389900
C66   C     C_1   0.624747 0.476031 0.220119 0.205904
N6    N     N_1   0.592365 0.410010 0.195481 -0.239610
C67   C     C_1   0.721307 0.926872 0.260518 0.217004
N7    N     N_1   0.732099 0.002344 0.285392 -0.259387
S5    S     S_3+6 0.207470 0.012143 0.251366 0.014909
O39   O     O_2   0.119140 0.998492 0.201301 -0.291226
O40   O     O_2   0.345066 0.963139 0.237161 -0.258635
O41   O     O_3   0.193159 0.942182 0.309056 -0.503226
H16   H     H_    0.098554 0.963814 0.310198 0.351540
C68   C     C_1   0.132703 0.351589 0.236689 0.182560
N8    N     N_1   0.104330 0.446428 0.246062 -0.309582

loop_
_geom_bond_atom_site_label_1
_geom_bond_atom_site_label_2
_ccdc_geom_bond_type
Cr5   O15   S    
C30   C32   A    
C1    C21   S    
C37   H3    S    
C8    C67   S    
C6    C58   A    
Cr1   O24   S    
C35   C36   A    
C9    C51   S    
C24   C27   S    
Cr4   O13   S    
C4    C8    A    
C51   O8    A    
C7    C8    A    
C16   C53   S    
C34   O25   A    
Cr3   O4    S    
C36   C37   A    
C19   C21   T    
C11   S5    S    
C56   O24   A    
Cr2   O26   S    
Cr1   O5    S    
C48   S3    S    
C5    C6    A    
C2    C60   A    
C62   N2    T    
C68   N8    T    
C17   C20   S    
C63   N3    T    
C18   C19   S    
S1    O27   D    
Cr4   O7    S    
C12   O22   A    
Cr3   O22   S    
Cr2   O21   S    
C12   C59   S    
Cr5   O19   S    
C47   C48   A    
C44   C46   A    
O38   H15   S    
S2    O31   D    
C29   C38   A    
C65   N5    T    
C6    C61   S    
C53   O11   A    
C7    C58   A    
C12   O21   A    
C5    C60   A    
C55   O16   A    
Cr6   O17   S    
S4    O38   S    
Cr5   O16   S    
C23   O23   A    
Cr2   O5    S    
O32   H13   S    
C41   C43   A    
C34   C41   S    
C32   C64   S    
C55   O17   A    
C61   N1    T    
Cr1   O12   S    
C25   C62   S    
Cr3   O3    S    
C49   C65   S    
C28   C45   S    
C17   H1    S    
C57   O13   A    
Cr3   O5    S    
Cr2   O2    S    
Cr5   O9    S    
C24   C25   D    
Cr4   O19   S    
C10   C14   S    
C50   H7    S    
C1    O20   A    
Cr6   O10   S    
C2    C59   A    
C67   N7    T    
C25   C26   S    
C30   C56   S    
C35   C39   A    
C9    C14   T    
Cr4   O6    S    
C54   O15   A    
Cr3   O23   S    
Cr2   O20   S    
C31   C32   A    
C43   S4    S    
Cr1   O1    S    
C16   C20   T    
S2    O32   S    
C42   H6    S    
C17   C18   D    
C45   O2    A    
Cr6   O11   S    
C44   H8    S    
C3    H10   S    
S1    O29   S    
C22   C55   S    
C52   C58   S    
C33   H4    S    
C39   S2    S    
C22   C27   T    
C13   C15   T    
C57   O18   A    
O35   H14   S    
C41   C44   A    
C42   C43   A    
S3    O34   D    
C3    C4    A    
C60   C66   S    
C64   N4    T    
Cr6   O19   S    
O29   H12   S    
C40   C48   A    
C46   C47   A    
C1    O12   A    
C40   C57   S    
C30   C33   A    
C52   O10   A    
C4    C5    A    
S5    O41   S    
Cr5   O8    S    
C66   N6    T    
S5    O40   D    
C46   C50   A    
C26   C28   T    
C34   O26   A    
C53   O6    A    
C10   C11   D    
S3    O35   S    
C52   O9    A    
Cr1   O25   S    
S4    O36   D    
C54   O14   A    
O41   H16   S    
C7    H5    S    
C11   C13   S    
S2    O30   D    
C38   C39   A    
C18   H11   S    
C15   C23   S    
C33   C35   A    
C31   S1    S    
C56   O4    A    
C45   O3    A    
C10   C68   S    
C23   O1    A    
C38   C63   S    
S1    O28   D    
S5    O39   D    
C24   H2    S    
C42   C47   A    
C49   C50   A    
C29   C54   S    
C29   C37   A    
C31   C36   A    
Cr4   O14   S    
S3    O33   D    
C51   O7    A    
C2    H9    S    
C40   C49   A    
Cr6   O18   S    
S4    O37   D    
C3    C59   A    
