data_mof_unit_59612.cif
_audit_creation_date              2012-12-10T18:21:27-0500
_audit_creation_method            fapswitch 2.2
_symmetry_space_group_name_H-M    P1
_symmetry_Int_Tables_number       1
_space_group_crystal_system       triclinic
_cell_length_a                    14.927182
_cell_length_b                    14.132402
_cell_length_c                    10.646709
_cell_angle_alpha                 90.08951
_cell_angle_beta                  89.08103
_cell_angle_gamma                 89.66504
_cell_volume                      2245.66677421

loop_
_atom_site_label
_atom_site_type_symbol
_atom_type_description
_atom_site_fract_x
_atom_site_fract_y
_atom_site_fract_z
_atom_type_partial_charge
C1    C     C_R   0.327017 0.500225 0.500023 0.857063
C2    C     C_R   0.044179 0.625896 0.654381 -0.204721
C3    C     C_R   0.092050 0.563050 0.576433 0.135656
C4    C     C_R   0.496197 0.500076 0.258070 0.846035
C5    C     C_R   0.046876 0.498878 0.497633 0.059556
C6    C     C_R   0.094912 0.433903 0.419741 0.028345
C7    C     C_R   0.048190 0.370811 0.340535 -0.038805
C8    C     C_R   0.954880 0.376527 0.336981 -0.217370
C9    C     C_R   0.184608 0.563517 0.575833 -0.254212
C10   C     C_R   0.231543 0.500374 0.498914 -0.062276
C11   C     C_R   0.188138 0.436604 0.421166 -0.220672
C12   C     C_3   0.599506 0.485231 0.928384 -0.097135
C13   C     C_R   0.566082 0.798394 0.435981 0.064900
C14   C     C_R   0.565934 0.200140 0.436447 0.074540
C15   C     C_R   0.434024 0.798884 0.563988 -0.070955
C16   C     C_R   0.433873 0.201995 0.563698 -0.059807
C17   C     C_R   0.432052 0.899328 0.565376 0.021406
C18   C     C_R   0.431927 0.101454 0.565205 0.023159
C19   C     C_R   0.673080 0.500056 0.498828 0.941345
C20   C     C_R   0.498862 0.949369 0.499244 0.093192
C21   C     C_R   0.498744 0.050272 0.499178 0.086917
C22   C     C_R   0.566227 0.898695 0.433436 -0.052890
C23   C     C_R   0.815264 0.441969 0.414060 -0.187161
C24   C     C_R   0.565978 0.099841 0.433465 -0.049730
C25   C     C_R   0.365178 0.950957 0.630972 -0.188787
C26   C     C_R   0.365111 0.050813 0.630875 -0.169494
C27   C     C_R   0.631861 0.047910 0.366113 -0.146885
C28   C     C_R   0.631999 0.949585 0.366162 -0.162055
C29   C     C_R   0.499180 0.500159 0.742224 0.866917
C30   C     C_3   0.455138 0.594151 0.072628 -0.403868
C31   C     C_3   0.440671 0.416568 0.072105 -0.351552
C32   C     C_3   0.459498 0.595415 0.929546 -0.395365
C33   C     C_3   0.437640 0.420563 0.928720 -0.420589
C34   C     C_R   0.768675 0.501129 0.496939 -0.048621
C35   C     C_3   0.594602 0.492070 0.074371 -0.441498
C36   C     C_3   0.496372 0.500455 0.121755 0.131602
C37   C     C_3   0.500540 0.500583 0.878935 0.037376
C38   C     C_2   0.092817 0.296929 0.261908 0.901503
C39   C     C_2   0.639648 0.746839 0.372037 0.951555
C40   C     C_2   0.640510 0.249521 0.374991 0.928730
C41   C     C_2   0.667875 0.558643 0.882836 0.873839
C42   C     C_2   0.635914 0.388350 0.886068 0.907985
C43   C     C_R   0.813073 0.563415 0.575762 -0.148300
C44   C     C_R   0.905804 0.563822 0.575992 0.106243
C45   C     C_R   0.953645 0.500509 0.496448 0.055229
C46   C     C_R   0.907931 0.439645 0.414964 0.088966
C47   C     C_R   0.951200 0.625952 0.654629 -0.178856
H1    H     H_    0.492011 0.656650 0.108173 0.239942
H2    H     H_    0.312800 0.088397 0.682400 0.150823
H3    H     H_    0.684161 0.082539 0.312087 0.171114
H4    H     H_    0.684369 0.914118 0.312337 0.167466
H5    H     H_    0.384220 0.601045 0.105614 0.171488
H6    H     H_    0.371248 0.419459 0.111871 0.156079
H7    H     H_    0.390610 0.605541 0.892903 0.164000
H8    H     H_    0.367536 0.434367 0.899096 0.170060
H9    H     H_    0.498619 0.657887 0.898317 0.235944
H10   H     H_    0.456478 0.350000 0.889884 0.215945
H11   H     H_    0.631435 0.554835 0.108718 0.181467
H12   H     H_    0.471026 0.347998 0.101002 0.247692
H13   H     H_    0.628426 0.431401 0.119238 0.211045
H14   H     H_    0.779362 0.399066 0.347830 0.165416
H15   H     H_    0.775379 0.610835 0.637096 0.193500
H16   H     H_    0.914841 0.674699 0.715690 0.153828
H17   H     H_    0.095860 0.225832 0.097380 0.349929
H18   H     H_    0.686061 0.685136 0.213818 0.333854
H19   H     H_    0.691108 0.302675 0.214346 0.331340
H20   H     H_    0.796411 0.602379 0.887199 0.339942
H21   H     H_    0.703620 0.312847 0.753615 0.365765
H22   H     H_    0.078685 0.674819 0.715112 0.148619
H23   H     H_    0.220360 0.612049 0.635939 0.138348
H24   H     H_    0.228412 0.392022 0.359668 0.182078
H25   H     H_    0.918306 0.329153 0.276310 0.191647
H26   H     H_    0.382888 0.759573 0.614397 0.133614
H27   H     H_    0.382669 0.242010 0.614011 0.146046
H28   H     H_    0.312900 0.914133 0.682557 0.143967
N1    N     N_R   0.500070 0.750030 0.500050 -0.140606
N2    N     N_R   0.500070 0.249970 0.500050 -0.146909
O1    O     O_R   0.367860 0.580280 0.500020 -0.634440
O2    O     O_R   0.061276 0.278566 0.141380 -0.793475
O3    O     O_2   0.712861 0.741900 0.421651 -0.630849
O4    O     O_R   0.628444 0.712560 0.250500 -0.825845
O5    O     O_2   0.713173 0.250929 0.426259 -0.643940
O6    O     O_R   0.631664 0.282258 0.252392 -0.793447
O7    O     O_2   0.647050 0.623839 0.813798 -0.632205
O8    O     O_R   0.756634 0.550472 0.922122 -0.790793
O9    O     O_2   0.621583 0.317330 0.948731 -0.612505
O10   O     O_R   0.684353 0.380312 0.772790 -0.780550
O11   O     O_R   0.367860 0.419720 0.500020 -0.625459
O12   O     O_R   0.500000 0.580270 0.314790 -0.605984
O13   O     O_R   0.500000 0.419730 0.314790 -0.605400
O14   O     O_R   0.632160 0.580270 0.499960 -0.598853
O15   O     O_R   0.632160 0.419730 0.499960 -0.587688
O16   O     O_R   0.500030 0.580270 0.685200 -0.590840
O17   O     O_R   0.500030 0.419730 0.685200 -0.623523
O18   O     O_2   0.154079 0.249298 0.303819 -0.630282
Zn1   Zn    Zn3+2 0.500020 0.607200 0.499990 0.991540
Zn2   Zn    Zn3+2 0.500020 0.392800 0.499990 0.990636

loop_
_geom_bond_atom_site_label_1
_geom_bond_atom_site_label_2
_ccdc_geom_bond_type
C33   H8    S    
C30   C32   S    
C4    C36   S    
C18   C21   A    
C35   C36   S    
C18   C26   A    
C24   C27   A    
C7    C8    A    
C45   C46   A    
C35   H11   S    
C16   H27   S    
C30   H1    S    
C47   H16   S    
C5    C6    A    
C28   H4    S    
C11   H24   S    
C38   O2    S    
C14   C24   A    
C17   C20   A    
C16   N2    A    
C14   N2    A    
C31   H12   S    
C12   C37   S    
C12   C42   S    
C19   O15   A    
O14   Zn1   S    
O1    Zn1   S    
C38   O18   D    
C31   C33   S    
N2    Zn2   S    
C42   O9    D    
C2    H22   S    
C9    C10   A    
O13   Zn2   S    
O11   Zn2   S    
C27   H3    S    
C1    O11   A    
C15   N1    A    
H19   O6    S    
C23   C46   A    
C22   C28   A    
C1    O1    A    
C40   O6    S    
C32   H7    S    
O15   Zn2   S    
C4    O13   A    
H20   O8    S    
C8    H25   S    
C1    C10   S    
C40   O5    D    
C9    H23   S    
C39   O4    S    
C26   H2    S    
C6    C11   A    
O17   Zn2   S    
C25   C26   A    
C41   O7    D    
C5    C45   A    
C33   C37   S    
C35   H13   S    
C25   H28   S    
C43   C44   A    
C12   C41   S    
C3    C9    A    
H18   O4    S    
C13   N1    A    
C23   C34   A    
C32   C37   S    
C31   H6    S    
C12   C35   S    
C15   H26   S    
C20   C22   A    
O16   Zn1   S    
H17   O2    S    
C44   C45   A    
C4    O12   A    
C15   C17   A    
C30   H5    S    
C33   H10   S    
C34   C43   A    
C3    C5    A    
C19   C34   S    
C44   C47   A    
C6    C7    A    
C2    C47   A    
C41   O8    S    
C30   C36   S    
C17   C25   A    
C39   O3    D    
O12   Zn1   S    
C2    C3    A    
N1    Zn1   S    
C29   O16   A    
C29   O17   A    
C7    C38   S    
C13   C22   A    
C8    C46   A    
C13   C39   S    
C19   O14   A    
C10   C11   A    
C14   C40   S    
C23   H14   S    
C20   C21   A    
C16   C18   A    
C21   C24   A    
C29   C37   S    
C27   C28   A    
H21   O10   S    
C31   C36   S    
C42   O10   S    
C32   H9    S    
C43   H15   S    
