data_mof_unit_27816.cif
_audit_creation_date              2012-12-11T17:36:20-0500
_audit_creation_method            fapswitch 2.2
_symmetry_space_group_name_H-M    P1
_symmetry_Int_Tables_number       1
_space_group_crystal_system       triclinic
_cell_length_a                    25.774702
_cell_length_b                    6.907254
_cell_length_c                    21.721197
_cell_angle_alpha                 89.992926
_cell_angle_beta                  96.28099
_cell_angle_gamma                 89.992988
_cell_volume                      3843.86419216

loop_
_atom_site_label
_atom_site_type_symbol
_atom_type_description
_atom_site_fract_x
_atom_site_fract_y
_atom_site_fract_z
_atom_type_partial_charge
O1    O     O_R   0.208650 0.594520 0.175450 -0.535165
O2    O     O_R   0.791350 0.405480 0.824550 -0.534043
O3    O     O_R   0.291350 0.094520 0.324550 -0.535171
O4    O     O_R   0.708650 0.905480 0.675450 -0.534052
O5    O     O_R   0.192980 0.260780 0.300160 -0.542527
O6    O     O_R   0.807020 0.739220 0.699840 -0.542520
O7    O     O_R   0.307020 0.760780 0.199840 -0.542534
O8    O     O_R   0.692980 0.239220 0.800160 -0.542504
C1    C     C_R   0.178870 0.432649 0.318463 0.707500
C2    C     C_R   0.821110 0.567356 0.681510 0.706906
C3    C     C_R   0.321130 0.932648 0.181537 0.707551
C4    C     C_R   0.678890 0.067357 0.818491 0.706957
O9    O     O_R   0.202550 0.264660 0.174420 -0.536470
O10   O     O_R   0.797450 0.735340 0.825580 -0.537652
O11   O     O_R   0.297450 0.764660 0.325580 -0.536481
O12   O     O_R   0.702550 0.235340 0.674420 -0.537638
O13   O     O_R   0.300990 0.096480 0.197920 -0.537651
O14   O     O_R   0.699010 0.903520 0.802080 -0.537330
O15   O     O_R   0.199010 0.596480 0.302080 -0.537671
O16   O     O_R   0.800990 0.403520 0.697920 -0.537341
C5    C     C_R   0.190924 0.433130 0.151097 0.697695
C6    C     C_R   0.809188 0.566416 0.848791 0.697472
C7    C     C_R   0.309075 0.933083 0.348908 0.697684
C8    C     C_R   0.690810 0.066462 0.651208 0.697495
O17   O     O_3   0.282290 0.427760 0.257860 -0.364467
O18   O     O_3   0.717710 0.572240 0.742140 -0.364051
O19   O     O_3   0.217710 0.927760 0.242140 -0.364465
O20   O     O_3   0.782290 0.072240 0.757860 -0.364081
V1    V     V_3+5 0.244010 0.152080 0.248540 1.424913
V2    V     V_3+5 0.755990 0.847920 0.751460 1.428350
V3    V     V_3+5 0.255990 0.652080 0.251460 1.424884
V4    V     V_3+5 0.744010 0.347920 0.748540 1.428418
C9    C     C_R   0.657444 0.057556 0.591566 -0.057562
C10   C     C_R   0.343040 0.934833 0.408231 -0.058572
C11   C     C_R   0.842559 0.557264 0.908421 -0.057412
C12   C     C_R   0.156976 0.435115 0.091768 -0.058363
C13   C     C_R   0.648792 0.085608 0.480021 -0.137222
C14   C     C_R   0.355596 0.836726 0.515659 -0.136799
C15   C     C_R   0.851091 0.582382 0.020030 -0.137090
C16   C     C_R   0.144619 0.339459 0.984120 -0.136726
C17   C     C_R   0.679290 0.096707 0.536912 -0.155945
C18   C     C_R   0.322865 0.866699 0.461212 -0.151382
C19   C     C_R   0.820613 0.594378 0.963143 -0.155951
C20   C     C_R   0.177277 0.368642 0.038668 -0.151561
C21   C     C_R   0.604259 0.008403 0.588845 -0.210481
C22   C     C_R   0.396861 0.973293 0.410348 -0.214633
C23   C     C_R   0.895813 0.509193 0.911071 -0.210658
C24   C     C_R   0.103109 0.472629 0.089683 -0.214621
C25   C     C_R   0.572946 0.984586 0.531042 0.083968
C26   C     C_R   0.431928 0.926348 0.463750 0.085236
C27   C     C_R   0.927109 0.484306 0.968837 0.083992
C28   C     C_R   0.068138 0.426468 0.036136 0.085217
C29   C     C_R   0.596043 0.031174 0.476630 0.061357
C30   C     C_R   0.409692 0.864285 0.517297 0.062636
C31   C     C_R   0.903912 0.528909 0.023338 0.061368
C32   C     C_R   0.090488 0.366190 0.982475 0.062621
C33   C     C_R   0.519139 0.924599 0.525385 -0.085944
C34   C     C_R   0.487887 0.942160 0.466537 -0.086558
C35   C     C_R   0.980977 0.425049 0.974397 -0.085990
C36   C     C_R   0.012162 0.441457 0.033321 -0.086618
C37   C     C_R   0.514449 0.967308 0.412838 0.348712
C38   C     C_R   0.495427 0.841655 0.575500 0.349912
C39   C     C_R   0.985529 0.464660 0.087049 0.348741
C40   C     C_R   0.004818 0.343875 0.924104 0.349934
C41   C     C_R   0.566985 0.018130 0.418800 -0.182762
C42   C     C_R   0.441528 0.820725 0.571544 -0.180993
C43   C     C_R   0.932939 0.514744 0.081160 -0.182672
C44   C     C_R   0.058740 0.323630 0.928081 -0.180999
H1    H     H_    0.585791 0.041260 0.377107 0.150116
H2    H     H_    0.424530 0.761013 0.610952 0.149850
H3    H     H_    0.914071 0.536343 0.122886 0.150111
H4    H     H_    0.075834 0.265273 0.888547 0.149858
H5    H     H_    0.410227 0.037547 0.369672 0.154914
H6    H     H_    0.588013 0.995894 0.632383 0.153701
H7    H     H_    0.089635 0.535670 0.130480 0.154784
H8    H     H_    0.912105 0.498170 0.867522 0.153632
H9    H     H_    0.281654 0.833957 0.460115 0.103105
H10   H     H_    0.720094 0.136163 0.538335 0.103957
H11   H     H_    0.218532 0.336684 0.039736 0.103043
H12   H     H_    0.779745 0.632873 0.961778 0.103861
H13   H     H_    0.666667 0.118423 0.438333 0.117448
H14   H     H_    0.338704 0.785229 0.556190 0.116773
H15   H     H_    0.833136 0.613619 0.061778 0.117425
H16   H     H_    0.161602 0.289313 0.943490 0.116771
C45   C     C_R   0.432853 0.790294 0.087845 0.381505
C46   C     C_R   0.567322 0.209780 0.912421 0.380056
C47   C     C_R   0.067148 0.290313 0.412156 0.381518
C48   C     C_R   0.932680 0.709759 0.587585 0.380092
C49   C     C_R   0.393083 0.780060 0.127335 -0.156279
C50   C     C_R   0.607049 0.220015 0.872871 -0.159586
C51   C     C_R   0.106918 0.280079 0.372664 -0.156141
C52   C     C_R   0.892952 0.719995 0.627134 -0.159532
H17   H     H_    0.385755 0.642621 0.148812 0.141969
H18   H     H_    0.614390 0.357502 0.851432 0.143650
H19   H     H_    0.114245 0.142652 0.351186 0.141974
H20   H     H_    0.885612 0.857469 0.648575 0.143626
C53   C     C_R   0.363358 0.944004 0.139563 -0.130662
C54   C     C_R   0.636710 0.056010 0.860533 -0.131754
C55   C     C_R   0.136643 0.444007 0.360438 -0.130689
C56   C     C_R   0.863291 0.556006 0.639468 -0.131707
C57   C     C_R   0.374135 0.120048 0.110882 -0.160206
C58   C     C_R   0.625928 0.879922 0.889186 -0.157976
C59   C     C_R   0.125867 0.620035 0.389120 -0.160310
C60   C     C_R   0.874073 0.379935 0.610814 -0.157983
H21   H     H_    0.352021 0.249369 0.118724 0.135336
H22   H     H_    0.647998 0.750557 0.881270 0.135631
H23   H     H_    0.147980 0.749342 0.381279 0.135354
H24   H     H_    0.852002 0.250583 0.618728 0.135621
C61   C     C_R   0.413204 0.131873 0.071061 -0.150650
C62   C     C_R   0.586906 0.868103 0.929071 -0.150758
C63   C     C_R   0.086797 0.631859 0.428943 -0.150644
C64   C     C_R   0.913096 0.368115 0.570929 -0.150711
H25   H     H_    0.420111 0.269158 0.049295 0.169800
H26   H     H_    0.579992 0.730785 0.950810 0.170150
H27   H     H_    0.079891 0.769131 0.450710 0.169810
H28   H     H_    0.920009 0.230810 0.549189 0.170142
C65   C     C_R   0.443014 0.969209 0.059096 0.025400
C66   C     C_R   0.557146 0.030810 0.941126 0.024850
C67   C     C_R   0.056988 0.469211 0.440906 0.025377
C68   C     C_R   0.942856 0.530806 0.558877 0.024855
C69   C     C_1   0.483322 0.990638 0.017480 -0.042587
C70   C     C_1   0.516853 0.009353 0.982761 -0.042599
C71   C     C_1   0.016680 0.490639 0.482522 -0.042574
C72   C     C_1   0.983149 0.509351 0.517242 -0.042586
O21   O     O_3   0.492614 0.922270 0.353901 -0.645221
H29   H     H_    0.470664 0.805505 0.357049 0.288724
O22   O     O_3   0.523434 0.758046 0.626265 -0.645022
H30   H     H_    0.554284 0.693940 0.611679 0.289922
O23   O     O_3   0.007365 0.418339 0.145886 -0.645200
H31   H     H_    0.029455 0.302075 0.142460 0.288763
O24   O     O_3   0.976936 0.261276 0.873085 -0.644998
H32   H     H_    0.946137 0.196236 0.887458 0.289888
O25   O     O_3   0.460395 0.622627 0.079205 -0.656791
H33   H     H_    0.486859 0.647011 0.050416 0.293081
O26   O     O_3   0.539830 0.377496 0.921152 -0.656864
H34   H     H_    0.513406 0.353127 0.949994 0.292966
O27   O     O_3   0.039607 0.122663 0.420795 -0.656782
H35   H     H_    0.013143 0.147044 0.449584 0.293084
O28   O     O_3   0.960173 0.877457 0.578856 -0.656846
H36   H     H_    0.986597 0.853091 0.550015 0.292971

loop_
_geom_bond_atom_site_label_1
_geom_bond_atom_site_label_2
_ccdc_geom_bond_type
O17   V3    S    
C55   C59   A    
O1    C5    A    
C47   C51   A    
O19   V1    S    
C9    C21   A    
C16   H16   S    
O3    C7    A    
C10   C18   A    
O1    V3    S    
O15   V3    S    
C62   C66   A    
C61   C65   A    
O26   H34   S    
C5    C12   S    
C42   H2    S    
O7    C3    A    
C6    C11   S    
C35   C40   A    
C26   C30   A    
C36   C39   A    
C40   C44   A    
O2    V4    S    
O9    V1    S    
O10   V2    S    
C23   H8    S    
C14   C18   A    
C38   O22   S    
O4    C8    A    
C25   C29   A    
C43   H3    S    
C57   C61   A    
C60   H24   S    
C52   H20   S    
O13   V1    S    
C59   C63   A    
C66   C70   S    
O3    V1    S    
C65   C69   S    
C28   C36   A    
C68   C72   S    
C1    O15   A    
C56   C60   A    
C15   C31   A    
C48   C52   A    
C2    O16   A    
C16   C32   A    
O2    C6    A    
C58   H22   S    
C10   C22   A    
C21   C25   A    
C48   C68   A    
C11   C19   A    
C62   H26   S    
C16   C20   A    
C4    C54   S    
C44   H4    S    
C13   C29   A    
C34   C37   A    
O11   C7    A    
C11   C23   A    
C35   C36   A    
O12   C8    A    
C14   H14   S    
O17   V1    S    
C24   H7    S    
C13   H13   S    
C47   C67   A    
C47   O27   S    
C50   H18   S    
O5    V1    S    
C57   H21   S    
C39   C43   A    
O7    V3    S    
C38   C42   A    
O19   V3    S    
C26   C34   A    
C71   C72   T    
C46   C50   A    
C17   H10   S    
C64   C68   A    
C45   C49   A    
O18   V4    S    
C15   C19   A    
C33   C38   A    
C19   H12   S    
C54   C58   A    
C49   H17   S    
C49   C53   A    
C21   H6    S    
O8    V4    S    
C2    C56   S    
C48   O28   S    
O5    C1    A    
C63   H27   S    
C31   C43   A    
C14   C30   A    
C40   O24   S    
O20   V4    S    
O8    C4    A    
C7    C10   S    
O9    C5    A    
C46   C66   A    
C45   C65   A    
C69   C70   T    
O14   V2    S    
C63   C67   A    
O6    V2    S    
O18   V2    S    
C67   C71   S    
O21   H29   S    
C58   C62   A    
C27   C35   A    
O22   H30   S    
C64   H28   S    
C29   C41   A    
C52   C56   A    
C60   C64   A    
O23   H31   S    
O16   V4    S    
C37   O21   S    
C3    O13   A    
C20   H11   S    
O6    C2    A    
C25   C33   A    
C23   C27   A    
O28   H36   S    
O11   V3    S    
C30   C42   A    
C61   H25   S    
O12   V4    S    
O27   H35   S    
C22   C26   A    
C8    C9    S    
C3    C53   S    
C9    C17   A    
O10   C6    A    
O20   V2    S    
C15   H15   S    
C32   C44   A    
C33   C34   A    
O25   H33   S    
C41   H1    S    
C12   C24   A    
C27   C31   A    
C39   O23   S    
C13   C17   A    
O24   H32   S    
O4    V2    S    
C12   C20   A    
C51   H19   S    
C37   C41   A    
C46   O26   S    
C24   C28   A    
C18   H9    S    
C1    C55   S    
C4    O14   A    
C59   H23   S    
C51   C55   A    
C50   C54   A    
C22   H5    S    
C53   C57   A    
C28   C32   A    
C45   O25   S    
