data_mof_unit_53362.cif
_audit_creation_date              2012-12-11T17:14:52-0500
_audit_creation_method            fapswitch 2.2
_symmetry_space_group_name_H-M    P1
_symmetry_Int_Tables_number       1
_space_group_crystal_system       monoclinic
_cell_length_a                    15.661911
_cell_length_b                    15.661911
_cell_length_c                    15.289241
_cell_angle_alpha                 90.000011
_cell_angle_beta                  90.0
_cell_angle_gamma                 90.0
_cell_volume                      3750.38134562

loop_
_atom_site_label
_atom_site_type_symbol
_atom_type_description
_atom_site_fract_x
_atom_site_fract_y
_atom_site_fract_z
_atom_type_partial_charge
C1    C     C_R   0.618465 0.281657 0.113511 0.579178
C2    C     C_R   0.408119 0.307842 0.159675 0.521351
C3    C     C_R   0.718343 0.381535 0.886488 0.579179
C4    C     C_R   0.281657 0.618465 0.113511 0.579179
C5    C     C_R   0.408120 0.307842 0.840325 0.521351
C6    C     C_R   0.591880 0.692158 0.159675 0.521351
C7    C     C_R   0.281657 0.618465 0.886488 0.579179
C8    C     C_R   0.718343 0.381535 0.113511 0.579178
C9    C     C_R   0.091880 0.807843 0.659675 0.521351
C10   C     C_R   0.908119 0.192158 0.340325 0.521351
C11   C     C_R   0.218343 0.118465 0.613511 0.579179
C12   C     C_R   0.381535 0.718343 0.886488 0.579179
C13   C     C_R   0.781657 0.881535 0.386488 0.579179
C14   C     C_R   0.908119 0.192157 0.659675 0.521350
C15   C     C_R   0.091880 0.807842 0.340325 0.521351
C16   C     C_R   0.781657 0.881535 0.613511 0.579178
C17   C     C_R   0.218343 0.118465 0.386488 0.579178
C18   C     C_R   0.118465 0.218343 0.386488 0.579179
C19   C     C_R   0.881535 0.781657 0.613511 0.579178
C20   C     C_R   0.192158 0.908119 0.340325 0.521352
C21   C     C_R   0.807842 0.091880 0.659675 0.521351
C22   C     C_R   0.881535 0.781657 0.386488 0.579178
C23   C     C_R   0.692158 0.591880 0.159675 0.521351
C24   C     C_R   0.118465 0.218343 0.613512 0.579178
C25   C     C_R   0.807842 0.091881 0.340325 0.521351
C26   C     C_R   0.192157 0.908120 0.659675 0.521351
C27   C     C_R   0.702502 0.297498 0.131960 -0.373226
C28   C     C_R   0.297498 0.702502 0.868039 -0.373227
C29   C     C_R   0.658193 0.658193 0.207839 -0.335805
C30   C     C_R   0.341807 0.341807 0.792161 -0.335805
C31   C     C_R   0.297498 0.702502 0.131960 -0.373226
C32   C     C_R   0.702502 0.297498 0.868040 -0.373227
C33   C     C_R   0.341807 0.341807 0.207839 -0.335805
C34   C     C_R   0.307842 0.408120 0.840325 0.521352
C35   C     C_R   0.658193 0.658193 0.792161 -0.335805
C36   C     C_R   0.158193 0.841807 0.707839 -0.335806
C37   C     C_R   0.841807 0.158193 0.292161 -0.335805
C38   C     C_R   0.202502 0.202502 0.631960 -0.373226
C39   C     C_R   0.797497 0.797497 0.368040 -0.373226
C40   C     C_R   0.841807 0.158193 0.707839 -0.335805
C41   C     C_R   0.158193 0.841807 0.292161 -0.335806
C42   C     C_R   0.797497 0.797497 0.631960 -0.373226
C43   C     C_R   0.202502 0.202502 0.368040 -0.373226
C44   C     C_1   0.299114 0.299114 0.275293 0.025696
C45   C     C_R   0.381535 0.718343 0.113511 0.579178
C46   C     C_1   0.700886 0.700886 0.724707 0.025696
C47   C     C_1   0.757607 0.242393 0.176403 0.003302
C48   C     C_1   0.242393 0.757607 0.823597 0.003302
C49   C     C_1   0.700886 0.700886 0.275293 0.025696
C50   C     C_1   0.299114 0.299114 0.724707 0.025696
C51   C     C_1   0.242393 0.757607 0.176403 0.003302
C52   C     C_1   0.757607 0.242393 0.823597 0.003302
C53   C     C_1   0.742393 0.742393 0.676403 0.003302
C54   C     C_1   0.257607 0.257607 0.323597 0.003302
C55   C     C_1   0.200886 0.799114 0.775293 0.025697
C56   C     C_R   0.618465 0.281657 0.886488 0.579179
C57   C     C_1   0.799114 0.200886 0.224707 0.025695
C58   C     C_1   0.257607 0.257607 0.676403 0.003302
C59   C     C_1   0.742393 0.742393 0.323597 0.003302
C60   C     C_1   0.799114 0.200886 0.775293 0.025696
C61   C     C_1   0.200886 0.799114 0.224707 0.025696
C62   C     C_R   0.307842 0.408119 0.159675 0.521351
C63   C     C_R   0.692158 0.591881 0.840325 0.521351
C64   C     C_R   0.591881 0.692158 0.840325 0.521351
H1    H     H_    0.627480 0.158461 0.111058 0.323099
H2    H     H_    0.431084 0.210117 0.232985 0.322655
H3    H     H_    0.841539 0.372520 0.888942 0.323098
H4    H     H_    0.158461 0.627480 0.111058 0.323099
H5    H     H_    0.431085 0.210117 0.767015 0.322655
H6    H     H_    0.568916 0.789883 0.232985 0.322655
H7    H     H_    0.158461 0.627480 0.888942 0.323098
H8    H     H_    0.841539 0.372520 0.111058 0.323099
H9    H     H_    0.068914 0.710118 0.732986 0.322655
H10   H     H_    0.931083 0.289884 0.267016 0.322656
H11   H     H_    0.341539 0.127480 0.611058 0.323098
H12   H     H_    0.372520 0.841539 0.888942 0.323098
H13   H     H_    0.658461 0.872520 0.388942 0.323098
H14   H     H_    0.931085 0.289883 0.732985 0.322656
H15   H     H_    0.068915 0.710117 0.267015 0.322655
H16   H     H_    0.658461 0.872520 0.611058 0.323099
H17   H     H_    0.341539 0.127480 0.388942 0.323098
H18   H     H_    0.127480 0.341539 0.388942 0.323099
H19   H     H_    0.872520 0.658461 0.611058 0.323099
H20   H     H_    0.289883 0.931084 0.267015 0.322655
H21   H     H_    0.710117 0.068915 0.732985 0.322655
H22   H     H_    0.872520 0.658461 0.388942 0.323098
H23   H     H_    0.789883 0.568916 0.232985 0.322655
H24   H     H_    0.127480 0.341539 0.611058 0.323099
H25   H     H_    0.710117 0.068916 0.267015 0.322656
H26   H     H_    0.289882 0.931085 0.732985 0.322656
H27   H     H_    0.210117 0.431084 0.767015 0.322655
H28   H     H_    0.372520 0.841539 0.111058 0.323099
H29   H     H_    0.627480 0.158461 0.888942 0.323098
H30   H     H_    0.210117 0.431084 0.232985 0.322655
H31   H     H_    0.789883 0.568916 0.767015 0.322655
H32   H     H_    0.568916 0.789883 0.767015 0.322655
N1    N     N_R   0.582440 0.354860 0.087060 -0.137696
N2    N     N_R   0.417560 0.354860 0.087060 -0.109931
N3    N     N_R   0.645140 0.417560 0.912940 -0.137696
N4    N     N_R   0.354860 0.582440 0.087060 -0.137696
N5    N     N_R   0.417560 0.354860 0.912940 -0.109931
N6    N     N_R   0.582440 0.645140 0.087060 -0.109931
N7    N     N_R   0.354860 0.582440 0.912940 -0.137696
N8    N     N_R   0.645140 0.417560 0.087060 -0.137696
N9    N     N_R   0.082440 0.854860 0.587060 -0.109931
N10   N     N_R   0.917560 0.145140 0.412940 -0.109931
N11   N     N_R   0.145140 0.082440 0.587060 -0.137696
N12   N     N_R   0.417560 0.645140 0.912940 -0.137696
N13   N     N_R   0.854860 0.917560 0.412940 -0.137696
N14   N     N_R   0.917560 0.145140 0.587060 -0.109931
N15   N     N_R   0.082440 0.854860 0.412940 -0.109931
N16   N     N_R   0.854860 0.917560 0.587060 -0.137696
N17   N     N_R   0.145140 0.082440 0.412940 -0.137696
N18   N     N_R   0.082440 0.145140 0.412940 -0.137696
N19   N     N_R   0.917560 0.854860 0.587060 -0.137696
N20   N     N_R   0.145140 0.917560 0.412940 -0.109931
N21   N     N_R   0.854860 0.082440 0.587060 -0.109931
N22   N     N_R   0.917560 0.854860 0.412940 -0.137696
N23   N     N_R   0.645140 0.582440 0.087060 -0.109931
N24   N     N_R   0.082440 0.145140 0.587060 -0.137696
N25   N     N_R   0.854860 0.082440 0.412940 -0.109931
N26   N     N_R   0.145140 0.917560 0.587060 -0.109931
N27   N     N_R   0.354860 0.417560 0.912940 -0.109931
N28   N     N_R   0.417560 0.645140 0.087060 -0.137696
N29   N     N_R   0.582440 0.354860 0.912940 -0.137696
N30   N     N_R   0.354860 0.417560 0.087060 -0.109931
N31   N     N_R   0.645140 0.582440 0.912940 -0.109931
N32   N     N_R   0.582440 0.645140 0.912940 -0.109931
Ni1   Ni    Ni4+2 0.500000 0.356170 0.000000 0.297156
Ni2   Ni    Ni4+2 0.500000 0.643830 0.000000 0.297156
Ni3   Ni    Ni4+2 0.643830 0.500000 0.000000 0.297156
Ni4   Ni    Ni4+2 0.356170 0.500000 0.000000 0.297156
Ni5   Ni    Ni4+2 0.000000 0.856170 0.500000 0.297156
Ni6   Ni    Ni4+2 0.000000 0.143830 0.500000 0.297156
Ni7   Ni    Ni4+2 0.143830 0.000000 0.500000 0.297156
Ni8   Ni    Ni4+2 0.856170 0.000000 0.500000 0.297156
O1    O     O_3   0.585296 0.202532 0.093823 -0.630750
O2    O     O_3   0.448940 0.231752 0.174917 -0.676467
O3    O     O_3   0.797468 0.414704 0.906177 -0.630750
O4    O     O_3   0.202532 0.585296 0.093823 -0.630750
O5    O     O_3   0.448940 0.231752 0.825083 -0.676468
O6    O     O_3   0.551060 0.768248 0.174917 -0.676467
O7    O     O_3   0.202532 0.585296 0.906177 -0.630750
O8    O     O_3   0.797468 0.414704 0.093823 -0.630750
O9    O     O_3   0.051060 0.731752 0.674917 -0.676468
O10   O     O_3   0.948940 0.268248 0.325083 -0.676468
O11   O     O_3   0.297468 0.085296 0.593823 -0.630750
O12   O     O_3   0.414704 0.797468 0.906177 -0.630750
O13   O     O_3   0.702532 0.914704 0.406177 -0.630750
O14   O     O_3   0.948940 0.268248 0.674917 -0.676467
O15   O     O_3   0.051060 0.731752 0.325083 -0.676467
O16   O     O_3   0.702532 0.914704 0.593823 -0.630750
O17   O     O_3   0.297468 0.085296 0.406177 -0.630750
O18   O     O_3   0.085296 0.297468 0.406177 -0.630750
O19   O     O_3   0.914704 0.702532 0.593823 -0.630750
O20   O     O_3   0.268248 0.948940 0.325083 -0.676467
O21   O     O_3   0.731752 0.051060 0.674917 -0.676468
O22   O     O_3   0.914704 0.702532 0.406177 -0.630750
O23   O     O_3   0.768248 0.551060 0.174917 -0.676467
O24   O     O_3   0.085296 0.297468 0.593823 -0.630750
O25   O     O_3   0.731752 0.051060 0.325083 -0.676468
O26   O     O_3   0.268248 0.948940 0.674917 -0.676468
O27   O     O_3   0.231752 0.448940 0.825083 -0.676467
O28   O     O_3   0.414704 0.797468 0.093823 -0.630750
O29   O     O_3   0.585296 0.202532 0.906177 -0.630750
O30   O     O_3   0.231752 0.448940 0.174917 -0.676467
O31   O     O_3   0.768248 0.551060 0.825083 -0.676467
O32   O     O_3   0.551060 0.768248 0.825083 -0.676467

loop_
_geom_bond_atom_site_label_1
_geom_bond_atom_site_label_2
_ccdc_geom_bond_type
C48   C55   T    
C34   N27   A    
C40   C60   S    
N27   Ni4   S    
C19   O19   S    
C51   C61   T    
C46   C53   T    
C41   C61   S    
C17   O17   S    
C18   N18   A    
C7    O7    S    
C20   C41   A    
C17   N17   A    
N3    N29   A    
N20   Ni7   S    
C29   C49   S    
C21   C40   A    
C16   N16   A    
N5    N27   A    
H26   O26   S    
C10   C37   A    
C23   C29   A    
H15   O15   S    
C45   O28   S    
C5    C30   A    
C42   C53   S    
C23   N23   A    
C12   N12   A    
H19   O19   S    
C21   N21   A    
H17   O17   S    
N10   N25   A    
H8    O8    S    
C62   N30   A    
C32   C52   S    
C13   N13   A    
C52   C60   T    
C25   C37   A    
C38   C58   S    
C5    O5    S    
C25   O25   S    
C33   C62   A    
C64   N32   A    
N8    Ni3   S    
C23   O23   S    
C56   O29   S    
C9    C36   A    
C24   C38   A    
H32   O32   S    
C35   C64   A    
C19   N19   A    
C6    O6    S    
H3    O3    S    
N7    Ni4   S    
N12   Ni2   S    
C18   O18   S    
C19   C42   A    
C4    C31   A    
H1    O1    S    
H28   O28   S    
C63   O31   S    
H30   O30   S    
C30   C50   S    
H29   O29   S    
C7    N7    A    
N13   Ni8   S    
H27   O27   S    
H21   O21   S    
N16   Ni8   S    
N14   N21   A    
H25   O25   S    
N13   N22   A    
C45   N28   A    
C37   C57   S    
C5    N5    A    
H6    O6    S    
C24   N24   A    
C30   C34   A    
C2    O2    S    
C15   N15   A    
C15   C41   A    
C16   O16   S    
C34   O27   S    
C1    N1    A    
C20   N20   A    
N15   Ni5   S    
N19   Ni5   S    
H11   O11   S    
C14   C40   A    
C26   O26   S    
C7    C28   A    
H9    O9    S    
N4    N28   A    
C50   C58   T    
C11   C38   A    
C17   C43   A    
C44   C54   T    
C4    O4    S    
H22   O22   S    
C43   C54   S    
N23   Ni3   S    
H2    O2    S    
N30   Ni4   S    
C39   C59   S    
C14   O14   S    
N4    Ni4   S    
N18   Ni6   S    
N28   Ni2   S    
C8    O8    S    
C56   N29   A    
C8    N8    A    
C2    N2    A    
N15   N20   A    
N22   Ni5   S    
N17   Ni7   S    
C10   O10   S    
C2    C33   A    
C26   C36   A    
C62   O30   S    
C12   C28   A    
C4    N4    A    
N29   Ni1   S    
C11   N11   A    
C10   N10   A    
C3    O3    S    
H13   O13   S    
N31   N32   A    
H4    O4    S    
C16   C42   A    
N11   N24   A    
C1    O1    S    
H14   O14   S    
N9    Ni5   S    
N17   N18   A    
N2    N30   A    
C27   C47   S    
H16   O16   S    
C22   N22   A    
C28   C48   S    
C20   O20   S    
C33   C44   S    
C21   O21   S    
H10   O10   S    
N6    Ni2   S    
C31   C51   S    
H31   O31   S    
C24   O24   S    
N11   Ni7   S    
N32   Ni2   S    
C22   O22   S    
C35   C46   S    
C49   C59   T    
N3    Ni3   S    
C15   O15   S    
C12   O12   S    
C13   O13   S    
C64   O32   S    
C36   C55   S    
C18   C43   A    
H20   O20   S    
C11   O11   S    
H7    O7    S    
C25   N25   A    
C14   N14   A    
C22   C39   A    
N2    Ni1   S    
C9    O9    S    
H23   O23   S    
N9    N26   A    
N24   Ni6   S    
H24   O24   S    
N25   Ni8   S    
C3    C32   A    
N31   Ni3   S    
N26   Ni7   S    
C13   C39   A    
N1    N8    A    
N14   Ni6   S    
N1    Ni1   S    
H18   O18   S    
C3    N3    A    
N10   Ni6   S    
C6    C29   A    
H12   O12   S    
C6    N6    A    
C31   C45   A    
H5    O5    S    
C47   C57   T    
C1    C27   A    
C8    C27   A    
N7    N12   A    
C35   C63   A    
C26   N26   A    
N21   Ni8   S    
C9    N9    A    
C32   C56   A    
N16   N19   A    
C63   N31   A    
N6    N23   A    
N5    Ni1   S    
