data_mof_unit_25584.cif
_audit_creation_date              2012-10-26T18:49:35-0400
_audit_creation_method            fapswitch 2.2
_symmetry_space_group_name_H-M    P1
_symmetry_Int_Tables_number       1
_space_group_crystal_system       triclinic
_cell_length_a                    19.300081
_cell_length_b                    11.043997
_cell_length_c                    9.992506
_cell_angle_alpha                 111.29827
_cell_angle_beta                  98.855708
_cell_angle_gamma                 92.953325
_cell_volume                      1947.3801365

loop_
_atom_site_label
_atom_site_type_symbol
_atom_type_description
_atom_site_fract_x
_atom_site_fract_y
_atom_site_fract_z
_atom_type_partial_charge
C1    C     C_R   0.496319 0.254487 0.439991 0.571304
C2    C     C_R   0.632031 0.497818 0.499387 0.546002
C3    C     C_R   0.266331 0.572329 0.632286 0.123181
C4    C     C_R   0.731300 0.396965 0.383005 0.151346
C5    C     C_R   0.192867 0.567121 0.630097 0.122341
C6    C     C_R   0.804164 0.395300 0.383421 0.123595
C7    C     C_R   0.145141 0.497354 0.497869 0.040547
C8    C     C_R   0.852704 0.493003 0.496464 0.027729
C9    C     C_R   0.170268 0.433039 0.367308 0.113333
C10   C     C_R   0.828943 0.588728 0.612928 0.126738
C11   C     C_R   0.243421 0.439164 0.371755 -0.144690
C12   C     C_R   0.505526 0.745876 0.559518 0.546737
C13   C     C_R   0.756002 0.585909 0.612371 -0.147071
C14   C     C_R   0.291391 0.505641 0.502247 -0.017343
C15   C     C_R   0.707626 0.493071 0.497779 -0.016948
C16   C     C_R   0.928505 0.492198 0.495663 0.321079
C17   C     C_R   0.068634 0.494316 0.496358 0.350157
C18   C     C_3   0.339054 0.778531 0.772084 -0.251062
C19   C     C_3   0.678228 0.285813 0.123533 -0.214205
C20   C     C_3   0.141962 0.760710 0.771750 -0.280048
C21   C     C_3   0.842417 0.179722 0.306897 -0.301322
C22   C     C_3   0.145239 0.304953 0.097362 -0.297345
C23   C     C_2   0.489834 0.114181 0.404205 0.359732
C24   C     C_3   0.855401 0.785676 0.846371 -0.303389
C25   C     C_3   0.440429 0.255032 0.781325 -0.211990
C26   C     C_3   0.596113 0.685034 0.246595 -0.215810
C27   C     C_3   0.628060 0.718033 0.937807 -0.232223
C28   C     C_3   0.372149 0.282111 0.068162 -0.232927
C29   C     C_2   0.515943 0.885899 0.591311 0.345789
C30   C     C_2   0.517759 0.065772 0.502893 0.344894
C31   C     C_2   0.496128 0.930834 0.484657 0.348984
C32   C     C_2   0.511000 0.498351 0.075216 0.317562
C33   C     C_2   0.492824 0.486360 0.915221 0.317084
C34   C     C_R   0.367663 0.502078 0.500745 0.545982
Cu1   Cu    Cu3+1 0.512140 0.521810 0.644910 1.002523
Cu2   Cu    Cu3+1 0.487860 0.478190 0.355090 1.001254
F1    F     F_    0.452952 0.851482 0.357848 -0.627601
F2    F     F_    0.564923 0.143685 0.624194 -0.635197
F3    F     F_    0.551004 0.966766 0.726120 -0.634993
F4    F     F_    0.449552 0.035970 0.273540 -0.619548
H1    H     H_    0.263805 0.388527 0.274096 0.124557
H2    H     H_    0.622074 0.271619 0.069451 0.181513
H3    H     H_    0.190261 0.630027 0.855652 0.252752
H4    H     H_    0.178810 0.841120 0.858653 0.127925
H5    H     H_    0.088909 0.763798 0.801913 0.168860
H6    H     H_    0.138124 0.776989 0.667454 0.150952
H7    H     H_    0.867003 0.322640 0.227046 0.272710
H8    H     H_    0.855262 0.101515 0.210030 0.136867
H9    H     H_    0.795562 0.141101 0.337505 0.155457
H10   H     H_    0.888094 0.205730 0.398693 0.162978
H11   H     H_    0.080770 0.301197 0.246737 0.258953
H12   H     H_    0.735679 0.658104 0.698611 0.114985
H13   H     H_    0.098906 0.263494 0.007043 0.153762
H14   H     H_    0.177992 0.225136 0.097429 0.126846
H15   H     H_    0.175658 0.382585 0.076865 0.160597
H16   H     H_    0.922521 0.718412 0.696029 0.260671
H17   H     H_    0.901874 0.847929 0.926467 0.142742
H18   H     H_    0.824697 0.739866 0.904549 0.153494
H19   H     H_    0.823079 0.848878 0.803956 0.142748
H20   H     H_    0.386626 0.422785 0.817707 0.256793
H21   H     H_    0.395255 0.210535 0.809359 0.110170
H22   H     H_    0.491119 0.236193 0.835743 0.211555
H23   H     H_    0.303131 0.646931 0.858688 0.249861
H24   H     H_    0.432836 0.203823 0.662042 0.163228
H25   H     H_    0.619238 0.517987 0.085365 0.226176
H26   H     H_    0.640775 0.733621 0.219976 0.108680
H27   H     H_    0.613243 0.694909 0.361266 0.156965
H28   H     H_    0.549438 0.738023 0.237552 0.218739
H29   H     H_    0.524053 0.747463 0.957970 0.285627
H30   H     H_    0.650779 0.811400 0.028792 0.110829
H31   H     H_    0.625561 0.734879 0.834728 0.196913
H32   H     H_    0.663632 0.642342 0.938994 0.138089
H33   H     H_    0.368032 0.479908 0.106807 0.267596
H34   H     H_    0.294541 0.838995 0.779898 0.131592
H35   H     H_    0.321917 0.245762 0.987751 0.087403
H36   H     H_    0.360714 0.288616 0.175016 0.182654
H37   H     H_    0.410379 0.209402 0.037712 0.179124
H38   H     H_    0.361830 0.773328 0.674864 0.158233
H39   H     H_    0.380708 0.826370 0.870892 0.179667
H40   H     H_    0.678045 0.208699 0.287031 0.250791
H41   H     H_    0.703950 0.199940 0.063284 0.169890
H42   H     H_    0.704664 0.375112 0.117638 0.146621
N1    N     N_R   0.025421 0.521705 0.393038 -0.211544
N2    N     N_2   0.827845 0.292822 0.271486 -0.519167
N3    N     N_2   0.121139 0.359387 0.235122 -0.490324
N4    N     N_2   0.879132 0.685985 0.727770 -0.492208
N5    N     N_2   0.436428 0.393406 0.815587 -0.465438
N6    N     N_2   0.581933 0.547857 0.150385 -0.474039
N7    N     N_2   0.558628 0.679041 0.956585 -0.441745
N8    N     N_2   0.399919 0.407385 0.069732 -0.451790
N9    N     N_R   0.971614 0.465859 0.599756 -0.212046
N10   N     N_R   0.956469 0.520677 0.392705 -0.248901
N11   N     N_R   0.040565 0.466661 0.599901 -0.204852
N12   N     N_2   0.469620 0.445420 0.137370 -0.117596
N13   N     N_2   0.530380 0.554580 0.862630 -0.127155
N14   N     N_2   0.315124 0.648817 0.762561 -0.495632
N15   N     N_2   0.681549 0.296795 0.273355 -0.482323
N16   N     N_2   0.166171 0.635699 0.759080 -0.498770
O1    O     O_R   0.506480 0.332340 0.577400 -0.461090
O2    O     O_R   0.493520 0.667660 0.422600 -0.475862
O3    O     O_R   0.485980 0.295500 0.332650 -0.481152
O4    O     O_R   0.514020 0.704500 0.667350 -0.496152
O5    O     O_R   0.410390 0.518410 0.622410 -0.461774
O6    O     O_R   0.589610 0.481590 0.377590 -0.459168
O7    O     O_R   0.389900 0.481570 0.377660 -0.521790
O8    O     O_R   0.610100 0.518430 0.622340 -0.510228

loop_
_geom_bond_atom_site_label_1
_geom_bond_atom_site_label_2
_ccdc_geom_bond_type
C32   N12   D    
C12   C29   S    
C18   N14   S    
Cu1   Cu2   S    
H3    N16   S    
Cu1   O4    S    
H11   N3    S    
C21   H9    S    
C19   N15   S    
C22   H14   S    
N1    N10   A    
C26   H27   S    
H33   N8    S    
Cu1   O5    S    
C30   C31   S    
H40   N15   S    
C11   C14   A    
Cu1   O1    S    
C23   F4    S    
C32   N6    S    
C25   N5    S    
C30   F2    S    
C8    C16   S    
C22   N3    S    
C9    N3    S    
C18   H39   S    
C7    C17   S    
C27   N7    S    
C3    N14   S    
C19   H42   S    
C20   H5    S    
C19   H2    S    
C21   H8    S    
C27   H30   S    
C24   H18   S    
C18   H34   S    
C4    N15   S    
C1    O1    A    
H29   N7    S    
C33   N13   D    
C21   H10   S    
C20   H4    S    
H20   N5    S    
N8    N12   S    
C22   H13   S    
C6    N2    S    
C26   H26   S    
C23   C30   D    
C4    C6    A    
C5    C7    A    
C24   H17   S    
C6    C8    A    
H23   N14   S    
C2    O8    A    
C31   F1    S    
Cu2   O3    S    
C17   N1    A    
C25   H24   S    
N7    N13   S    
C12   O4    A    
C28   H37   S    
N9    N11   A    
C13   H12   S    
H16   N4    S    
C21   N2    S    
C2    O6    A    
C18   H38   S    
C29   F3    S    
Cu2   O2    S    
C25   H21   S    
H7    N2    S    
C2    C15   S    
C9    C11   A    
C3    C14   A    
C8    C10   A    
C1    C23   S    
C13   C15   A    
C17   N11   A    
C28   H36   S    
C1    O3    A    
C27   H31   S    
H25   N6    S    
C7    C9    A    
C10   N4    S    
Cu2   O7    S    
C34   O7    A    
C3    C5    A    
C10   C13   A    
C14   C34   S    
C16   N10   A    
C22   H15   S    
Cu1   N13   S    
C34   O5    A    
Cu2   O6    S    
C26   H28   S    
C32   C33   S    
C4    C15   A    
C33   N5    S    
C29   C31   D    
Cu1   O8    S    
C24   H19   S    
C11   H1    S    
C25   H22   S    
C12   O2    A    
Cu2   N12   S    
C20   N16   S    
C5    N16   S    
C16   N9    A    
C26   N6    S    
C28   N8    S    
C19   H41   S    
C28   H35   S    
C24   N4    S    
C20   H6    S    
C27   H32   S    
