data_mof_unit_34845.cif
_audit_creation_date              2012-12-11T14:59:09-0500
_audit_creation_method            fapswitch 2.2
_symmetry_space_group_name_H-M    P1
_symmetry_Int_Tables_number       1
_space_group_crystal_system       triclinic
_cell_length_a                    8.175112
_cell_length_b                    15.060264
_cell_length_c                    18.830118
_cell_angle_alpha                 100.391602
_cell_angle_beta                  91.227443
_cell_angle_gamma                 99.173586
_cell_volume                      2248.15262469

loop_
_atom_site_label
_atom_site_type_symbol
_atom_type_description
_atom_site_fract_x
_atom_site_fract_y
_atom_site_fract_z
_atom_type_partial_charge
Ba1   Ba    Ba6+2 0.854120 0.540280 0.465540 1.633971
Ba2   Ba    Ba6+2 0.335710 0.459790 0.534460 1.632643
C1    C     C_3   0.703428 0.865397 0.290722 -0.368555
C2    C     C_3   0.668855 0.771856 0.312200 0.356936
C3    C     C_3   0.457928 0.313219 0.312829 0.311834
C4    C     C_3   0.442047 0.284188 0.230978 -0.395205
C5    C     C_3   0.066884 0.285070 0.729257 0.398895
C6    C     C_3   0.065747 0.264775 0.805590 0.299421
C7    C     C_3   0.537913 0.228381 0.692124 0.332556
C8    C     C_3   0.494502 0.134949 0.713195 -0.342909
C9    C     C_R   0.994537 0.447568 0.046552 0.008279
C10   C     C_R   0.899128 0.400149 0.094133 -0.098951
C11   C     C_R   0.769515 0.413213 0.949588 -0.109301
C12   C     C_3   0.140327 0.720281 0.270816 0.350750
C13   C     C_R   0.933736 0.451098 0.975292 0.015752
C14   C     C_R   0.712870 0.415368 0.879938 -0.070066
C15   C     C_R   0.816480 0.455502 0.831987 -0.019813
C16   C     C_R   0.979293 0.499660 0.856872 -0.002130
C17   C     C_R   0.038043 0.496845 0.928802 0.025707
C18   C     C_R   0.761666 0.452400 0.759797 -0.005704
C19   C     C_R   0.870961 0.488232 0.712255 -0.291985
C20   C     C_R   0.027537 0.538360 0.735730 0.030342
C21   C     C_R   0.081476 0.548139 0.810665 -0.051670
C22   C     C_R   0.158033 0.491057 0.070957 0.023586
C23   C     C_3   0.132437 0.743050 0.195512 -0.362716
C24   C     C_R   0.216572 0.492980 0.143588 -0.002436
C25   C     C_R   0.111417 0.452257 0.192214 -0.035948
C26   C     C_R   0.956836 0.401894 0.164719 -0.025697
C27   C     C_R   0.230940 0.603724 0.842774 -0.006493
C28   C     C_R   0.290847 0.595800 0.910898 -0.100761
C29   C     C_R   0.200571 0.540066 0.953819 0.010096
C30   C     C_R   0.263599 0.533367 0.023498 0.018572
C31   C     C_R   0.430934 0.566718 0.047062 -0.103413
C32   C     C_R   0.380853 0.535409 0.167391 -0.036597
C33   C     C_R   0.487508 0.568435 0.117395 -0.088591
C34   C     C_3   0.248249 0.741152 0.621581 0.319274
C35   C     C_R   0.434173 0.542994 0.240386 -0.000727
C36   C     C_R   0.324116 0.509904 0.289027 -0.300563
C37   C     C_R   0.165167 0.462827 0.266363 0.041059
C38   C     C_R   0.761183 0.235188 0.525415 -0.291743
C39   C     C_R   0.854729 0.177113 0.550919 0.016217
C40   C     C_R   0.793033 0.083092 0.541751 -0.126368
C41   C     C_R   0.637705 0.045352 0.503941 0.010782
C42   C     C_R   0.552615 0.106186 0.474216 -0.110841
C43   C     C_R   0.614065 0.199479 0.484934 0.039335
C44   C     C_R   0.409855 0.908626 0.456765 -0.132944
C45   C     C_3   0.283319 0.845177 0.641535 -0.362872
C46   C     C_R   0.344600 0.815664 0.446988 0.010993
C47   C     C_R   0.584202 0.788475 0.511218 0.064341
C48   C     C_R   0.651069 0.881795 0.521378 -0.120288
C49   C     C_R   0.567054 0.944270 0.493123 0.003100
C50   C     C_R   0.434713 0.755334 0.471585 -0.288990
C51   C     C_3   0.948732 0.256888 0.375296 0.309065
C52   C     C_3   0.913357 0.152960 0.354243 -0.395882
C53   C     C_3   0.739958 0.674971 0.684676 0.299700
C54   C     C_3   0.797612 0.713813 0.763214 -0.396035
H1    H     H_    0.745017 0.774536 0.362293 0.095805
H2    H     H_    0.381755 0.867192 0.685628 0.137015
H3    H     H_    0.324919 0.875468 0.594426 0.054114
H4    H     H_    0.168815 0.871344 0.659962 0.131587
H5    H     H_    0.835601 0.282271 0.394789 0.004706
H6    H     H_    0.047902 0.276392 0.418889 0.073374
H7    H     H_    0.806076 0.131419 0.314278 0.127693
H8    H     H_    0.884557 0.121686 0.402291 0.067734
H9    H     H_    0.023836 0.127482 0.330151 0.128008
H10   H     H_    0.841469 0.644984 0.656741 0.018788
H11   H     H_    0.629743 0.620979 0.682937 0.057336
H12   H     H_    0.836571 0.882497 0.279739 0.148837
H13   H     H_    0.921683 0.757165 0.765760 0.167651
H14   H     H_    0.805257 0.657703 0.793358 0.059525
H15   H     H_    0.709338 0.756457 0.789829 0.125766
H16   H     H_    0.535411 0.757239 0.323070 -0.056982
H17   H     H_    0.672848 0.918365 0.335262 0.073772
H18   H     H_    0.338061 0.331083 0.332072 0.014865
H19   H     H_    0.556764 0.374269 0.326501 0.062144
H20   H     H_    0.341149 0.224471 0.215336 0.126518
H21   H     H_    0.412633 0.341240 0.205744 0.056437
H22   H     H_    0.560654 0.265328 0.210491 0.118305
H23   H     H_    0.626320 0.865452 0.241450 0.111858
H24   H     H_    0.163613 0.685626 0.155175 0.077671
H25   H     H_    0.171015 0.341149 0.726944 0.048832
H26   H     H_    0.948801 0.308301 0.717267 -0.066075
H27   H     H_    0.086133 0.331217 0.844025 -0.044083
H28   H     H_    0.169595 0.227451 0.813929 0.047608
H29   H     H_    0.675017 0.244847 0.690931 -0.013759
H30   H     H_    0.480930 0.224188 0.637267 0.077104
H31   H     H_    0.542533 0.082708 0.673360 0.073639
H32   H     H_    0.357739 0.115631 0.714023 0.138029
H33   H     H_    0.050689 0.656754 0.271223 0.095263
H34   H     H_    0.551268 0.136495 0.767623 0.138034
H35   H     H_    0.829694 0.480862 0.656209 0.068335
H36   H     H_    0.585735 0.384570 0.864479 0.106534
H37   H     H_    0.876804 0.363614 0.197445 0.097654
H38   H     H_    0.616489 0.596346 0.131755 0.113008
H39   H     H_    0.365425 0.517431 0.345083 0.075618
H40   H     H_    0.679557 0.381689 0.982277 0.064279
H41   H     H_    0.778442 0.360002 0.078487 0.056218
H42   H     H_    0.404335 0.640845 0.932096 0.051055
H43   H     H_    0.267687 0.708082 0.282402 -0.061319
H44   H     H_    0.522966 0.590725 0.011640 0.074484
H45   H     H_    0.331416 0.950931 0.437384 0.076603
H46   H     H_    0.870294 0.041585 0.563183 0.078312
H47   H     H_    0.766157 0.903655 0.553181 0.082179
H48   H     H_    0.440645 0.083650 0.440507 0.068183
H49   H     H_    0.382547 0.683440 0.464645 0.072778
H50   H     H_    0.808723 0.307702 0.532542 0.068494
H51   H     H_    0.005550 0.754411 0.181763 0.146460
H52   H     H_    0.222607 0.805826 0.193162 0.113590
H53   H     H_    0.364085 0.715493 0.606728 -0.000572
H54   H     H_    0.155492 0.720754 0.575288 0.064473
O1    O     O_2   0.871030 0.438240 0.324420 -0.465949
O2    O     O_3   0.698864 0.745948 0.652741 -0.632356
O3    O     O_3   0.099171 0.793236 0.321212 -0.599792
O4    O     O_2   0.318670 0.561790 0.675630 -0.484109
O5    O     O_3   0.069120 0.554770 0.586270 -0.495368
O6    O     O_3   0.526680 0.394150 0.629950 -0.474140
O7    O     O_3   0.188276 0.707571 0.681993 -0.610631
O8    O     O_3   0.607620 0.388570 0.462320 -0.479863
O9    O     O_3   0.103380 0.345110 0.593380 -0.491597
O10   O     O_2   0.197936 0.182566 0.549993 -0.484799
O11   O     O_3   0.087927 0.206335 0.679979 -0.608774
O12   O     O_3   0.120590 0.445310 0.413740 -0.493136
O13   O     O_3   0.582100 0.611510 0.537680 -0.489583
O14   O     O_2   0.334040 0.276520 0.462890 -0.461538
O15   O     O_3   0.497806 0.240469 0.343269 -0.642049
O16   O     O_2   0.423443 0.462762 0.757554 -0.513248
O17   O     O_3   0.475534 0.293877 0.742497 -0.614082
O18   O     O_3   0.663040 0.605930 0.370050 -0.487281
O19   O     O_2   0.775506 0.539655 0.243934 -0.493717
O20   O     O_3   0.997270 0.292583 0.314163 -0.642295
O21   O     O_3   0.710869 0.705578 0.256099 -0.607054
O22   O     O_2   0.855660 0.723510 0.537160 -0.464122
O23   O     O_3   0.086340 0.654970 0.406630 -0.490957
O24   O     O_2   0.005808 0.818968 0.454368 -0.490009
P1    P     P_3+3 0.038110 0.412300 0.335300 0.972862
P2    P     P_3+3 0.679950 0.711710 0.558590 0.985044
P3    P     P_3+3 0.133522 0.772198 0.408287 0.944896
P4    P     P_3+3 0.151600 0.587780 0.664700 0.982457
P5    P     P_3+3 0.062153 0.226936 0.592212 0.955041
P6    P     P_3+3 0.645586 0.596996 0.276735 0.935903
P7    P     P_3+3 0.514831 0.273912 0.437467 0.947329
P8    P     P_3+3 0.547930 0.402412 0.723274 0.923082
O25   O     O_3   0.911168 0.212516 0.815388 -0.652811
C55   C     C_3   0.903666 0.195441 0.886818 0.267494
H55   H     H_    0.773977 0.196133 0.903114 0.070534
H56   H     H_    0.983513 0.248917 0.927362 0.022141
C56   C     C_3   0.947427 0.100904 0.889276 -0.186749
H57   H     H_    0.862776 0.048092 0.850591 0.138393
H58   H     H_    0.076787 0.098777 0.873018 0.115732
C57   C     C_3   0.931653 0.078641 0.964996 -0.492753
H59   H     H_    0.017454 0.129811 0.004355 0.134278
H60   H     H_    0.963988 0.009790 0.965073 0.155697
H61   H     H_    0.802356 0.078581 0.981994 0.135299
C58   C     C_2   0.317764 0.682230 0.814813 0.545443
H62   H     H_    0.434488 0.678017 0.789427 -0.012617
O26   O     O_2   0.264483 0.754487 0.824877 -0.580739

loop_
_geom_bond_atom_site_label_1
_geom_bond_atom_site_label_2
_ccdc_geom_bond_type
C53   C54   S    
O23   P3    S    
C53   O2    S    
C32   C35   A    
C39   C40   A    
C56   H57   S    
Ba1   O18   S    
Ba1   O22   S    
C17   C29   A    
O24   P3    D    
Ba1   O13   S    
C42   H48   S    
C12   H43   S    
C52   H9    S    
C37   P1    S    
Ba2   O13   S    
C13   C17   A    
C8    H32   S    
C24   C25   A    
C7    O17   S    
C46   P3    S    
C10   C26   A    
C21   C27   A    
C56   H58   S    
C1    H12   S    
C22   C24   A    
C32   C33   A    
C3    C4    S    
C4    H22   S    
C52   H7    S    
O25   C55   S    
C23   H24   S    
C9    C22   A    
C15   C18   A    
C34   C45   S    
Ba1   Ba2   S    
Ba2   O5    S    
C3    H18   S    
C47   C48   A    
Ba1   O12   S    
O21   P6    S    
C7    H29   S    
C45   H4    S    
C9    C13   A    
C24   C32   A    
O20   P1    S    
Ba2   O9    S    
C25   C37   A    
C14   C15   A    
C57   H61   S    
C36   H39   S    
C3    H19   S    
Ba1   P2    S    
C7    C8    S    
C58   O26   D    
O8    P7    S    
C1    H23   S    
C48   H47   S    
C19   C20   A    
C43   P7    S    
C51   H5    S    
C35   C36   A    
C5    O11   S    
C55   C56   S    
Ba1   O23   S    
C40   H46   S    
C15   C16   A    
C2    O21   S    
Ba2   O12   S    
Ba2   O8    S    
C38   C43   A    
C44   H45   S    
C44   C46   A    
C8    H31   S    
O2    P2    S    
C11   H40   S    
C16   C21   A    
Ba2   P4    S    
C18   P8    S    
C5    C6    S    
C56   C57   S    
C36   C37   A    
C55   H56   S    
O15   P7    S    
C16   C17   A    
C4    H21   S    
C51   C52   S    
C44   C49   A    
C35   P6    S    
C47   C50   A    
C26   H37   S    
O17   P8    S    
C2    H1    S    
C41   C42   A    
C22   C30   A    
C12   H33   S    
C27   C28   A    
C7    H30   S    
C51   H6    S    
C29   C30   A    
O5    P4    S    
O22   P2    D    
C54   H15   S    
C48   C49   A    
C58   H62   S    
O10   P5    D    
C34   O7    S    
C10   H41   S    
O6    P8    S    
C38   C39   A    
C5    H25   S    
C47   P2    S    
C50   H49   S    
C14   H36   S    
C54   H14   S    
C11   C13   A    
C34   H54   S    
C57   H60   S    
O14   P7    D    
C40   C41   A    
C1    C2    S    
C2    H16   S    
C53   H10   S    
C42   C43   A    
C23   H51   S    
C38   H50   S    
C19   H35   S    
C33   H38   S    
C20   P4    S    
C6    H28   S    
C20   C21   A    
C6    H27   S    
C55   H55   S    
O7    P4    S    
Ba2   O6    S    
C53   H11   S    
C9    C10   A    
C4    H20   S    
Ba2   O14   S    
C12   O3    S    
C28   H42   S    
O13   P2    S    
C31   H44   S    
O9    P5    S    
C30   C31   A    
O11   P5    S    
O18   P6    S    
Ba1   O1    S    
C45   H2    S    
Ba2   O4    S    
O1    P1    D    
C28   C29   A    
O19   P6    D    
C52   H8    S    
C41   C49   S    
C31   C33   A    
O16   P8    D    
C6    O25   S    
O3    P3    S    
Ba1   O8    S    
O4    P4    D    
C12   C23   S    
C1    H17   S    
O12   P1    S    
C39   P5    S    
C45   H3    S    
C46   C50   A    
C5    H26   S    
C18   C19   A    
C8    H34   S    
C54   H13   S    
C11   C14   A    
C3    O15   S    
C34   H53   S    
C57   H59   S    
C51   O20   S    
Ba1   O5    S    
Ba1   P1    S    
C23   H52   S    
C27   C58   S    
C25   C26   A    
