data_mof_unit_31266.cif
_audit_creation_date              2012-12-11T15:15:38-0500
_audit_creation_method            fapswitch 2.2
_symmetry_space_group_name_H-M    P1
_symmetry_Int_Tables_number       1
_space_group_crystal_system       triclinic
_cell_length_a                    14.067141
_cell_length_b                    14.105413
_cell_length_c                    28.07833
_cell_angle_alpha                 90.051511
_cell_angle_beta                  89.791298
_cell_angle_gamma                 120.183548
_cell_volume                      4815.97467099

loop_
_atom_site_label
_atom_site_type_symbol
_atom_type_description
_atom_site_fract_x
_atom_site_fract_y
_atom_site_fract_z
_atom_type_partial_charge
C1    C     C_R   0.566240 0.453448 0.566761 0.552844
C2    C     C_3   0.495832 0.991499 0.203346 0.043769
C3    C     C_R   0.371667 0.245234 0.856374 -0.106450
C4    C     C_R   0.298982 0.133610 0.848997 -0.113442
C5    C     C_R   0.330175 0.072878 0.820221 -0.090894
C6    C     C_R   0.304259 0.893585 0.298716 0.035366
C7    C     C_R   0.228465 0.930731 0.299039 -0.096991
C8    C     C_R   0.138520 0.884085 0.330259 -0.122467
C9    C     C_R   0.123653 0.800191 0.361298 -0.106641
C10   C     C_R   0.197883 0.761774 0.360680 -0.118391
C11   C     C_R   0.287780 0.808159 0.329491 -0.106106
C12   C     C_R   0.589551 0.694987 0.298252 0.035618
C13   C     C_3   0.495893 0.504001 0.203260 0.043956
C14   C     C_R   0.702864 0.771156 0.298138 -0.096529
C15   C     C_R   0.746176 0.860892 0.329149 -0.122533
C16   C     C_R   0.676793 0.875203 0.360399 -0.106938
C17   C     C_R   0.563764 0.800629 0.360200 -0.118021
C18   C     C_R   0.520234 0.710881 0.329246 -0.105773
C19   C     C_R   0.103509 0.408456 0.297817 0.035709
C20   C     C_R   0.065625 0.295373 0.297386 -0.096168
C21   C     C_R   0.111007 0.251133 0.328340 -0.122413
C22   C     C_R   0.194384 0.319353 0.359852 -0.107336
C23   C     C_R   0.233717 0.432185 0.359911 -0.118071
C24   C     C_3   0.007254 0.503587 0.203199 0.043767
C25   C     C_R   0.188599 0.476647 0.328990 -0.105649
C26   C     C_3   0.946186 0.416660 0.770175 0.025172
C27   C     C_3   0.561781 0.576591 0.764495 0.024462
C28   C     C_3   0.468975 0.055126 0.770285 0.027519
C29   C     C_3   0.409352 0.953020 0.270381 0.026444
C30   C     C_3   0.543957 0.590204 0.270131 0.026299
C31   C     C_3   0.045127 0.454960 0.269867 0.026346
C32   C     C_3   0.908484 0.483430 0.740291 -0.103385
C33   C     C_R   0.545994 0.112479 0.566531 0.550834
C34   C     C_3   0.505975 0.463933 0.739657 -0.099150
C35   C     C_3   0.573866 0.091267 0.740249 -0.092526
C36   C     C_3   0.463385 0.900362 0.240828 -0.101400
C37   C     C_3   0.436763 0.535743 0.240914 -0.101479
C38   C     C_3   0.099206 0.561750 0.240375 -0.101708
C39   C     C_1   0.050198 0.529465 0.845751 -0.060323
C40   C     C_1   0.438978 0.566479 0.836750 -0.065883
C41   C     C_1   0.477106 0.949599 0.845643 -0.061324
C42   C     C_1   0.527612 0.045317 0.346449 -0.053268
C43   C     C_1   0.518322 0.472391 0.346370 -0.053488
C44   C     C_R   0.887146 0.433629 0.566649 0.550358
C45   C     C_1   0.954698 0.482206 0.346406 -0.053320
C46   C     C_1   0.970106 0.485654 0.652242 -0.058207
C47   C     C_1   0.503566 0.495395 0.648354 -0.057942
C48   C     C_1   0.513946 0.030494 0.652270 -0.058131
C49   C     C_1   0.482465 0.967313 0.152747 -0.057312
C50   C     C_1   0.484806 0.517327 0.152678 -0.057559
C51   C     C_1   0.031390 0.514410 0.152600 -0.057258
C52   C     C_R   0.566707 0.453205 0.434181 0.547454
C53   C     C_R   0.546712 0.113421 0.434208 0.546900
C54   C     C_R   0.886645 0.433321 0.434221 0.546405
C55   C     C_R   0.453696 0.566363 0.066617 0.565621
C56   C     C_R   0.428300 0.599887 0.928246 0.564863
C57   C     C_R   0.114096 0.546914 0.934042 0.542234
C58   C     C_R   0.433200 0.886221 0.934091 0.540620
C59   C     C_3   0.081990 0.606648 0.726865 -0.105913
C60   C     C_3   0.370669 0.490096 0.718041 -0.105729
C61   C     C_3   0.519546 0.917421 0.726727 -0.111354
C62   C     C_3   0.606109 0.064492 0.228085 -0.107554
C63   C     C_3   0.458985 0.394145 0.228153 -0.107460
C64   C     C_3   0.935704 0.541967 0.228388 -0.107557
C65   C     C_3   0.995391 0.590281 0.765205 -0.118562
C66   C     C_R   0.112529 0.546149 0.066581 0.553465
C67   C     C_3   0.393984 0.437409 0.761599 -0.108498
C68   C     C_3   0.591033 0.002758 0.764966 -0.104508
C69   C     C_3   0.574263 0.974156 0.266307 -0.115155
C70   C     C_3   0.400050 0.425286 0.266539 -0.115298
C71   C     C_3   0.026857 0.599936 0.266310 -0.115458
C72   C     C_1   0.072323 0.534704 0.887130 -0.010677
C73   C     C_1   0.433602 0.580886 0.878607 -0.018197
C74   C     C_1   0.462145 0.927643 0.887098 -0.023244
C75   C     C_1   0.533803 0.069360 0.387659 -0.013923
C76   C     C_1   0.535942 0.466174 0.387590 -0.013937
C77   C     C_R   0.433618 0.887272 0.066638 0.554238
C78   C     C_1   0.930832 0.464406 0.387647 -0.014074
C79   C     C_1   0.938569 0.466670 0.611904 -0.015368
C80   C     C_1   0.527930 0.476203 0.609989 -0.018271
C81   C     C_1   0.527046 0.061520 0.611859 -0.014458
C82   C     C_1   0.465211 0.937265 0.112186 -0.014628
C83   C     C_1   0.471924 0.534609 0.112144 -0.015241
C84   C     C_1   0.061827 0.527418 0.112053 -0.014244
C85   C     C_3   0.118232 0.538596 0.757247 -0.114943
C86   C     C_3   0.427882 0.603234 0.743483 -0.121564
C87   C     C_3   0.414969 0.882862 0.757244 -0.121160
C88   C     C_3   0.995886 0.500341 0.702713 0.046607
C89   C     C_3   0.550740 0.116024 0.257998 -0.109753
C90   C     C_3   0.566378 0.449927 0.257738 -0.109784
C91   C     C_3   0.882729 0.434940 0.258246 -0.109533
C92   C     C_3   0.031201 0.522163 0.794707 0.042457
C93   C     C_3   0.451046 0.549926 0.786246 0.040266
C94   C     C_3   0.486890 0.968573 0.794646 0.047483
C95   C     C_3   0.518986 0.025270 0.295449 0.047203
C96   C     C_3   0.506926 0.480982 0.295360 0.046980
C97   C     C_3   0.974308 0.493433 0.295387 0.047299
C98   C     C_3   0.032109 0.431916 0.732088 -0.103255
C99   C     C_3   0.482252 0.516912 0.696837 0.045585
C100  C     C_3   0.539864 0.629899 0.721217 -0.103841
C101  C     C_3   0.397333 0.970682 0.732180 -0.107183
C102  C     C_3   0.439937 0.042863 0.232288 -0.103521
C103  C     C_3   0.603658 0.560313 0.231866 -0.103354
C104  C     C_3   0.954446 0.396202 0.232069 -0.103347
C105  C     C_R   0.874947 0.314905 0.798882 0.032010
C106  C     C_R   0.788962 0.308611 0.826769 -0.103995
C107  C     C_R   0.730366 0.220339 0.857820 -0.103189
C108  C     C_R   0.758743 0.138957 0.861947 -0.103400
C109  C     C_R   0.844532 0.144806 0.834440 -0.123548
C110  C     C_3   0.502168 0.005099 0.702727 0.042160
C111  C     C_R   0.902159 0.232102 0.802808 -0.093479
C112  C     C_R   0.666300 0.630005 0.793004 0.037282
C113  C     C_R   0.720097 0.572369 0.805064 -0.102769
C114  C     C_R   0.810321 0.619349 0.835777 -0.118858
C115  C     C_R   0.850013 0.725528 0.853131 -0.099466
C116  C     C_R   0.798467 0.784410 0.840364 -0.104030
C117  C     C_R   0.706482 0.736651 0.810668 -0.087434
C118  C     C_R   0.434020 0.123778 0.798109 0.037218
C119  C     C_R   0.505864 0.236313 0.804997 -0.109196
C120  C     C_R   0.475064 0.296368 0.834559 -0.122899
Cr1   Cr    Cr6+3 0.504830 0.254570 0.500510 1.029783
Cr2   Cr    Cr6+3 0.745430 0.250260 0.500510 1.029063
Cr3   Cr    Cr6+3 0.749740 0.495170 0.500510 1.029594
Cr4   Cr    Cr6+3 0.254570 0.504830 0.000510 1.026298
Cr5   Cr    Cr6+3 0.250260 0.745430 0.000510 1.021561
Cr6   Cr    Cr6+3 0.495170 0.749740 0.000510 1.020927
H1    H     H_    0.983604 0.657496 0.778731 0.116194
H2    H     H_    0.687089 0.110683 0.209909 0.105305
H3    H     H_    0.424304 0.313442 0.210116 0.105719
H4    H     H_    0.890355 0.577439 0.210525 0.105628
H5    H     H_    0.821960 0.459830 0.732614 0.096960
H6    H     H_    0.538010 0.406589 0.736618 0.101369
H7    H     H_    0.639360 0.176700 0.732332 0.105231
H8    H     H_    0.426730 0.811485 0.233193 0.099740
H9    H     H_    0.383981 0.571747 0.233437 0.099628
H10   H     H_    0.188400 0.613341 0.232432 0.099563
H11   H     H_    0.047476 0.367906 0.717179 0.095089
H12   H     H_    0.332993 0.358803 0.778453 0.120531
H13   H     H_    0.600256 0.708428 0.704063 0.099988
H14   H     H_    0.318278 0.958020 0.717905 0.103013
H15   H     H_    0.385872 0.071244 0.216992 0.094589
H16   H     H_    0.686348 0.614657 0.216302 0.094648
H17   H     H_    0.924504 0.313506 0.216647 0.094219
H18   H     H_    0.204027 0.561288 0.765618 0.104416
H19   H     H_    0.396377 0.660963 0.745514 0.095811
H20   H     H_    0.349086 0.797803 0.765379 0.098778
H21   H     H_    0.587194 0.204698 0.265952 0.098853
H22   H     H_    0.619110 0.414078 0.265544 0.098630
H23   H     H_    0.669532 0.012829 0.778276 0.119467
H24   H     H_    0.793758 0.383348 0.266528 0.098519
H25   H     H_    0.768845 0.373144 0.825166 0.089661
H26   H     H_    0.663954 0.215805 0.879153 0.122311
H27   H     H_    0.714187 0.071248 0.886358 0.116030
H28   H     H_    0.866457 0.081719 0.837683 0.098384
H29   H     H_    0.969900 0.236500 0.782597 0.097837
H30   H     H_    0.691192 0.490509 0.791688 0.078207
H31   H     H_    0.849749 0.573549 0.846085 0.109758
H32   H     H_    0.920482 0.762004 0.876560 0.109530
H33   H     H_    0.828899 0.866503 0.853952 0.098817
H34   H     H_    0.631248 0.947839 0.279517 0.135226
H35   H     H_    0.665584 0.782112 0.801973 0.100526
H36   H     H_    0.585923 0.277146 0.788178 0.087413
H37   H     H_    0.530939 0.382667 0.840610 0.124316
H38   H     H_    0.347898 0.292210 0.878913 0.125537
H39   H     H_    0.218911 0.093875 0.865959 0.107573
H40   H     H_    0.273947 0.985849 0.815622 0.105359
H41   H     H_    0.240281 0.997647 0.276254 0.096181
H42   H     H_    0.080836 0.913608 0.330669 0.101383
H43   H     H_    0.054137 0.764282 0.385478 0.118696
H44   H     H_    0.186093 0.696502 0.384559 0.107936
H45   H     H_    0.316513 0.367906 0.279969 0.135407
H46   H     H_    0.345979 0.779365 0.330082 0.093994
H47   H     H_    0.758269 0.759797 0.275183 0.096089
H48   H     H_    0.833676 0.918851 0.329230 0.100985
H49   H     H_    0.710413 0.944566 0.384415 0.118383
H50   H     H_    0.510015 0.811996 0.384249 0.108072
H51   H     H_    0.432961 0.652334 0.330204 0.093640
H52   H     H_    0.999041 0.240839 0.274236 0.096010
H53   H     H_    0.080870 0.163799 0.328187 0.100692
H54   H     H_    0.229281 0.285002 0.383837 0.118057
H55   H     H_    0.298677 0.485063 0.384119 0.108213
H56   H     H_    0.054734 0.683561 0.279589 0.136036
H57   H     H_    0.217959 0.563743 0.330151 0.093738
H58   H     H_    0.138183 0.684685 0.708254 0.105939
H59   H     H_    0.291963 0.454434 0.698224 0.107387
H60   H     H_    0.540291 0.860886 0.707930 0.103593
O1    O     O_R   0.479630 0.139450 0.552170 -0.509945
O2    O     O_R   0.360080 0.516200 0.048600 -0.491459
O3    O     O_R   0.156120 0.639920 0.048600 -0.494683
O4    O     O_R   0.483800 0.843880 0.048600 -0.496850
O5    O     O_R   0.478560 0.139320 0.448720 -0.507055
O6    O     O_R   0.860680 0.339240 0.448720 -0.506318
O7    O     O_R   0.660760 0.521440 0.448720 -0.506651
O8    O     O_R   0.139320 0.478560 0.948720 -0.515763
O9    O     O_R   0.339240 0.860680 0.948720 -0.507747
O10   O     O_R   0.521440 0.660760 0.948720 -0.501952
O11   O     O_R   0.515210 0.359960 0.452710 -0.502872
O12   O     O_R   0.860550 0.340180 0.552170 -0.509721
O13   O     O_R   0.640040 0.155250 0.452710 -0.502555
O14   O     O_R   0.844750 0.484790 0.452710 -0.503029
O15   O     O_R   0.359960 0.515210 0.952710 -0.498733
O16   O     O_R   0.155250 0.640040 0.952710 -0.504438
O17   O     O_R   0.484790 0.844750 0.952710 -0.521680
O18   O     O_3   0.666667 0.333333 0.499990 -0.250730
O19   O     O_3   0.333333 0.666667 0.999990 -0.276027
O20   O     O_R   0.659820 0.520370 0.552170 -0.509175
O21   O     O_R   0.139450 0.479630 0.052170 -0.508432
O22   O     O_R   0.340180 0.860550 0.052170 -0.507019
O23   O     O_R   0.520370 0.659820 0.052170 -0.504777
O24   O     O_R   0.516200 0.360080 0.548600 -0.498004
O25   O     O_R   0.639920 0.156120 0.548600 -0.497861
O26   O     O_R   0.843880 0.483800 0.548600 -0.498081

loop_
_geom_bond_atom_site_label_1
_geom_bond_atom_site_label_2
_ccdc_geom_bond_type
C65   C92   S    
C48   C110  S    
C66   O3    A    
C44   O12   A    
C60   H59   S    
C87   H20   S    
Cr4   O19   S    
C33   O25   A    
C9    H43   S    
C19   C20   A    
C91   C104  S    
C40   C73   T    
C60   C99   S    
C19   C31   S    
C35   H7    S    
Cr4   O8    S    
C114  C115  A    
C47   C99   S    
C7    C8    A    
C48   C81   T    
C26   C32   S    
C71   C97   S    
C29   C36   S    
C42   C75   T    
C54   O6    A    
Cr3   O18   S    
C77   O4    A    
C65   H1    S    
C2    C49   S    
C23   H55   S    
C14   H47   S    
C90   H22   S    
C109  C111  A    
C46   C79   T    
C89   C102  S    
Cr1   O1    S    
C106  C107  A    
Cr5   O9    S    
Cr6   O19   S    
C26   C92   S    
C15   C16   A    
C32   C88   S    
C62   C89   S    
C58   O9    A    
C69   H34   S    
C54   O14   A    
C108  C109  A    
C119  H36   S    
C28   C94   S    
C64   C71   S    
Cr2   O18   S    
Cr6   O4    S    
C67   H12   S    
C118  C119  A    
C30   C96   S    
C68   H23   S    
C8    H42   S    
C120  H37   S    
C41   C74   T    
C87   C101  S    
C28   C101  S    
C85   C92   S    
C108  H27   S    
C41   C94   S    
C60   C67   S    
C16   C17   A    
C30   C103  S    
C24   C38   S    
C39   C72   T    
C37   H9    S    
C45   C78   T    
C85   C98   S    
C102  H15   S    
C38   H10   S    
Cr2   O13   S    
C13   C103  S    
C86   C100  S    
C9    C10   A    
C40   C93   S    
C13   C37   S    
C17   H50   S    
C87   C94   S    
C24   C51   S    
C23   C25   A    
C105  C111  A    
C77   C82   S    
C34   H6    S    
C11   H46   S    
C24   C64   S    
C56   O10   A    
C21   C22   A    
C71   H56   S    
C53   C75   S    
C47   C80   T    
C27   C112  S    
C61   C110  S    
C85   H18   S    
C112  C113  A    
C101  H14   S    
C50   C83   T    
C43   C96   S    
C46   C88   S    
C22   C23   A    
C27   C34   S    
C27   C100  S    
C86   C93   S    
Cr5   O16   S    
C98   H11   S    
C42   C95   S    
C53   O13   A    
Cr3   O14   S    
C18   H51   S    
C116  H33   S    
C22   H54   S    
C10   C11   A    
C77   O22   A    
C6    C11   A    
C29   C95   S    
C60   C86   S    
C8    C9    A    
C20   H52   S    
C56   O15   A    
C115  H32   S    
C67   C93   S    
C117  H35   S    
C101  C110  S    
Cr1   O24   S    
C68   C94   S    
C30   C37   S    
C44   O26   A    
C49   C82   T    
C57   O16   A    
C70   C96   S    
C70   H45   S    
C59   C85   S    
C114  H31   S    
C109  H28   S    
C100  H13   S    
C55   O23   A    
C99   C100  S    
C13   C63   S    
C63   C70   S    
C21   H53   S    
C5    H40   S    
C107  C108  A    
Cr3   O26   S    
C17   C18   A    
C104  H17   S    
C33   O1    A    
C55   O2    A    
C91   C97   S    
Cr2   O6    S    
C1    O20   A    
C53   O5    A    
Cr1   O11   S    
C35   C110  S    
C25   H57   S    
C3    H38   S    
C26   C98   S    
C107  H26   S    
C16   H49   S    
C12   C14   A    
C58   O17   A    
Cr4   O21   S    
C52   C76   S    
C27   C93   S    
C111  H29   S    
C61   C87   S    
C113  H30   S    
C55   C83   S    
C3    C4    A    
C103  H16   S    
C39   C92   S    
C36   C69   S    
C58   C74   S    
Cr4   O2    S    
C113  C114  A    
C2    C36   S    
C43   C76   T    
C28   C35   S    
C7    H41   S    
C38   C71   S    
C59   C88   S    
C56   C73   S    
C15   H48   S    
C12   C30   S    
C1    O24   A    
Cr2   O25   S    
C5    C118  A    
C44   C79   S    
C52   O7    A    
Cr3   O20   S    
Cr1   O18   S    
C64   H4    S    
C4    C5    A    
C69   C95   S    
Cr6   O23   S    
C36   H8    S    
C34   C67   S    
Cr1   O5    S    
C91   H24   S    
Cr5   O3    S    
C119  C120  A    
C90   C96   S    
C6    C7    A    
C31   C97   S    
Cr6   O17   S    
C10   H44   S    
C34   C99   S    
C105  C106  A    
C57   O8    A    
Cr5   O22   S    
C31   C38   S    
C26   C105  S    
Cr4   O15   S    
C31   C104  S    
C28   C118  S    
C59   C65   S    
C62   H2    S    
C66   O21   A    
Cr2   O12   S    
C61   C68   S    
C112  C117  A    
C89   C95   S    
C35   C68   S    
C89   H21   S    
C116  C117  A    
C63   C90   S    
Cr5   O19   S    
C61   H60   S    
C29   C102  S    
C63   H3    S    
C57   C72   S    
C59   H58   S    
C19   C25   A    
C90   C103  S    
C3    C120  A    
C66   C84   S    
C13   C50   S    
Cr6   O10   S    
C106  H25   S    
C6    C29   S    
C20   C21   A    
C62   C69   S    
C12   C18   A    
C86   H19   S    
C2    C62   S    
C1    C80   S    
C2    C102  S    
C14   C15   A    
Cr3   O7    S    
C45   C97   S    
C52   O11   A    
C64   C91   S    
C24   C104  S    
C4    H39   S    
C37   C70   S    
C33   C81   S    
C51   C84   T    
C32   H5    S    
C88   C98   S    
C115  C116  A    
C32   C65   S    
C54   C78   S    
