data_mof_unit_59799.cif
_audit_creation_date              2012-12-10T17:23:37-0500
_audit_creation_method            fapswitch 2.2
_symmetry_space_group_name_H-M    P1
_symmetry_Int_Tables_number       1
_space_group_crystal_system       triclinic
_cell_length_a                    10.210761
_cell_length_b                    10.499382
_cell_length_c                    15.685087
_cell_angle_alpha                 91.463797
_cell_angle_beta                  80.907391
_cell_angle_gamma                 95.141389
_cell_volume                      1653.62481349

loop_
_atom_site_label
_atom_site_type_symbol
_atom_type_description
_atom_site_fract_x
_atom_site_fract_y
_atom_site_fract_z
_atom_type_partial_charge
C1    C     C_R   0.554930 0.734988 0.491588 0.893177
C2    C     C_3   0.532514 0.385201 0.961693 0.493580
C3    C     C_3   0.588220 0.589718 0.968319 -0.085260
C4    C     C_3   0.410816 0.397902 0.031676 -0.080281
C5    C     C_1   0.498468 0.505324 0.750954 -0.131409
C6    C     C_1   0.499863 0.488683 0.249175 -0.061987
C7    C     C_3   0.374598 0.516591 0.986786 -0.405495
C8    C     C_3   0.624383 0.471119 0.013252 -0.412147
C9    C     C_3   0.498057 0.503068 0.917114 -0.002775
C10   C     C_3   0.500880 0.484620 0.082869 -0.005171
C11   C     C_1   0.497509 0.506296 0.826382 0.084377
C12   C     C_R   0.445304 0.264981 0.502760 0.918831
C13   C     C_1   0.500679 0.483893 0.173762 0.103029
C14   C     C_2   0.581646 0.872793 0.476537 -0.253322
C15   C     C_2   0.419287 0.126587 0.492302 -0.275778
C16   C     C_2   0.686812 0.697651 0.933826 0.895486
C17   C     C_2   0.312990 0.289619 0.066541 0.911807
C18   C     C_3   0.380871 0.797960 0.035509 0.095170
C19   C     C_3   0.367932 0.925254 0.083148 -0.734810
C20   C     C_3   0.622519 0.191841 0.963424 0.087257
C21   C     C_3   0.638100 0.064902 0.915750 -0.761671
C22   C     C_2   0.565472 0.133141 0.347395 0.922838
C23   C     C_2   0.505537 0.928229 0.426099 -0.059389
C24   C     C_2   0.438696 0.855116 0.360526 0.991239
C25   C     C_2   0.319424 0.056833 0.557828 0.863880
C26   C     C_2   0.677730 0.946184 0.525746 0.927058
C27   C     C_3   0.081008 0.254387 0.472455 -0.016926
C28   C     C_3   0.132477 0.156315 0.405027 -0.634917
C29   C     C_3   0.895468 0.383259 0.657668 0.008418
C30   C     C_3   0.814568 0.383937 0.747853 -0.671007
C31   C     C_3   0.156876 0.656961 0.660026 0.221274
C32   C     C_3   0.067163 0.728603 0.728180 -0.837786
C33   C     C_3   0.876755 0.357983 0.333946 0.223768
C34   C     C_2   0.494946 0.066517 0.426375 -0.087289
C35   C     C_3   0.981315 0.355995 0.253260 -0.807829
C36   C     C_2   0.921376 0.471212 0.523613 0.547614
C37   C     C_2   0.073800 0.470151 0.500599 0.537902
C38   C     C_R   0.499834 0.501906 0.661940 0.908254
C39   C     C_R   0.499842 0.497091 0.338095 0.983883
C40   C     C_3   0.466544 0.602455 0.038180 0.498706
H1    H     H_    0.724740 0.452644 0.026191 0.175598
H2    H     H_    0.560734 0.173165 0.027700 0.147449
H3    H     H_    0.723301 0.234357 0.972306 0.149740
H4    H     H_    0.704906 0.079815 0.853042 0.251735
H5    H     H_    0.681654 0.998635 0.955296 0.240579
H6    H     H_    0.539524 0.021474 0.903492 0.263026
H7    H     H_    0.717576 0.136662 0.247976 0.327797
H8    H     H_    0.458659 0.741480 0.255513 0.365018
H9    H     H_    0.183617 0.906728 0.584128 0.357810
H10   H     H_    0.789078 0.945295 0.621244 0.342639
H11   H     H_    0.970956 0.237721 0.484678 0.125806
H12   H     H_    0.274265 0.535426 0.973988 0.174824
H13   H     H_    0.117646 0.236867 0.533810 0.166138
H14   H     H_    0.241108 0.176259 0.384187 0.271601
H15   H     H_    0.111849 0.058792 0.432365 0.249753
H16   H     H_    0.082215 0.159353 0.347537 0.233288
H17   H     H_    0.002641 0.392561 0.664300 0.123416
H18   H     H_    0.870558 0.288940 0.627247 0.130927
H19   H     H_    0.708658 0.354029 0.744373 0.264862
H20   H     H_    0.851374 0.315030 0.789126 0.201666
H21   H     H_    0.822888 0.480623 0.777813 0.258142
H22   H     H_    0.255960 0.711731 0.646948 0.184218
H23   H     H_    0.770976 0.805160 0.831658 0.346680
H24   H     H_    0.164752 0.562004 0.687749 0.139443
H25   H     H_    0.968354 0.674016 0.743430 0.285517
H26   H     H_    0.112530 0.740178 0.788066 0.213107
H27   H     H_    0.052707 0.824526 0.705144 0.257641
H28   H     H_    0.779443 0.359614 0.312378 0.180626
H29   H     H_    0.875403 0.267832 0.369627 0.146973
H30   H     H_    0.082530 0.360098 0.271171 0.305996
H31   H     H_    0.963893 0.267020 0.215345 0.207474
H32   H     H_    0.975613 0.439656 0.212481 0.261924
H33   H     H_    0.231471 0.181046 0.168804 0.343375
H34   H     H_    0.279815 0.758106 0.025248 0.155809
H35   H     H_    0.444758 0.815581 0.971837 0.137940
H36   H     H_    0.466943 0.965885 0.096498 0.262121
H37   H     H_    0.327694 0.993231 0.043043 0.233493
H38   H     H_    0.299469 0.911733 0.145328 0.272408
N1    N     N_2   0.842700 0.448880 0.465440 0.010094
N2    N     N_2   0.157300 0.551120 0.534560 0.025910
O1    O     O_R   0.431060 0.692470 0.506960 -0.608378
O2    O     O_R   0.701701 0.730555 0.846879 -0.815130
O3    O     O_2   0.244541 0.231337 0.018658 -0.611928
O4    O     O_R   0.300582 0.255659 0.153177 -0.804713
O5    O     O_3   0.436508 0.714594 0.086001 -0.601610
O6    O     O_3   0.562419 0.272972 0.913901 -0.599395
O7    O     O_2   0.517414 0.221744 0.318310 -0.677621
O8    O     O_R   0.681876 0.087411 0.302728 -0.779571
O9    O     O_2   0.324259 0.872854 0.353178 -0.583357
O10   O     O_R   0.510948 0.775135 0.302320 -0.809932
O11   O     O_2   0.286324 0.105894 0.628635 -0.638185
O12   O     O_R   0.568940 0.307530 0.493040 -0.605323
O13   O     O_R   0.258319 0.938175 0.537336 -0.758780
O14   O     O_2   0.719314 0.056368 0.506899 -0.638524
O15   O     O_R   0.723383 0.886942 0.592977 -0.778509
O16   O     O_3   0.126116 0.379159 0.442178 -0.592838
O17   O     O_3   0.864580 0.485464 0.609287 -0.573259
O18   O     O_3   0.099477 0.644085 0.584218 -0.544269
O19   O     O_3   0.905800 0.467704 0.383738 -0.538417
O20   O     O_R   0.651120 0.659650 0.484770 -0.542677
O21   O     O_R   0.348880 0.340350 0.515230 -0.593067
O22   O     O_R   0.389990 0.516420 0.634310 -0.678950
O23   O     O_R   0.610010 0.483580 0.365690 -0.616140
O24   O     O_R   0.610050 0.483600 0.612130 -0.542288
O25   O     O_R   0.389950 0.516400 0.387870 -0.565122
O26   O     O_2   0.753859 0.756476 0.982296 -0.601937
Zn1   Zn    Zn3+2 0.353060 0.521920 0.514810 1.033004
Zn2   Zn    Zn3+2 0.646940 0.478080 0.485190 1.082054

loop_
_geom_bond_atom_site_label_1
_geom_bond_atom_site_label_2
_ccdc_geom_bond_type
O21   Zn1   S    
O1    Zn1   S    
C25   O13   S    
C18   H35   S    
C24   O9    D    
C28   H16   S    
O25   Zn1   S    
N2    Zn1   S    
N1    O19   S    
C19   H36   S    
C7    H12   S    
C5    C11   T    
H10   O15   S    
C15   C25   S    
C1    O1    A    
C39   O25   A    
C18   C19   S    
C31   O18   S    
C19   H37   S    
C38   O24   A    
O12   Zn2   S    
C35   H30   S    
C30   H20   S    
C7    C40   S    
C36   O17   S    
C22   O8    S    
C15   C34   D    
C16   O26   D    
C35   H31   S    
C18   H34   S    
H8    O10   S    
C5    C38   S    
C31   H22   S    
C27   O16   S    
C4    C7    S    
C1    O20   A    
C28   H15   S    
C27   H11   S    
C21   H5    S    
C22   C34   S    
C37   N2    D    
O20   Zn2   S    
C18   O5    S    
C25   O11   D    
H23   O2    S    
C8    H1    S    
C3    C8    S    
C28   H14   S    
C10   C13   S    
C37   O16   S    
C20   O6    S    
C33   O19   S    
C40   O5    S    
C19   H38   S    
C2    C4    S    
C29   C30   S    
C3    C9    S    
C21   H4    S    
C31   C32   S    
C12   C15   S    
C23   C24   S    
C23   C34   S    
C30   H19   S    
C16   O2    S    
O22   Zn1   S    
C22   O7    D    
C14   C26   S    
C9    C11   S    
O23   Zn2   S    
C32   H27   S    
C4    C17   S    
C29   H17   S    
C3    C40   S    
C26   O14   D    
C4    C10   S    
O24   Zn2   S    
C20   H3    S    
C29   H18   S    
C32   H26   S    
C21   H6    S    
C26   O15   S    
C7    C9    S    
C36   C37   S    
H33   O4    S    
N2    O18   S    
C31   H24   S    
C12   O12   A    
C2    C8    S    
C36   N1    D    
C24   O10   S    
C35   H32   S    
C20   H2    S    
C27   H13   S    
C39   O23   A    
C33   H29   S    
C14   C23   D    
C29   O17   S    
C17   O4    S    
H9    O13   S    
H7    O8    S    
C12   O21   A    
C38   O22   A    
C6    C13   T    
C33   C35   S    
N1    Zn2   S    
C2    O6    S    
C20   C21   S    
C8    C10   S    
C30   H21   S    
C27   C28   S    
C6    C39   S    
C10   C40   S    
C1    C14   S    
C17   O3    D    
C2    C9    S    
C3    C16   S    
C33   H28   S    
C32   H25   S    
