data_mof_unit_40594.cif
_audit_creation_date              2013-03-05T15:41:32-0500
_audit_creation_method            fapswitch 2.2
_symmetry_space_group_name_H-M    P1
_symmetry_Int_Tables_number       1
_space_group_crystal_system       triclinic
_cell_length_a                    15.834867
_cell_length_b                    8.703818
_cell_length_c                    7.513234
_cell_angle_alpha                 103.565047
_cell_angle_beta                  93.969694
_cell_angle_gamma                 92.428687
_cell_volume                      1002.36542127

loop_
_atom_site_label
_atom_site_type_symbol
_atom_site_description
_atom_site_fract_x
_atom_site_fract_y
_atom_site_fract_z
_atom_type_partial_charge
O1    O     O_R   0.506070 0.286130 0.619780 -0.571032
O2    O     O_R   0.493930 0.713870 0.380220 -0.571068
O3    O     O_R   0.490300 0.256770 0.308360 -0.577739
O4    O     O_R   0.509700 0.743230 0.691640 -0.577742
C1    C     C_R   0.497442 0.199765 0.452948 0.857682
C2    C     C_R   0.502558 0.800235 0.547052 0.857656
O5    O     O_R   0.386960 0.514660 0.655680 -0.552636
O6    O     O_R   0.613040 0.485340 0.344320 -0.552628
O7    O     O_R   0.371190 0.485310 0.344260 -0.542424
O8    O     O_R   0.628810 0.514690 0.655740 -0.542420
C3    C     C_R   0.340268 0.500653 0.502583 0.804971
C4    C     C_R   0.659731 0.499347 0.497417 0.804965
Cu1   Cu    Cu3+1 0.509330 0.517380 0.684380 1.131270
Cu2   Cu    Cu3+1 0.490670 0.482620 0.315620 1.131263
C5    C     C_2   0.496228 0.031358 0.427181 -0.283968
C6    C     C_2   0.503771 0.968642 0.572819 -0.283939
C7    C     C_3   0.972270 0.372021 0.548080 0.293339
C8    C     C_3   0.027730 0.627978 0.451920 0.293339
C9    C     C_3   0.023828 0.371321 0.382247 0.244061
C10   C     C_3   0.976172 0.628679 0.617753 0.244060
H1    H     H_    0.940388 0.496124 0.186395 0.224022
H2    H     H_    0.059612 0.503876 0.813605 0.224022
C11   C     C_1   0.251022 0.503319 0.507899 -0.025414
C12   C     C_1   0.748978 0.496681 0.492101 -0.025409
C13   C     C_3   0.032878 0.502907 0.672729 -0.308901
C14   C     C_3   0.967122 0.497092 0.327270 -0.308899
C15   C     C_3   0.083936 0.504105 0.504609 -0.104227
C16   C     C_3   0.916063 0.495895 0.495391 -0.104228
N1    N     N_2   0.476600 0.456420 0.038510 0.014860
N2    N     N_2   0.523400 0.543580 0.961490 0.014843
H3    H     H_    0.489127 0.958681 0.287347 0.202470
H4    H     H_    0.510873 0.041319 0.712653 0.202492
C17   C     C_1   0.175587 0.504814 0.508230 0.155082
C18   C     C_1   0.824413 0.495185 0.491770 0.155083
Br1   Br    Br    0.058347 0.186358 0.210638 -0.230807
Br2   Br    Br    0.941653 0.813641 0.789362 -0.230807
N3    N     N_R   0.943703 0.229707 0.602323 0.181668
O9    O     O_R   0.999270 0.141579 0.657412 -0.223340
O10   O     O_R   0.863266 0.192804 0.602194 -0.300216
N4    N     N_R   0.056297 0.770293 0.397677 0.181668
O11   O     O_R   0.000730 0.858420 0.342587 -0.223340
O12   O     O_R   0.136734 0.807195 0.397805 -0.300220
N5    N     N_R   0.395247 0.417131 0.955468 0.263047
O13   O     O_R   0.372766 0.269506 0.879784 -0.336174
O14   O     O_R   0.336772 0.517853 0.993294 -0.315592
N6    N     N_R   0.604762 0.582806 0.044493 0.263049
O15   O     O_R   0.627286 0.730420 0.120129 -0.336149
O16   O     O_R   0.663204 0.482016 0.006676 -0.315594

loop_
_geom_bond_atom_site_label_1
_geom_bond_atom_site_label_2
_geom_bond_distance
_ccdc_geom_bond_type
O7    Cu2   1.919395 S    
C5    H3    1.087396 S    
N3    O9    1.299846 A    
C6    H4    1.087396 S    
N5    O14   1.301936 A    
C4    C12   1.417544 S    
C14   C16   1.547948 S    
C8    C14   1.542188 S    
O6    C4    1.301311 A    
C7    C13   1.542188 S    
N4    O12   1.300198 A    
C16   C18   1.449366 S    
N3    O10   1.300198 A    
C7    N3    1.455984 S    
Cu1   Cu2   2.709396 S    
N1    N5    1.384549 S    
O5    C3    1.301312 A    
O7    C3    1.297770 A    
N1    N2    1.295074 D    
O3    Cu2   1.953430 S    
O8    C4    1.297770 A    
O1    C1    1.296320 A    
C3    C11   1.417544 S    
N4    O11   1.299846 A    
C7    C9    1.535129 S    
H1    C14   1.110416 S    
C8    C10   1.535129 S    
N5    O13   1.300582 A    
O2    Cu2   1.954199 S    
N6    O16   1.301918 A    
C1    C5    1.431905 S    
C13   C15   1.547948 S    
C10   C13   1.555413 S    
Cu2   N1    2.035947 S    
C2    C6    1.431905 S    
C5    C6    1.333094 D    
C10   Br2   1.936842 S    
Cu1   N2    2.035948 S    
O5    Cu1   1.933303 S    
O1    Cu1   1.954199 S    
H2    C13   1.110416 S    
O4    C2    1.296016 A    
O4    Cu1   1.953431 S    
C9    Br1   1.936842 S    
C9    C14   1.555414 S    
C8    N4    1.455984 S    
N6    O15   1.300564 A    
O6    Cu2   1.933303 S    
C10   C16   1.540785 S    
C11   C17   1.195300 T    
C7    C16   1.531036 S    
N2    N6    1.384533 S    
C15   C17   1.449366 S    
C8    C15   1.531037 S    
O2    C2    1.296321 A    
C9    C15   1.540787 S    
O3    C1    1.296016 A    
O8    Cu1   1.919395 S    
C12   C18   1.195300 T    
