data_mof_unit_33797.cif
_audit_creation_date              2012-12-10T18:58:15-0500
_audit_creation_method            fapswitch 2.2
_symmetry_space_group_name_H-M    P1
_symmetry_Int_Tables_number       1
_space_group_crystal_system       triclinic
_cell_length_a                    11.097368
_cell_length_b                    11.021949
_cell_length_c                    9.654613
_cell_angle_alpha                 87.230839
_cell_angle_beta                  100.844204
_cell_angle_gamma                 95.149478
_cell_volume                      1154.53493894

loop_
_atom_site_label
_atom_site_type_symbol
_atom_type_description
_atom_site_fract_x
_atom_site_fract_y
_atom_site_fract_z
_atom_type_partial_charge
C1    C     C_R   0.503107 0.263181 0.502597 0.814089
C2    C     C_R   0.406863 0.437425 0.056156 0.244123
C3    C     C_R   0.404790 0.445525 0.907323 -0.145849
C4    C     C_R   0.262370 0.495510 0.444752 0.787782
C5    C     C_R   0.605970 0.527610 0.947246 0.237341
C6    C     C_3   0.695944 0.635227 0.945933 -0.498535
C7    C     C_3   0.693083 0.643839 0.102793 -0.131417
C8    C     C_R   0.496356 0.737093 0.496507 0.792519
C9    C     C_R   0.735678 0.499443 0.554752 0.879963
C10   C     C_2   0.125574 0.492764 0.418220 -0.047034
C11   C     C_2   0.057458 0.444479 0.516413 0.106148
C12   C     C_R   0.505949 0.130694 0.502616 -0.099667
C13   C     C_2   0.868248 0.500594 0.575590 -0.383044
C14   C     C_2   0.923171 0.441915 0.488228 0.188626
C15   C     C_R   0.463404 0.053391 0.602953 0.126207
C16   C     C_3   0.499471 0.102675 0.863252 -0.437944
C17   C     C_3   0.633931 0.074435 0.873622 -0.832627
C18   C     C_3   0.308213 0.349819 0.105429 -0.350763
C19   C     C_3   0.315353 0.219067 0.066883 -0.953907
C20   C     C_3   0.643026 0.761166 0.137401 -0.326555
C21   C     C_3   0.506405 0.773808 0.073316 -0.804493
C22   C     C_3   0.114467 0.392097 0.659819 -0.406702
C23   C     C_R   0.541504 0.073859 0.390605 -0.183396
C24   C     C_3   0.031155 0.300998 0.732357 -0.842005
C25   C     C_3   0.066263 0.550723 0.278370 -0.391260
C26   C     C_3   0.097573 0.688520 0.275448 -0.862811
C27   C     C_3   0.260322 0.854454 0.715326 -0.441244
C28   C     C_3   0.248002 0.720247 0.686632 -0.775236
C29   C     C_3   0.286996 0.121389 0.699084 -0.416411
C30   C     C_3   0.217659 0.125999 0.544030 -0.837329
C31   C     C_R   0.534831 0.945810 0.385727 -0.240398
C32   C     C_R   0.489974 0.869895 0.490215 -0.104018
C33   C     C_R   0.446080 0.929832 0.591870 0.041451
C34   C     C_3   0.393460 0.913381 0.724379 -0.071459
C35   C     C_3   0.407758 0.055201 0.730507 0.216818
C36   C     C_R   0.605333 0.531190 0.092625 0.264834
Cu1   Cu    Cu3+1 0.499990 0.499980 0.640670 0.913903
Cu2   Cu    Cu3+1 0.500010 0.500020 0.359330 0.937395
H1    H     H_    0.329442 0.401174 0.837343 0.144016
H2    H     H_    0.674097 0.122872 0.787271 0.262159
H3    H     H_    0.688509 0.106703 0.975590 0.255324
H4    H     H_    0.499684 0.203139 0.867932 0.238953
H5    H     H_    0.466477 0.062310 0.957914 0.197508
H6    H     H_    0.292673 0.210588 0.952290 0.242334
H7    H     H_    0.408879 0.190330 0.108771 0.270565
H8    H     H_    0.247614 0.157610 0.113700 0.257358
H9    H     H_    0.317329 0.339841 0.218974 0.271907
H10   H     H_    0.215558 0.379868 0.060491 0.179370
H11   H     H_    0.480095 0.731297 0.969728 0.239634
H12   H     H_    0.785787 0.609453 0.926590 0.175884
H13   H     H_    0.443885 0.728526 0.139691 0.279084
H14   H     H_    0.488348 0.871211 0.061500 0.218033
H15   H     H_    0.660027 0.763382 0.253610 0.211012
H16   H     H_    0.699625 0.839940 0.100033 0.193891
H17   H     H_    0.964114 0.348211 0.777628 0.259210
H18   H     H_    0.981277 0.232108 0.657564 0.273602
H19   H     H_    0.088205 0.252720 0.821100 0.238524
H20   H     H_    0.189954 0.341611 0.643393 0.228065
H21   H     H_    0.149316 0.467956 0.731670 0.205833
H22   H     H_    0.065296 0.729920 0.363156 0.252641
H23   H     H_    0.658078 0.711647 0.876696 0.215148
H24   H     H_    0.198389 0.710729 0.285298 0.258695
H25   H     H_    0.051037 0.728793 0.173899 0.241471
H26   H     H_    0.098966 0.510410 0.190305 0.212663
H27   H     H_    0.964975 0.534462 0.256523 0.222940
H28   H     H_    0.261582 0.709749 0.577427 0.267130
H29   H     H_    0.315239 0.671327 0.764023 0.274674
H30   H     H_    0.153464 0.681962 0.694458 0.218039
H31   H     H_    0.232216 0.865556 0.818269 0.207952
H32   H     H_    0.193138 0.896784 0.632446 0.237254
H33   H     H_    0.253646 0.206448 0.486145 0.229417
H34   H     H_    0.783302 0.627774 0.170244 0.150199
H35   H     H_    0.225739 0.044494 0.484749 0.248755
H36   H     H_    0.118423 0.134416 0.541142 0.258532
H37   H     H_    0.222954 0.082335 0.768180 0.195509
H38   H     H_    0.313505 0.216095 0.729437 0.201066
H39   H     H_    0.922836 0.551828 0.662445 0.126052
H40   H     H_    0.575438 0.127692 0.307086 0.188886
H41   H     H_    0.566830 0.908921 0.301157 0.174099
H42   H     H_    0.458871 0.868376 0.805937 0.164348
H43   H     H_    0.642410 0.975318 0.869390 0.238206
I1    I     I_    0.830162 0.310287 0.339632 -0.486403
N1    N     N_R   0.500780 0.500930 0.148120 -0.210653
N2    N     N_R   0.500790 0.500890 0.852210 -0.212630
O1    O     O_R   0.500000 0.319640 0.618810 -0.582844
O2    O     O_R   0.500010 0.319680 0.381230 -0.584520
O3    O     O_R   0.320680 0.500000 0.575130 -0.607612
O4    O     O_R   0.320690 0.500040 0.337550 -0.601943
O5    O     O_R   0.499990 0.680320 0.618770 -0.580296
O6    O     O_R   0.500000 0.680360 0.381190 -0.593194
O7    O     O_R   0.679310 0.499960 0.662450 -0.578769
O8    O     O_R   0.679320 0.500000 0.424870 -0.554173

loop_
_geom_bond_atom_site_label_1
_geom_bond_atom_site_label_2
_ccdc_geom_bond_type
Cu2   N1    S    
C2    C18   S    
C7    C36   S    
C18   H9    S    
C9    O7    A    
C21   H11   S    
C30   H33   S    
C19   H8    S    
C4    O3    A    
C24   H17   S    
C12   C23   A    
Cu1   Cu2   S    
Cu2   O2    S    
C6    H23   S    
Cu1   O1    S    
C28   H30   S    
C18   C19   S    
C16   C35   S    
C5    C6    S    
C30   H36   S    
C11   C14   S    
C36   N1    A    
C5    C36   A    
Cu2   O8    S    
C34   C35   S    
C9    C13   S    
C34   H42   S    
C24   H19   S    
Cu1   N2    S    
C27   H31   S    
C3    H1    S    
C22   H21   S    
C13   C14   D    
C2    N1    A    
C1    C12   S    
C9    O8    A    
C15   C35   S    
C27   C34   S    
C1    O1    A    
C13   H39   S    
Cu1   O7    S    
C8    C32   S    
C28   H29   S    
C25   H27   S    
C20   H16   S    
C7    H34   S    
C29   H38   S    
C5    N2    A    
C16   C17   S    
C25   C26   S    
Cu2   O4    S    
C17   H2    S    
C23   C31   A    
C28   H28   S    
C26   H25   S    
C29   C30   S    
C31   C32   A    
C12   C15   A    
C33   C34   S    
C6    H12   S    
C16   H5    S    
C27   H32   S    
C4    O4    A    
C10   C25   S    
C22   C24   S    
C8    O6    A    
C14   I1    S    
C4    C10   S    
C16   H4    S    
C21   H13   S    
C19   H6    S    
C1    O2    A    
C30   H35   S    
Cu2   O6    S    
Cu1   O3    S    
C20   H15   S    
C18   H10   S    
C22   H20   S    
C19   H7    S    
C31   H41   S    
C6    C7    S    
C29   H37   S    
C24   H18   S    
C29   C35   S    
C11   C22   S    
Cu1   O5    S    
C32   C33   A    
C2    C3    A    
C26   H24   S    
C15   C33   A    
C17   H43   S    
C23   H40   S    
C17   H3    S    
C10   C11   D    
C20   C21   S    
C7    C20   S    
C3    N2    A    
C8    O5    A    
C26   H22   S    
C25   H26   S    
C21   H14   S    
C27   C28   S    
