data_mof_unit_52933.cif
_audit_creation_date              2012-12-11T15:20:20-0500
_audit_creation_method            fapswitch 2.2
_symmetry_space_group_name_H-M    P1
_symmetry_Int_Tables_number       1
_space_group_crystal_system       triclinic
_cell_length_a                    12.918254
_cell_length_b                    13.030228
_cell_length_c                    15.235891
_cell_angle_alpha                 117.030048
_cell_angle_beta                  63.210634
_cell_angle_gamma                 97.481824
_cell_volume                      2030.29194753

loop_
_atom_site_label
_atom_site_type_symbol
_atom_type_description
_atom_site_fract_x
_atom_site_fract_y
_atom_site_fract_z
_atom_type_partial_charge
C1    C     C_R   0.000707 0.833601 0.055133 -0.122187
C2    C     C_R   0.667485 0.561110 0.323543 0.062817
C3    C     C_R   0.664493 0.455630 0.921276 0.160444
C4    C     C_R   0.075225 0.796923 0.303783 0.061037
C5    C     C_R   0.339560 0.514083 0.947305 -0.113941
C6    C     C_R   0.978629 0.178280 0.779349 -0.126613
C7    C     C_R   0.198543 0.511647 0.695164 -0.145379
C8    C     C_R   0.051638 0.255806 0.088421 -0.132878
C9    C     C_R   0.950675 0.171685 0.994056 -0.114500
C10   C     C_R   0.299971 0.595840 0.790427 -0.142782
C11   C     C_R   0.259850 0.414571 0.045081 -0.156501
C12   C     C_R   0.678065 0.481263 0.219589 -0.124676
C13   C     C_R   0.064680 0.279510 0.684743 -0.128309
C14   C     C_R   0.363493 0.431146 0.969883 0.152763
C15   C     C_R   0.057851 0.168395 0.676007 0.050743
C16   C     C_R   0.295489 0.571317 0.693929 0.070746
C17   C     C_R   0.007769 0.151969 0.044168 0.053810
C18   C     C_R   0.159411 0.977749 0.380408 -0.173088
C19   C     C_R   0.158238 0.070020 0.473665 -0.190564
C20   C     C_R   0.110510 0.061715 0.572921 0.110552
C21   C     C_R   0.094463 0.951160 0.570196 0.035817
C22   C     C_R   0.094256 0.858425 0.475740 -0.215392
C23   C     C_R   0.756968 0.518258 0.891027 -0.166711
C24   C     C_R   0.114766 0.875816 0.385141 0.129476
C25   C     C_R   0.559288 0.676063 0.528945 0.014967
C26   C     C_R   0.467972 0.669890 0.620518 -0.231470
C27   C     C_R   0.372846 0.609499 0.610939 0.125676
C28   C     C_R   0.357736 0.578937 0.517042 -0.235257
C29   C     C_R   0.448539 0.584689 0.424918 0.017187
C30   C     C_R   0.557410 0.615122 0.425688 0.101726
C31   C     C_2   0.478037 0.386648 0.938460 -0.198807
C32   C     C_2   0.571796 0.431735 0.888192 -0.203411
C33   C     C_2   0.832665 0.959173 0.093380 -0.213463
C34   C     C_R   0.015337 0.701225 0.304234 -0.137723
C35   C     C_2   0.821071 0.044550 0.190045 -0.141314
C36   C     C_R   0.677365 0.418943 0.987419 -0.125460
C37   C     C_R   0.096892 0.800035 0.207746 -0.147835
C38   C     C_R   0.780087 0.566494 0.315289 -0.126385
C39   C     C_R   0.900347 0.748364 0.957512 -0.149088
C40   C     C_R   0.912518 0.853500 0.034338 0.140551
H1    H     H_    0.030195 0.895889 0.113551 0.094063
H2    H     H_    0.945339 0.109659 0.802140 0.110104
H3    H     H_    0.158725 0.493451 0.641298 0.083209
H4    H     H_    0.088522 0.275909 0.144820 0.087025
H5    H     H_    0.894015 0.113868 0.963413 0.088857
H6    H     H_    0.353531 0.655297 0.824408 0.083319
H7    H     H_    0.249320 0.359624 0.083659 0.092753
H8    H     H_    0.116086 0.306351 0.621624 0.093559
H9    H     H_    0.183605 0.991925 0.309299 0.108107
H10   H     H_    0.182402 0.150568 0.469184 0.113877
H11   H     H_    0.610576 0.450656 0.193724 0.112047
H12   H     H_    0.070773 0.775948 0.476355 0.104175
H13   H     H_    0.475772 0.707167 0.696515 0.111877
H14   H     H_    0.278794 0.544742 0.511739 0.110580
H15   H     H_    0.570248 0.475212 0.842681 0.125281
H16   H     H_    0.776804 0.965681 0.059818 0.132798
H17   H     H_    0.871689 0.042528 0.229997 0.128018
H18   H     H_    0.781209 0.546775 0.828362 0.090380
H19   H     H_    0.997737 0.663138 0.358887 0.082057
H20   H     H_    0.631279 0.354683 0.013087 0.080146
H21   H     H_    0.155997 0.852235 0.172135 0.085216
H22   H     H_    0.807920 0.615410 0.378235 0.113609
H23   H     H_    0.836137 0.731912 0.926774 0.100082
H24   H     H_    0.399179 0.551359 0.895219 0.089251
N1    N     N_R   0.037310 0.720000 0.995790 -0.044139
N2    N     N_R   0.946240 0.290860 0.848040 -0.042452
N3    N     N_R   0.146140 0.501160 0.788590 -0.036983
N4    N     N_R   0.025760 0.332690 0.063610 -0.037470
N5    N     N_R   0.962690 0.280000 0.004210 -0.041612
N6    N     N_R   0.209210 0.553840 0.847990 -0.037713
N7    N     N_R   0.175110 0.482040 0.063580 -0.040609
N8    N     N_R   0.996790 0.351810 0.788620 -0.039083
N9    N     N_R   0.790790 0.446160 0.152010 -0.044059
N10   N     N_R   0.824890 0.517960 0.936420 -0.037831
N11   N     N_R   0.003210 0.648190 0.211380 -0.036953
N12   N     N_R   0.774330 0.457010 0.995840 -0.043257
N13   N     N_R   0.053760 0.709140 0.151960 -0.036563
N14   N     N_R   0.853860 0.498840 0.211410 -0.043804
N15   N     N_R   0.974240 0.667310 0.936390 -0.040620
N16   N     N_R   0.225670 0.542990 0.004160 -0.045323
Ni1   Ni    Ni4+2 0.130310 0.630310 0.999970 0.208554
Ni2   Ni    Ni4+2 0.869690 0.369690 0.000030 0.210017
Ni3   Ni    Ni4+2 0.985640 0.509470 0.863740 0.209454
Ni4   Ni    Ni4+2 0.014360 0.490530 0.136260 0.209702
N17   N     N_3   0.073719 0.934396 0.663487 -0.229808
H25   H     H_    0.148816 0.952807 0.675574 0.113363
H26   H     H_    0.062277 0.847757 0.647312 0.096474
N18   N     N_3   0.652962 0.743144 0.541765 -0.223237
H27   H     H_    0.618387 0.828839 0.597407 0.115062
H28   H     H_    0.687860 0.712959 0.576714 0.090204
N19   N     N_3   0.429394 0.558880 0.331761 -0.222824
H29   H     H_    0.362409 0.617916 0.356949 0.115448
H30   H     H_    0.400463 0.476260 0.306895 0.088660
H31   H     H_    0.480996 0.338997 0.980052 0.122439

loop_
_geom_bond_atom_site_label_1
_geom_bond_atom_site_label_2
_ccdc_geom_bond_type
C23   H18   S    
C9    H5    S    
N1    N15   A    
C11   H7    S    
C19   C20   A    
C14   C31   S    
C2    C12   A    
N17   H25   S    
N3    Ni3   S    
C26   C27   A    
N10   N12   A    
C18   C24   A    
C28   C29   A    
C9    N5    A    
C4    C24   S    
C11   C14   A    
C11   N7    A    
N11   Ni4   S    
N19   H30   S    
C18   C19   A    
N6    Ni1   S    
N5    Ni2   S    
C36   N12   A    
C1    C40   A    
C6    C15   A    
C3    C23   A    
N2    N8    A    
N4    N5    A    
C10   H6    S    
C1    N1    A    
N9    N14   A    
C7    H3    S    
N10   Ni3   S    
C32   H15   S    
N19   H29   S    
C34   N11   A    
C16   C27   S    
C12   N9    A    
N7    N16   A    
C21   N17   S    
N17   H26   S    
C15   C20   S    
C4    C34   A    
C33   C40   S    
N4    Ni4   S    
N12   Ni2   S    
C39   C40   A    
C28   H14   S    
C38   N14   A    
C25   C26   A    
C37   N13   A    
C25   N18   S    
C5    H24   S    
C39   N15   A    
C29   C30   A    
N2    Ni2   S    
C2    C38   A    
N1    Ni1   S    
C31   C32   D    
N13   Ni1   S    
C20   C21   A    
N18   H27   S    
C5    N16   A    
N11   N13   A    
C5    C14   A    
C10   N6    A    
C9    C17   A    
C7    C16   A    
N18   H28   S    
C8    N4    A    
C13   C15   A    
C34   H19   S    
C22   C24   A    
C23   N10   A    
C26   H13   S    
N9    Ni2   S    
C29   N19   S    
C12   H11   S    
C22   H12   S    
N7    Ni4   S    
C1    H1    S    
C25   C30   A    
C8    H4    S    
N16   Ni1   S    
C36   H20   S    
C13   H8    S    
C37   H21   S    
C13   N8    A    
C31   H31   S    
C39   H23   S    
C8    C17   A    
C35   H17   S    
C2    C30   S    
N3    N6    A    
C10   C16   A    
N15   Ni3   S    
C19   H10   S    
C3    C36   A    
C33   H16   S    
C33   C35   D    
C3    C32   S    
N8    Ni3   S    
C7    N3    A    
N14   Ni4   S    
C6    N2    A    
C4    C37   A    
C6    H2    S    
C27   C28   A    
C21   C22   A    
C18   H9    S    
C38   H22   S    
