data_mof_unit_45783.cif
_audit_creation_date              2012-12-11T15:48:47-0500
_audit_creation_method            fapswitch 2.2
_symmetry_space_group_name_H-M    P1
_symmetry_Int_Tables_number       1
_space_group_crystal_system       triclinic
_cell_length_a                    11.055466
_cell_length_b                    11.150458
_cell_length_c                    18.759711
_cell_angle_alpha                 91.323787
_cell_angle_beta                  90.514588
_cell_angle_gamma                 60.510306
_cell_volume                      2012.42312914

loop_
_atom_site_label
_atom_site_type_symbol
_atom_type_description
_atom_site_fract_x
_atom_site_fract_y
_atom_site_fract_z
_atom_type_partial_charge
C1    C     C_R   0.236050 0.648133 0.608697 0.520112
C2    C     C_R   0.579598 0.128474 0.705915 0.209055
C3    C     C_R   0.574889 0.133644 0.780770 -0.181688
C4    C     C_R   0.631543 0.593528 0.608206 0.571989
C5    C     C_3   0.920781 0.097915 0.793362 0.166472
C6    C     C_3   0.921283 0.123206 0.713563 -0.275059
C7    C     C_R   0.673639 0.160384 0.671323 0.018203
C8    C     C_R   0.166254 0.675942 0.831027 -0.003189
C9    C     C_R   0.137077 0.588757 0.788366 -0.027040
C10   C     C_R   0.141599 0.590411 0.714279 0.083095
C11   C     C_R   0.189861 0.776905 0.722377 -0.182847
C12   C     C_3   0.679791 0.534933 0.806138 -0.216315
C13   C     C_R   0.189710 0.772267 0.796158 -0.137153
C14   C     C_3   0.207779 0.435263 0.786791 -0.246792
C15   C     C_3   0.207001 0.439586 0.705677 0.124604
C16   C     C_R   0.629641 0.226249 0.601734 0.558018
C17   C     C_R   0.178092 0.677179 0.680488 -0.015530
C18   C     C_R   0.652803 0.661058 0.165308 0.019345
C19   C     C_R   0.745553 0.539998 0.200832 0.036776
C20   C     C_R   0.741136 0.531976 0.273500 0.038164
C21   C     C_R   0.535011 0.753311 0.279135 -0.161353
C22   C     C_R   0.538680 0.762255 0.204352 -0.171960
C23   C     C_3   0.692474 0.666094 0.815564 0.028003
C24   C     C_3   0.901771 0.457308 0.201342 -0.262227
C25   C     C_3   0.894919 0.451236 0.281388 -0.282381
C26   C     C_R   0.644155 0.641685 0.314835 0.018788
C27   C     C_R   0.635445 0.190103 0.168351 0.022086
C28   C     C_R   0.221545 0.648257 0.402175 0.550305
C29   C     C_R   0.517109 0.211054 0.205653 0.021649
C30   C     C_R   0.513527 0.222392 0.278605 0.034961
C31   C     C_R   0.731606 0.221082 0.278633 -0.155158
C32   C     C_R   0.733866 0.213406 0.204309 -0.155712
C33   C     C_3   0.443281 0.128667 0.206672 -0.270613
C34   C     C_3   0.652226 0.624783 0.682248 -0.012350
C35   C     C_3   0.439436 0.142412 0.287022 -0.279758
C36   C     C_R   0.626660 0.212998 0.316485 0.023047
C37   C     C_R   0.117297 0.692131 0.188533 0.025846
C38   C     C_R   0.071214 0.809265 0.232510 0.043708
C39   C     C_R   0.085094 0.799762 0.304943 0.016349
C40   C     C_R   0.639118 0.618392 0.390743 0.553374
C41   C     C_R   0.171251 0.554436 0.293527 -0.165652
C42   C     C_R   0.158031 0.565028 0.219633 -0.175416
C43   C     C_3   0.103006 0.924474 0.229450 -0.265912
C44   C     C_3   0.115479 0.917156 0.309601 -0.271771
C45   C     C_3   0.800768 0.607452 0.693627 0.158422
C46   C     C_R   0.147820 0.670254 0.335890 0.016236
C47   C     C_R   0.701761 0.096442 0.895081 0.574717
C48   C     C_R   0.722102 0.686326 0.889724 0.564635
C49   C     C_R   0.114286 0.708133 0.904551 0.529802
C50   C     C_R   0.673128 0.111145 0.102218 0.555452
C51   C     C_R   0.695787 0.689743 0.096915 0.540284
C52   C     C_R   0.611732 0.238211 0.392473 0.550224
C53   C     C_R   0.087635 0.713747 0.113774 0.540826
C54   C     C_3   0.558551 0.790861 0.788673 0.155703
C55   C     C_3   0.538746 0.766405 0.709405 -0.210131
C56   C     C_3   0.638688 0.521237 0.729377 -0.306461
C57   C     C_3   0.815059 0.651956 0.769482 -0.250001
C58   C     C_3   0.381837 0.096606 0.693196 -0.009996
C59   C     C_3   0.299933 0.069031 0.635625 -0.343660
C60   C     C_3   0.378799 0.929323 0.871028 -0.000964
C61   C     C_3   0.357846 0.894358 0.946812 -0.287217
C62   C     C_3   0.124648 0.397778 0.598407 0.024151
C63   C     C_3   0.042614 0.336494 0.561850 -0.348390
C64   C     C_3   0.775396 0.794143 0.622654 0.011789
C65   C     C_3   0.860949 0.837176 0.577785 -0.363890
C66   C     C_R   0.677653 0.144395 0.821787 -0.026036
C67   C     C_R   0.770108 0.168868 0.786344 0.029617
C68   C     C_R   0.765262 0.185311 0.713607 -0.100336
Cr1   Cr    Cr6+3 0.392960 0.397920 0.502240 0.974105
Cr2   Cr    Cr6+3 0.398340 0.708480 0.501250 0.984101
Cr3   Cr    Cr6+3 0.708670 0.393570 0.496460 0.977229
Cr4   Cr    Cr6+3 0.937650 0.938540 0.007610 1.054974
Cr5   Cr    Cr6+3 0.625330 0.937370 0.994520 0.972862
Cr6   Cr    Cr6+3 0.937940 0.625230 0.001190 1.038654
H1    H     H_    0.576319 0.880566 0.792190 0.098424
H2    H     H_    0.197322 0.851720 0.825753 0.206317
H3    H     H_    0.141607 0.397340 0.809376 0.216692
H4    H     H_    0.313830 0.388398 0.810090 0.096964
H5    H     H_    0.314469 0.389382 0.683660 0.145936
H6    H     H_    0.450509 0.835537 0.308910 0.120962
H7    H     H_    0.458437 0.851831 0.178178 0.113090
H8    H     H_    0.951804 0.517148 0.184829 0.174655
H9    H     H_    0.941759 0.355062 0.174189 0.127060
H10   H     H_    0.932594 0.345445 0.300671 0.129397
H11   H     H_    0.435412 0.775701 0.701248 0.160121
H12   H     H_    0.710739 0.418460 0.708106 0.133980
H13   H     H_    0.937458 0.510342 0.310393 0.141896
H14   H     H_    0.814039 0.227952 0.306315 0.127951
H15   H     H_    0.819929 0.210592 0.175885 0.121746
H16   H     H_    0.510588 0.021030 0.187918 0.168778
H17   H     H_    0.338727 0.183502 0.181753 0.127747
H18   H     H_    0.332706 0.206223 0.308758 0.131375
H19   H     H_    0.503817 0.042923 0.314078 0.138897
H20   H     H_    0.214550 0.453194 0.316095 0.139566
H21   H     H_    0.185464 0.473710 0.187028 0.123068
H22   H     H_    0.013984 0.021126 0.210870 0.140398
H23   H     H_    0.914109 0.570771 0.791435 0.167584
H24   H     H_    0.544450 0.843229 0.677295 0.132195
H25   H     H_    0.203172 0.893903 0.202033 0.136978
H26   H     H_    0.222029 0.888703 0.327107 0.163575
H27   H     H_    0.031478 0.009104 0.337546 0.126898
H28   H     H_    0.820043 0.749079 0.771068 0.104892
H29   H     H_    0.784154 0.447934 0.813455 0.225741
H30   H     H_    0.606124 0.531667 0.845021 0.181642
H31   H     H_    0.531783 0.534987 0.727786 0.141494
H32   H     H_    0.319555 0.196886 0.717509 0.182873
H33   H     H_    0.397493 0.028704 0.737283 0.103265
H34   H     H_    0.870574 0.494121 0.692438 0.212707
H35   H     H_    0.313140 0.107167 0.584019 0.165772
H36   H     H_    0.336802 0.958191 0.626990 0.132726
H37   H     H_    0.189121 0.117918 0.651374 0.133160
H38   H     H_    0.070683 0.134221 0.960078 0.349144
H39   H     H_    0.278544 0.001108 0.846341 0.197405
H40   H     H_    0.435150 0.988191 0.875022 0.145848
H41   H     H_    0.454030 0.810496 0.969549 0.178253
H42   H     H_    0.319944 0.986651 0.982529 0.089657
H43   H     H_    0.283827 0.855661 0.946792 0.191775
H44   H     H_    0.233783 0.337366 0.579471 0.166273
H45   H     H_    0.499149 0.116069 0.806924 0.117356
H46   H     H_    0.079090 0.505331 0.580297 0.202580
H47   H     H_    0.972129 0.408612 0.521370 0.167971
H48   H     H_    0.111805 0.240268 0.531769 0.055191
H49   H     H_    0.982724 0.313595 0.601001 0.185626
H50   H     H_    0.741024 0.861079 0.671027 0.153033
H51   H     H_    0.686097 0.809092 0.589228 0.185844
H52   H     H_    0.913888 0.761035 0.533704 0.155831
H53   H     H_    0.792197 0.939317 0.554428 0.120299
H54   H     H_    0.939326 0.845558 0.611427 0.140238
H55   H     H_    0.958144 0.989264 0.806267 0.117612
H56   H     H_    0.952851 0.200775 0.701201 0.166757
H57   H     H_    0.972520 0.027710 0.680135 0.099730
H58   H     H_    0.207777 0.854283 0.698712 0.138213
O1    O     O_R   0.507380 0.255700 0.581440 -0.488979
O2    O     O_R   0.837170 0.593410 0.915250 -0.486819
O3    O     O_R   0.065200 0.635530 0.931570 -0.498874
O4    O     O_R   0.280320 0.527350 0.578930 -0.552496
O5    O     O_R   0.068260 0.828890 0.091840 -0.525829
O6    O     O_R   0.798870 0.057410 0.079340 -0.501084
O7    O     O_R   0.584930 0.080350 0.076780 -0.526277
O8    O     O_R   0.626960 0.809650 0.067060 -0.527550
O9    O     O_R   0.816040 0.596610 0.076510 -0.514014
O10   O     O_R   0.045610 0.638500 0.081060 -0.514948
O11   O     O_3   0.833640 0.833710 0.001100 -0.273320
O12   O     O_R   0.524480 0.695810 0.424040 -0.504151
O13   O     O_R   0.260510 0.739590 0.584590 -0.539652
O14   O     O_R   0.532300 0.695080 0.573820 -0.522874
O15   O     O_R   0.744840 0.503500 0.576370 -0.517973
O16   O     O_R   0.699120 0.276560 0.571960 -0.529207
O17   O     O_R   0.498940 0.256500 0.419860 -0.522780
O18   O     O_R   0.272500 0.528080 0.429150 -0.519379
O19   O     O_R   0.252060 0.740380 0.423010 -0.524392
O20   O     O_3   0.506849 0.079894 0.663608 -0.581420
O21   O     O_2   0.041186 0.254485 0.822539 -0.364472
O22   O     O_2   0.844911 0.292568 0.899533 -0.314816
O23   O     O_R   0.736390 0.504290 0.414790 -0.526604
O24   O     O_3   0.074330 0.076543 0.918286 -0.547762
O25   O     O_3   0.442831 0.806573 0.828673 -0.591980
O26   O     O_3   0.116804 0.396642 0.673891 -0.572786
O27   O     O_3   0.856928 0.654348 0.639777 -0.553673
O28   O     O_R   0.691300 0.277290 0.422170 -0.513082
O29   O     O_3   0.499990 0.499990 0.499980 -0.266187
O30   O     O_R   0.089400 0.825690 0.930570 -0.505464
O31   O     O_R   0.818460 0.054440 0.929850 -0.428501
O32   O     O_R   0.606060 0.077150 0.915510 -0.560933
O33   O     O_R   0.646550 0.806680 0.917570 -0.524428
S1    S     S_3+6 0.969482 0.187610 0.858050 -0.053225

loop_
_geom_bond_atom_site_label_1
_geom_bond_atom_site_label_2
_ccdc_geom_bond_type
C52   O28   A    
Cr4   O11   S    
Cr3   O15   S    
Cr6   O11   S    
C28   O18   A    
C8    C13   A    
O21   S1    D    
C27   C29   A    
C11   C13   A    
C41   C42   A    
C1    O13   A    
C2    C7    A    
C45   O27   S    
C6    H56   S    
C11   H58   S    
C34   C56   S    
Cr3   O28   S    
C12   C23   S    
C45   C57   S    
C37   C38   A    
C30   C35   S    
C53   O5    A    
Cr1   O18   S    
C65   H53   S    
C48   O2    A    
Cr4   O6    S    
C24   H9    S    
Cr1   O29   S    
C12   H30   S    
Cr5   O32   S    
C10   C15   S    
C33   H17   S    
C38   C39   A    
C20   C25   S    
C10   C17   A    
C29   C33   S    
C25   H13   S    
C59   H36   S    
C21   H6    S    
C45   H34   S    
C53   O10   A    
C14   H3    S    
C37   C42   A    
C24   H8    S    
C33   C35   S    
C7    C68   A    
C60   H40   S    
C15   H5    S    
C48   O33   A    
C41   H20   S    
C52   O17   A    
C61   H41   S    
C25   H10   S    
C59   H37   S    
C41   C46   A    
C62   O26   S    
C40   O23   A    
Cr2   O14   S    
C1    O4    A    
C9    C10   A    
C47   C66   S    
C62   H46   S    
C36   C52   S    
C27   C50   S    
C5    C67   S    
C47   O31   A    
C35   H18   S    
C6    C68   S    
C66   C67   A    
C49   O3    A    
C4    O14   A    
C34   C55   S    
C21   C22   A    
Cr3   O16   S    
C60   H39   S    
C16   O1    A    
C63   H47   S    
C21   C26   A    
C58   O20   S    
C18   C51   S    
C31   C36   A    
C51   O9    A    
C2    O20   S    
C4    C34   S    
C61   H43   S    
C67   C68   A    
C22   H7    S    
Cr3   O23   S    
C24   C25   S    
C12   H29   S    
Cr5   O33   S    
C34   C45   S    
C50   O7    A    
C18   C19   A    
C65   H52   S    
Cr5   O7    S    
C58   C59   S    
C64   H50   S    
C4    O15   A    
C57   H23   S    
C42   H21   S    
C60   C61   S    
C58   H32   S    
C55   H11   S    
C9    C14   S    
C65   H54   S    
C29   C30   A    
C57   H28   S    
C35   H19   S    
C56   H12   S    
C32   H15   S    
C13   H2    S    
O24   S1    S    
C28   C46   S    
Cr6   O3    S    
C61   H42   S    
C43   H22   S    
C8    C9    A    
Cr2   O13   S    
C5    S1    S    
C60   O25   S    
C49   O30   A    
C12   C56   S    
C55   H24   S    
C3    H45   S    
C15   O26   S    
C39   C46   A    
C47   O32   A    
C7    C16   S    
Cr6   O9    S    
Cr1   O4    S    
C40   O12   A    
C43   C44   S    
C3    C66   A    
Cr2   O29   S    
C58   H33   S    
C63   H48   S    
C23   C54   S    
Cr5   O11   S    
C23   C57   S    
C54   C55   S    
Cr4   O5    S    
Cr1   O1    S    
C23   C48   S    
Cr3   O29   S    
C27   C32   A    
C18   C22   A    
Cr2   O12   S    
C31   C32   A    
Cr2   O19   S    
C43   H25   S    
C6    H57   S    
C11   C17   A    
C63   H49   S    
C44   H27   S    
C50   O6    A    
C39   C44   S    
Cr5   O8    S    
C1    C17   S    
C30   C36   A    
C16   O16   A    
Cr1   O17   S    
C64   C65   S    
C19   C20   A    
C19   C24   S    
C37   C53   S    
C38   C43   S    
C33   H16   S    
C51   O8    A    
C54   O25   S    
C44   H26   S    
C26   C40   S    
C5    C6    S    
C20   C26   A    
Cr6   O2    S    
C64   O27   S    
C5    H55   S    
C59   H35   S    
Cr4   O31   S    
C2    C3    A    
C14   H4    S    
Cr6   O10   S    
C56   H31   S    
C62   H44   S    
C54   H1    S    
C31   H14   S    
C28   O19   A    
C64   H51   S    
H38   O24   S    
Cr4   O30   S    
C14   C15   S    
O22   S1    D    
C62   C63   S    
C8    C49   S    
