data_mof_unit_23612.cif
_audit_creation_date              2013-03-05T15:48:01-0500
_audit_creation_method            fapswitch 2.2
_symmetry_space_group_name_H-M    P1
_symmetry_Int_Tables_number       1
_space_group_crystal_system       triclinic
_cell_length_a                    10.296117
_cell_length_b                    10.541
_cell_length_c                    10.634212
_cell_angle_alpha                 90.865291
_cell_angle_beta                  94.948756
_cell_angle_gamma                 81.37491
_cell_volume                      1136.836676

loop_
_atom_site_label
_atom_site_type_symbol
_atom_site_description
_atom_site_fract_x
_atom_site_fract_y
_atom_site_fract_z
_atom_type_partial_charge
O1    O     O_R   0.568940 0.489500 0.307530 -0.604859
O2    O     O_R   0.431060 0.510500 0.692470 -0.627599
O3    O     O_R   0.348880 0.522990 0.340350 -0.546757
O4    O     O_R   0.651120 0.477010 0.659650 -0.541992
C1    C     C_R   0.444288 0.502647 0.266527 0.833763
C2    C     C_R   0.555383 0.487207 0.733474 0.816973
O5    O     O_R   0.610000 0.297210 0.483560 -0.616695
O6    O     O_R   0.390000 0.702790 0.516440 -0.608087
O7    O     O_R   0.389940 0.330700 0.516390 -0.612932
O8    O     O_R   0.610060 0.669300 0.483610 -0.603510
C3    C     C_R   0.500444 0.258320 0.503809 0.999460
C4    C     C_R   0.499697 0.741852 0.496875 1.025174
Zn1   Zn    Zn3+2 0.646930 0.477640 0.478080 1.071616
Zn2   Zn    Zn3+2 0.353070 0.522360 0.521920 1.060517
C5    C     C_3   0.520084 0.041685 0.386471 0.327235
C6    C     C_3   0.480204 0.958922 0.615270 0.324081
C7    C     C_3   0.403281 0.975467 0.415482 0.086881
C8    C     C_3   0.596982 0.025336 0.586312 0.088435
C9    C     C_3   0.500462 0.876423 0.495423 -0.377319
C10   C     C_3   0.499798 0.124059 0.506238 -0.364466
C11   C     C_3   0.618125 0.944215 0.466907 0.371167
C12   C     C_3   0.382226 0.056468 0.534840 0.371262
H1    H     H_    0.404046 0.397128 0.879722 0.227104
H2    H     H_    0.597736 0.373654 0.112468 0.192342
C13   C     C_2   0.410505 0.482387 0.132552 0.144679
C14   C     C_2   0.585577 0.465105 0.868354 0.160626
C15   C     C_2   0.502993 0.415043 0.066553 -0.194572
C16   C     C_2   0.493320 0.420944 0.930392 -0.242245
N1    N     N_2   0.157310 0.552180 0.551120 0.028667
N2    N     N_2   0.842690 0.447820 0.448880 0.032691
C17   C     C_2   0.069203 0.502712 0.479637 0.539736
C18   C     C_2   0.930059 0.499473 0.519143 0.538426
N3    N     N_R   0.298600 0.949056 0.321968 0.208162
O9    O     O_R   0.221817 0.043599 0.264529 -0.416146
O10   O     O_R   0.282444 0.831814 0.293745 -0.346747
N4    N     N_R   0.700953 0.053061 0.680191 0.207344
O11   O     O_R   0.779708 0.959128 0.736509 -0.414916
O12   O     O_R   0.711659 0.170595 0.712964 -0.390485
O13   O     O_3   0.541016 0.098482 0.271995 -0.632303
C19   C     C_3   0.546770 0.005920 0.174954 -0.217671
H3    H     H_    0.446230 0.988353 0.140679 0.211146
H4    H     H_    0.609498 0.913925 0.203696 0.209048
H5    H     H_    0.590842 0.044292 0.094763 0.173229
O14   O     O_3   0.459048 0.902826 0.730016 -0.616584
C20   C     C_3   0.453515 0.995940 0.826611 -0.214379
H6    H     H_    0.392174 0.088443 0.797148 0.190540
H7    H     H_    0.554237 0.012348 0.861588 0.207767
H8    H     H_    0.408040 0.958801 0.906548 0.181860
O15   O     O_3   0.737266 0.874678 0.430789 -0.589937
C21   C     C_3   0.826422 0.959481 0.409002 -0.238887
H9    H     H_    0.848558 0.017715 0.493845 0.176318
H10   H     H_    0.789893 0.022749 0.327066 0.187722
H11   H     H_    0.920804 0.901945 0.386056 0.202775
O16   O     O_3   0.263149 0.126367 0.570782 -0.592722
C22   C     C_3   0.173674 0.041910 0.592589 -0.245156
H12   H     H_    0.210606 0.977546 0.673597 0.189296
H13   H     H_    0.150213 0.984906 0.507283 0.179056
H14   H     H_    0.079956 0.099658 0.616942 0.201142
N5    N     N_R   0.707086 0.494926 0.931158 0.211054
O17   O     O_R   0.817810 0.460833 0.880935 -0.267034
O18   O     O_R   0.706286 0.565056 0.032955 -0.341550
N6    N     N_R   0.281322 0.533381 0.075624 0.221717
O19   O     O_R   0.220914 0.642245 0.114515 -0.281281
O20   O     O_R   0.215573 0.462502 0.000631 -0.330645
O21   O     O_3   0.901320 0.530573 0.641909 -0.574461
C23   C     C_3   0.862072 0.664157 0.654968 0.022322
H15   H     H_    0.890016 0.723089 0.578526 0.125679
H16   H     H_    0.908127 0.695641 0.745770 0.204591
H17   H     H_    0.755228 0.685295 0.664876 0.189903
O22   O     O_3   0.097496 0.473374 0.356299 -0.578248
C24   C     C_3   0.139180 0.340220 0.342208 -0.001245
H18   H     H_    0.092449 0.308305 0.251872 0.204541
H19   H     H_    0.114128 0.279954 0.419062 0.134470
H20   H     H_    0.245872 0.320967 0.331066 0.183223
O23   O     O_3   0.865702 0.425193 0.327323 -0.503672
C25   C     C_3   0.835066 0.301780 0.297998 -0.090053
H21   H     H_    0.728516 0.298246 0.296094 0.195972
H22   H     H_    0.889941 0.228977 0.365368 0.089368
H23   H     H_    0.864617 0.275062 0.202146 0.175139
O24   O     O_3   0.134688 0.572784 0.673091 -0.517068
C26   C     C_3   0.167548 0.694931 0.705239 -0.053679
H24   H     H_    0.117492 0.769231 0.636884 0.079191
H25   H     H_    0.274855 0.695972 0.712552 0.208373
H26   H     H_    0.133933 0.721958 0.799622 0.184115

loop_
_geom_bond_atom_site_label_1
_geom_bond_atom_site_label_2
_geom_bond_distance
_ccdc_geom_bond_type
C23   H16   1.107210 S    
C22   H12   1.109406 S    
C8    C11   1.532970 S    
H2    C15   1.084867 S    
O23   C25   1.408166 S    
C11   O15   1.411613 S    
C26   H24   1.113060 S    
C12   O16   1.411921 S    
C20   H6    1.112745 S    
O5    C3    1.292311 A    
O1    C1    1.307081 A    
N4    O11   1.299953 A    
C9    C11   1.549149 S    
C25   H22   1.112711 S    
C23   H17   1.103032 S    
O4    Zn1   1.927701 S    
N6    O20   1.301170 A    
C7    C9    1.542911 S    
C19   H5    1.108583 S    
C21   H10   1.109594 S    
C25   H23   1.109061 S    
O22   C24   1.414475 S    
C14   N5    1.441352 S    
C6    O14   1.411511 S    
C19   H4    1.112631 S    
C23   H15   1.112964 S    
N5    O17   1.300161 A    
O2    C2    1.304453 A    
C7    N3    1.457674 S    
C26   H25   1.102555 S    
C21   H9    1.110194 S    
C20   H7    1.108611 S    
C5    C10   1.542012 S    
C3    C10   1.416899 S    
N5    O18   1.301519 A    
C21   H11   1.109672 S    
Zn1   N2    2.042729 S    
C25   H21   1.101688 S    
O4    C2    1.303346 A    
O13   C19   1.408270 S    
C24   H19   1.113214 S    
C6    C12   1.540472 S    
O7    Zn2   1.999840 S    
N6    O19   1.300267 A    
C17   C18   1.532671 S    
C5    C11   1.540373 S    
O6    C4    1.292718 A    
N3    O9    1.300010 A    
H1    C16   1.085319 S    
O7    C3    1.287369 A    
C5    O13   1.411677 S    
O3    Zn2   1.927701 S    
O8    C4    1.288300 A    
C1    C13   1.457402 S    
C19   H3    1.108641 S    
C10   C12   1.547354 S    
O21   C23   1.413673 S    
C22   H13   1.109783 S    
O1    Zn1   1.917102 S    
Zn2   N1    2.042729 S    
C26   H26   1.109081 S    
O14   C20   1.408774 S    
C20   H8    1.108518 S    
C5    C7    1.533288 S    
O16   C22   1.408587 S    
O6    Zn2   1.997331 S    
O24   C26   1.409454 S    
O3    C1    1.300784 A    
O8    Zn1   1.999842 S    
C24   H20   1.103089 S    
C13   C15   1.341951 D    
C14   C16   1.343227 D    
C7    C12   1.531774 S    
C17   O22   1.388329 S    
N4    O12   1.299945 A    
C24   H18   1.107508 S    
N1    C17   1.297544 D    
N2    C18   1.297158 D    
N2    O23   1.345578 S    
C2    C14   1.455911 S    
N1    O24   1.346196 S    
C6    C9    1.543375 S    
C4    C9    1.420038 S    
N3    O10   1.298810 A    
C8    C10   1.541649 S    
C13   N6    1.442569 S    
O2    Zn2   1.917102 S    
O5    Zn1   1.997329 S    
C6    C8    1.534106 S    
O15   C21   1.408709 S    
C22   H14   1.109451 S    
C15   C16   1.444425 S    
C8    N4    1.458994 S    
C18   O21   1.387089 S    
