data_mof_unit_27788.cif
_audit_creation_date              2012-12-10T18:58:46-0500
_audit_creation_method            fapswitch 2.2
_symmetry_space_group_name_H-M    P1
_symmetry_Int_Tables_number       1
_space_group_crystal_system       triclinic
_cell_length_a                    12.970152
_cell_length_b                    10.899346
_cell_length_c                    9.576193
_cell_angle_alpha                 91.441182
_cell_angle_beta                  96.875487
_cell_angle_gamma                 92.207438
_cell_volume                      1342.4126433

loop_
_atom_site_label
_atom_site_type_symbol
_atom_type_description
_atom_site_fract_x
_atom_site_fract_y
_atom_site_fract_z
_atom_type_partial_charge
C1    C     C_R   0.498522 0.262023 0.497500 0.782106
C2    C     C_R   0.024175 0.475148 0.560990 0.052005
C3    C     C_R   0.968931 0.422035 0.434940 0.031155
C4    C     C_R   0.858289 0.414688 0.424669 -0.105870
C5    C     C_R   0.867377 0.452148 0.674869 -0.101473
C6    C     C_R   0.974916 0.474996 0.685583 -0.077108
C7    C     C_R   0.479284 0.066815 0.615056 0.080986
C8    C     C_R   0.485696 0.127906 0.490338 -0.161198
C9    C     C_R   0.469657 0.057460 0.361896 -0.091124
C10   C     C_R   0.453685 0.928930 0.364881 -0.087668
C11   C     C_R   0.472476 0.868776 0.494806 -0.211384
C12   C     C_R   0.300160 0.494283 0.472869 0.801404
C13   C     C_R   0.473692 0.940462 0.617820 0.086466
C14   C     C_3   0.541564 0.940268 0.755120 0.182916
C15   C     C_3   0.548954 0.079187 0.750777 -0.362320
C16   C     C_R   0.540644 0.598195 0.082486 0.216932
C17   C     C_R   0.443481 0.414622 0.063515 -0.046547
C18   C     C_R   0.442091 0.414650 0.914743 0.044037
C19   C     C_R   0.539829 0.599091 0.936631 0.150810
C20   C     C_3   0.643183 0.667544 0.950717 0.138497
C21   C     C_3   0.643857 0.664894 0.110412 0.154670
C22   C     C_R   0.492124 0.736974 0.499549 0.799890
C23   C     C_R   0.697784 0.483065 0.526221 0.805228
C24   C     C_R   0.809086 0.452198 0.541759 -0.181239
C25   C     C_R   0.186212 0.472517 0.456348 -0.147788
C26   C     C_R   0.027489 0.377479 0.328774 -0.072274
C27   C     C_R   0.136438 0.394210 0.346997 -0.067242
C28   C     C_R   0.128464 0.516550 0.561095 -0.088409
Cu1   Cu    Cu3+1 0.499990 0.499980 0.640670 1.002945
Cu2   Cu    Cu3+1 0.500010 0.500020 0.359330 1.011727
H1    H     H_    0.616721 0.896287 0.748988 0.099452
H2    H     H_    0.511557 0.126434 0.834327 0.244333
H3    H     H_    0.628169 0.116264 0.737401 0.147344
H4    H     H_    0.398852 0.346054 0.111210 0.171730
H5    H     H_    0.640429 0.761379 0.910942 0.078104
H6    H     H_    0.639805 0.756611 0.162995 0.070173
N1    N     N_R   0.500660 0.500930 0.148010 -0.172457
N2    N     N_R   0.500660 0.500890 0.852110 -0.183003
O1    O     O_R   0.500000 0.319640 0.618810 -0.584459
O2    O     O_R   0.500010 0.319680 0.381230 -0.586935
O3    O     O_R   0.348990 0.499960 0.599490 -0.580471
O4    O     O_R   0.349000 0.500000 0.361910 -0.579262
O5    O     O_R   0.499990 0.680320 0.618770 -0.592548
O6    O     O_R   0.500000 0.680360 0.381190 -0.581743
O7    O     O_R   0.651000 0.500000 0.638090 -0.530744
O8    O     O_R   0.651010 0.500040 0.400510 -0.523689
C29   C     C_1   0.793751 0.360748 0.302625 0.348363
N3    N     N_1   0.740939 0.317390 0.206545 -0.190844
C30   C     C_1   0.373169 0.326887 0.831982 0.322454
N4    N     N_1   0.316886 0.256418 0.766396 -0.267255
O9    O     O_3   0.720749 0.599349 0.901540 -0.648352
H7    H     H_    0.784305 0.654097 0.912218 0.317552
O10   O     O_3   0.721061 0.591766 0.174558 -0.644226
H8    H     H_    0.784632 0.646047 0.193573 0.319601
C31   C     C_1   0.821145 0.401716 0.792555 0.360135
N5    N     N_1   0.784491 0.359036 0.885502 -0.184608
C32   C     C_1   0.980949 0.304503 0.206715 0.268722
N6    N     N_1   0.945682 0.245619 0.109087 -0.245638
C33   C     C_1   0.034656 0.481180 0.824177 0.264254
N7    N     N_1   0.082010 0.485757 0.934742 -0.258793
C34   C     C_1   0.196365 0.319752 0.261229 0.291702
N8    N     N_1   0.241826 0.257287 0.193179 -0.292351
C35   C     C_1   0.173625 0.611491 0.661899 0.273486
N9    N     N_1   0.209809 0.687298 0.741773 -0.248044
C36   C     C_1   0.482920 0.109837 0.227409 0.337596
N10   N     N_1   0.495210 0.148126 0.118859 -0.273011
C37   C     C_1   0.417428 0.861621 0.234183 0.319741
N11   N     N_1   0.387539 0.808738 0.129997 -0.254565
O11   O     O_3   0.486709 0.901602 0.864931 -0.693846
H9    H     H_    0.459145 0.816946 0.839133 0.341973

loop_
_geom_bond_atom_site_label_1
_geom_bond_atom_site_label_2
_ccdc_geom_bond_type
Cu1   N2    S    
C8    C9    A    
C34   N8    T    
C12   O4    A    
C23   C24   S    
C12   O3    A    
C23   O7    A    
C19   N2    A    
C13   C14   S    
C25   C27   A    
C1    C8    S    
C9    C10   A    
C16   N1    A    
C11   C22   S    
C22   O5    A    
C7    C13   A    
C12   C25   S    
C31   N5    T    
C15   H3    S    
Cu1   O1    S    
C19   C20   S    
C7    C15   S    
C17   C18   A    
C18   N2    A    
Cu2   O2    S    
C33   N7    T    
C21   H6    S    
C23   O8    A    
C2    C6    A    
C10   C37   S    
Cu1   O5    S    
C25   C28   A    
C21   O10   S    
C11   C13   A    
Cu2   O6    S    
C26   C27   A    
C16   C21   S    
C5    C24   A    
C16   C19   A    
C5    C6    A    
C26   C32   S    
C5    C31   S    
C2    C3    A    
C20   O9    S    
C32   N6    T    
O11   H9    S    
C4    C24   A    
C14   O11   S    
C9    C36   S    
C17   H4    S    
C17   N1    A    
Cu1   Cu2   S    
C37   N11   T    
C28   C35   S    
C7    C8    A    
O9    H7    S    
C20   C21   S    
Cu2   N1    S    
C36   N10   T    
C10   C11   A    
C30   N4    T    
C14   H1    S    
C1    O1    A    
C14   C15   S    
Cu2   O4    S    
C2    C28   A    
C27   C34   S    
C1    O2    A    
Cu1   O3    S    
O10   H8    S    
C20   H5    S    
C6    C33   S    
Cu2   O8    S    
C3    C26   A    
C22   O6    A    
C3    C4    A    
C18   C30   S    
Cu1   O7    S    
C35   N9    T    
C29   N3    T    
C4    C29   S    
C15   H2    S    
