data_mof_unit_65259.cif
_audit_creation_date              2012-10-26T17:36:31-0400
_audit_creation_method            fapswitch 2.2
_symmetry_space_group_name_H-M    P1
_symmetry_Int_Tables_number       1
_space_group_crystal_system       orthorhombic
_cell_length_a                    21.754255
_cell_length_b                    30.658445
_cell_length_c                    30.676656
_cell_angle_alpha                 90.0
_cell_angle_beta                  90.0
_cell_angle_gamma                 90.0
_cell_volume                      20459.8457354

loop_
_atom_site_label
_atom_site_type_symbol
_atom_type_description
_atom_site_fract_x
_atom_site_fract_y
_atom_site_fract_z
_atom_type_partial_charge
C1    C     C_R   0.249945 0.559482 0.059453 0.542847
C2    C     C_R   0.250055 0.440518 0.559453 0.542846
C3    C     C_R   0.935882 0.000000 0.000000 0.025566
C4    C     C_R   0.064118 0.500000 0.500000 0.025566
C5    C     C_R   0.935882 0.500000 0.500000 0.025566
C6    C     C_R   0.564118 1.000000 0.500000 0.025566
C7    C     C_R   0.435882 0.000000 0.500000 0.025566
C8    C     C_R   0.249989 0.309440 0.690476 0.545548
C9    C     C_R   0.750011 0.690560 0.690476 0.545548
C10   C     C_R   0.249989 0.690560 0.309524 0.545548
C11   C     C_R   0.750011 0.309440 0.309524 0.545548
C12   C     C_R   0.749989 0.809440 0.690476 0.545548
C13   C     C_R   0.749945 0.440518 0.440547 0.542847
C14   C     C_R   0.250011 0.190560 0.690476 0.545548
C15   C     C_R   0.749989 0.190560 0.309524 0.545548
C16   C     C_R   0.250011 0.809440 0.309524 0.545548
C17   C     C_R   0.749989 0.309440 0.190476 0.545548
C18   C     C_R   0.250011 0.690560 0.190476 0.545548
C19   C     C_R   0.749989 0.690560 0.809524 0.545548
C20   C     C_R   0.250011 0.309440 0.809524 0.545548
C21   C     C_R   0.249989 0.809440 0.190476 0.545548
C22   C     C_R   0.750011 0.190560 0.190476 0.545548
C23   C     C_R   0.249989 0.190560 0.809524 0.545548
C24   C     C_R   0.250055 0.559482 0.440547 0.542847
C25   C     C_R   0.750011 0.809440 0.809524 0.545548
C26   C     C_R   0.131329 0.500000 0.000000 0.531379
C27   C     C_R   0.868671 0.500000 0.000000 0.531379
C28   C     C_R   0.631329 0.000000 0.000000 0.531379
C29   C     C_R   0.368671 0.000000 0.000000 0.531379
C30   C     C_R   0.631329 0.500000 0.500000 0.531379
C31   C     C_R   0.368671 0.500000 0.500000 0.531379
C32   C     C_R   0.131329 1.000000 0.500000 0.531379
C33   C     C_R   0.868671 0.000000 0.500000 0.531379
C34   C     C_R   0.368978 0.500000 0.000000 0.547219
C35   C     C_R   0.249945 0.059482 0.559453 0.542847
C36   C     C_R   0.631022 0.500000 0.000000 0.547219
C37   C     C_R   0.868978 0.000000 0.000000 0.547219
C38   C     C_R   0.131022 0.000000 0.000000 0.547219
C39   C     C_R   0.868978 0.500000 0.500000 0.547219
C40   C     C_R   0.131022 0.500000 0.500000 0.547219
C41   C     C_R   0.368978 0.000000 0.500000 0.547219
C42   C     C_R   0.631022 1.000000 0.500000 0.547219
C43   C     C_R   0.062970 0.419373 0.992456 -0.091158
C44   C     C_R   0.937029 0.580627 0.992456 -0.091158
C45   C     C_R   0.062970 0.580627 0.007544 -0.091158
C46   C     C_R   0.750055 0.940518 0.559453 0.542846
C47   C     C_R   0.937030 0.419373 0.007544 -0.091158
C48   C     C_R   0.562970 0.919373 0.992456 -0.091158
C49   C     C_R   0.437029 0.080627 0.992456 -0.091158
C50   C     C_R   0.562970 0.080627 0.007544 -0.091158
C51   C     C_R   0.437030 0.919373 0.007544 -0.091158
C52   C     C_R   0.562970 0.419373 0.492456 -0.091158
C53   C     C_R   0.437030 0.580627 0.492456 -0.091158
C54   C     C_R   0.562970 0.580627 0.507544 -0.091158
C55   C     C_R   0.437030 0.419373 0.507544 -0.091158
C56   C     C_R   0.062970 0.919373 0.492456 -0.091158
C57   C     C_R   0.249945 0.940518 0.440547 0.542847
C58   C     C_R   0.937029 0.080627 0.492456 -0.091158
C59   C     C_R   0.062970 0.080627 0.507544 -0.091158
C60   C     C_R   0.937030 0.919373 0.507544 -0.091158
C61   C     C_R   0.031291 0.380032 0.995618 -0.119798
C62   C     C_R   0.968709 0.619968 0.995618 -0.119798
C63   C     C_R   0.031291 0.619968 0.004382 -0.119798
C64   C     C_R   0.968709 0.380032 0.004382 -0.119798
C65   C     C_R   0.531291 0.880032 0.995618 -0.119798
C66   C     C_R   0.468709 0.119968 0.995618 -0.119798
C67   C     C_R   0.531291 0.119968 0.004382 -0.119798
C68   C     C_R   0.750055 0.059482 0.440547 0.542847
C69   C     C_R   0.468709 0.880032 0.004382 -0.119798
C70   C     C_R   0.531291 0.380032 0.495618 -0.119798
C71   C     C_R   0.468709 0.619968 0.495618 -0.119798
C72   C     C_R   0.531291 0.619968 0.504382 -0.119798
C73   C     C_R   0.468709 0.380032 0.504382 -0.119798
C74   C     C_R   0.031291 0.880032 0.495618 -0.119798
C75   C     C_R   0.968709 0.119968 0.495618 -0.119798
C76   C     C_R   0.031291 0.119968 0.504382 -0.119798
C77   C     C_R   0.968709 0.880032 0.504382 -0.119798
C78   C     C_R   0.967723 0.459829 0.001932 0.010301
C79   C     C_R   0.250002 0.657136 0.157013 0.026591
C80   C     C_R   0.032277 0.540171 0.001932 0.010301
C81   C     C_R   0.967723 0.540171 0.998068 0.010302
C82   C     C_R   0.032277 0.459829 0.998068 0.010302
C83   C     C_R   0.467723 0.959829 0.001932 0.010301
C84   C     C_R   0.532277 0.040171 0.001932 0.010301
C85   C     C_R   0.467723 0.040171 0.998068 0.010302
C86   C     C_R   0.532277 0.959829 0.998068 0.010302
C87   C     C_R   0.467723 0.459829 0.501932 0.010301
C88   C     C_R   0.532277 0.540171 0.501932 0.010301
C89   C     C_R   0.467723 0.540171 0.498068 0.010302
C90   C     C_R   0.749997 0.342864 0.157013 0.026591
C91   C     C_R   0.532277 0.459829 0.498068 0.010302
C92   C     C_R   0.967723 0.959829 0.501932 0.010301
C93   C     C_R   0.032277 0.040171 0.501932 0.010301
C94   C     C_R   0.967723 0.040171 0.498068 0.010302
C95   C     C_R   0.032277 0.959829 0.498068 0.010302
C96   C     C_R   0.935613 0.500000 0.000000 -0.018269
C97   C     C_R   0.064387 0.500000 0.000000 -0.018269
C98   C     C_R   0.435613 1.000000 0.000000 -0.018269
C99   C     C_R   0.564387 1.000000 0.000000 -0.018269
C100  C     C_R   0.435613 0.500000 0.500000 -0.018269
C101  C     C_R   0.250003 0.342864 0.842987 0.026591
C102  C     C_R   0.564387 0.500000 0.500000 -0.018269
C103  C     C_R   0.935613 0.000000 0.500000 -0.018269
C104  C     C_R   0.064387 1.000000 0.500000 -0.018269
C105  C     C_R   0.288521 0.588756 0.129166 -0.130713
C106  C     C_R   0.711479 0.411244 0.129166 -0.130713
C107  C     C_R   0.288521 0.411244 0.870834 -0.130713
C108  C     C_R   0.711479 0.588755 0.870834 -0.130713
C109  C     C_R   0.788521 0.088756 0.129166 -0.130713
C110  C     C_R   0.211479 0.911244 0.129166 -0.130713
C111  C     C_R   0.788521 0.911244 0.870834 -0.130713
C112  C     C_R   0.750055 0.440518 0.059453 0.542846
C113  C     C_R   0.749997 0.657136 0.842987 0.026591
C114  C     C_R   0.211479 0.088756 0.870834 -0.130713
C115  C     C_R   0.788521 0.588756 0.629166 -0.130713
C116  C     C_R   0.211479 0.411244 0.629166 -0.130713
C117  C     C_R   0.788521 0.411244 0.370834 -0.130713
C118  C     C_R   0.211479 0.588755 0.370834 -0.130713
C119  C     C_R   0.288521 0.088756 0.629166 -0.130713
C120  C     C_R   0.711479 0.911244 0.629166 -0.130713
C121  C     C_R   0.288521 0.911244 0.370834 -0.130713
C122  C     C_R   0.711479 0.088756 0.370834 -0.130713
C123  C     C_R   0.289315 0.621190 0.160840 -0.132188
C124  C     C_R   0.750003 0.157136 0.157013 0.026591
C125  C     C_R   0.710685 0.378810 0.160840 -0.132188
C126  C     C_R   0.289315 0.378810 0.839160 -0.132189
C127  C     C_R   0.710685 0.621190 0.839160 -0.132189
C128  C     C_R   0.789315 0.121190 0.160840 -0.132188
C129  C     C_R   0.210684 0.878810 0.160840 -0.132188
C130  C     C_R   0.789315 0.878810 0.839160 -0.132189
C131  C     C_R   0.210685 0.121190 0.839160 -0.132189
C132  C     C_R   0.789315 0.621190 0.660840 -0.132188
C133  C     C_R   0.210684 0.378810 0.660840 -0.132188
C134  C     C_R   0.789315 0.378810 0.339160 -0.132189
C135  C     C_R   0.249997 0.842864 0.157013 0.026591
C136  C     C_R   0.210685 0.621190 0.339160 -0.132189
C137  C     C_R   0.289315 0.121190 0.660840 -0.132188
C138  C     C_R   0.710684 0.878810 0.660840 -0.132188
C139  C     C_R   0.289315 0.878810 0.339160 -0.132189
C140  C     C_R   0.710685 0.121190 0.339160 -0.132189
C141  C     C_R   0.750002 0.842864 0.842987 0.026591
C142  C     C_R   0.249997 0.157136 0.842987 0.026591
C143  C     C_R   0.750002 0.657136 0.657013 0.026591
C144  C     C_R   0.249997 0.342864 0.657013 0.026591
C145  C     C_R   0.750003 0.342864 0.342987 0.026591
C146  C     C_R   0.249997 0.657136 0.342987 0.026591
C147  C     C_R   0.250002 0.157136 0.657013 0.026591
C148  C     C_R   0.249945 0.440518 0.940547 0.542847
C149  C     C_R   0.749997 0.842864 0.657013 0.026591
C150  C     C_R   0.250003 0.842864 0.342987 0.026591
C151  C     C_R   0.749997 0.157136 0.342987 0.026591
C152  C     C_R   0.210663 0.660997 0.121096 -0.130726
C153  C     C_R   0.789337 0.339003 0.121096 -0.130727
C154  C     C_R   0.210663 0.339003 0.878904 -0.130727
C155  C     C_R   0.789336 0.660997 0.878904 -0.130727
C156  C     C_R   0.710663 0.160997 0.121096 -0.130726
C157  C     C_R   0.289337 0.839003 0.121096 -0.130727
C158  C     C_R   0.710663 0.839003 0.878904 -0.130727
C159  C     C_R   0.750055 0.559482 0.940547 0.542847
C160  C     C_R   0.289336 0.160997 0.878904 -0.130727
C161  C     C_R   0.710663 0.660997 0.621096 -0.130726
C162  C     C_R   0.289337 0.339003 0.621096 -0.130727
C163  C     C_R   0.710663 0.339003 0.378904 -0.130727
C164  C     C_R   0.289336 0.660997 0.378904 -0.130727
C165  C     C_R   0.210663 0.160997 0.621096 -0.130726
C166  C     C_R   0.789337 0.839003 0.621096 -0.130727
C167  C     C_R   0.210663 0.839003 0.378904 -0.130727
C168  C     C_R   0.789336 0.160997 0.378904 -0.130727
C169  C     C_R   0.211408 0.629315 0.088663 -0.132166
C170  C     C_R   0.749945 0.059482 0.059453 0.542847
C171  C     C_R   0.788592 0.370685 0.088663 -0.132166
C172  C     C_R   0.211408 0.370685 0.911337 -0.132166
C173  C     C_R   0.788591 0.629315 0.911337 -0.132166
C174  C     C_R   0.711408 0.129315 0.088663 -0.132166
C175  C     C_R   0.288592 0.870685 0.088663 -0.132166
C176  C     C_R   0.711408 0.870685 0.911337 -0.132166
C177  C     C_R   0.288592 0.129315 0.911337 -0.132166
C178  C     C_R   0.711408 0.629315 0.588663 -0.132166
C179  C     C_R   0.288592 0.370685 0.588663 -0.132166
C180  C     C_R   0.711408 0.370685 0.411337 -0.132166
C181  C     C_R   0.250055 0.940518 0.059453 0.542846
C182  C     C_R   0.288591 0.629315 0.411337 -0.132166
C183  C     C_R   0.211408 0.129315 0.588663 -0.132166
C184  C     C_R   0.788592 0.870685 0.588663 -0.132166
C185  C     C_R   0.211408 0.870685 0.411337 -0.132166
C186  C     C_R   0.788592 0.129315 0.411337 -0.132166
C187  C     C_R   0.249944 0.592971 0.092873 0.027664
C188  C     C_R   0.750056 0.407029 0.092873 0.027664
C189  C     C_R   0.249944 0.407029 0.907127 0.027664
C190  C     C_R   0.750056 0.592971 0.907127 0.027664
C191  C     C_R   0.749944 0.092971 0.092873 0.027664
C192  C     C_R   0.749945 0.940517 0.940547 0.542847
C193  C     C_R   0.250056 0.907029 0.092873 0.027664
C194  C     C_R   0.749944 0.907029 0.907127 0.027664
C195  C     C_R   0.250056 0.092971 0.907127 0.027664
C196  C     C_R   0.749944 0.592971 0.592873 0.027664
C197  C     C_R   0.250056 0.407029 0.592873 0.027664
C198  C     C_R   0.749944 0.407029 0.407127 0.027664
C199  C     C_R   0.250056 0.592971 0.407127 0.027664
C200  C     C_R   0.249944 0.092971 0.592873 0.027664
C201  C     C_R   0.750056 0.907029 0.592873 0.027664
C202  C     C_R   0.249944 0.907029 0.407127 0.027664
C203  C     C_R   0.250055 0.059482 0.940547 0.542847
C204  C     C_R   0.750056 0.092971 0.407127 0.027664
C205  C     C_R   0.468000 0.460400 0.000387 -0.131911
C206  C     C_R   0.532000 0.539600 0.000387 -0.131911
C207  C     C_R   0.468000 0.539600 0.999613 -0.131911
C208  C     C_R   0.532000 0.460400 0.999613 -0.131911
C209  C     C_R   0.968000 0.960400 0.000387 -0.131911
C210  C     C_R   0.032000 0.039600 0.000387 -0.131911
C211  C     C_R   0.968000 0.039600 0.999613 -0.131911
C212  C     C_R   0.032000 0.960400 0.999613 -0.131911
C213  C     C_R   0.968000 0.460400 0.500387 -0.131911
C214  C     C_R   0.749945 0.559482 0.559453 0.542847
C215  C     C_R   0.032000 0.539600 0.500387 -0.131911
C216  C     C_R   0.968000 0.539600 0.499613 -0.131911
C217  C     C_R   0.032000 0.460400 0.499613 -0.131911
C218  C     C_R   0.468000 0.960400 0.500387 -0.131911
C219  C     C_R   0.532000 0.039600 0.500387 -0.131911
C220  C     C_R   0.468000 0.039600 0.499613 -0.131911
C221  C     C_R   0.532000 0.960400 0.499613 -0.131911
C222  C     C_R   0.564118 0.500000 0.000000 0.025566
C223  C     C_R   0.435882 0.500000 0.000000 0.025566
C224  C     C_R   0.064118 0.000000 0.000000 0.025566
Cu1   Cu    Cu3+1 0.250020 0.530890 0.969080 0.929853
Cu2   Cu    Cu3+1 0.249980 0.469110 0.469080 0.929853
Cu3   Cu    Cu3+1 0.750020 0.469110 0.530920 0.929853
Cu4   Cu    Cu3+1 0.249980 0.530890 0.530920 0.929853
Cu5   Cu    Cu3+1 0.250020 0.030890 0.469080 0.929853
Cu6   Cu    Cu3+1 0.749980 0.969110 0.469080 0.929853
Cu7   Cu    Cu3+1 0.250020 0.969110 0.530920 0.929853
Cu8   Cu    Cu3+1 0.749980 0.030890 0.530920 0.929853
Cu9   Cu    Cu3+1 0.311820 0.250000 0.750000 0.934193
Cu10  Cu    Cu3+1 0.688180 0.750000 0.750000 0.934193
Cu11  Cu    Cu3+1 0.311820 0.750000 0.250000 0.934193
Cu12  Cu    Cu3+1 0.749980 0.469110 0.969080 0.929853
Cu13  Cu    Cu3+1 0.688180 0.250000 0.250000 0.934193
Cu14  Cu    Cu3+1 0.811820 0.750000 0.750000 0.934193
Cu15  Cu    Cu3+1 0.188180 0.250000 0.750000 0.934193
Cu16  Cu    Cu3+1 0.811820 0.250000 0.250000 0.934193
Cu17  Cu    Cu3+1 0.188180 0.750000 0.250000 0.934193
Cu18  Cu    Cu3+1 0.250020 0.469110 0.030920 0.929853
Cu19  Cu    Cu3+1 0.749980 0.530890 0.030920 0.929853
Cu20  Cu    Cu3+1 0.750020 0.030890 0.969080 0.929853
Cu21  Cu    Cu3+1 0.249980 0.969110 0.969080 0.929853
Cu22  Cu    Cu3+1 0.750020 0.969110 0.030920 0.929853
Cu23  Cu    Cu3+1 0.249980 0.030890 0.030920 0.929853
Cu24  Cu    Cu3+1 0.750020 0.530890 0.469080 0.929853
H1    H     H_    0.111466 0.417450 0.985219 0.132948
H2    H     H_    0.388534 0.582550 0.485219 0.132948
H3    H     H_    0.819696 0.688826 0.882145 0.121384
H4    H     H_    0.680304 0.188826 0.117855 0.121384
H5    H     H_    0.319696 0.811174 0.117855 0.121384
H6    H     H_    0.680304 0.811174 0.882145 0.121384
H7    H     H_    0.319696 0.188826 0.882145 0.121384
H8    H     H_    0.680304 0.688826 0.617855 0.121384
H9    H     H_    0.319696 0.311174 0.617855 0.121384
H10   H     H_    0.680304 0.311174 0.382145 0.121384
H11   H     H_    0.319696 0.688826 0.382145 0.121384
H12   H     H_    0.180304 0.188826 0.617855 0.121384
H13   H     H_    0.611466 0.582550 0.514781 0.132948
H14   H     H_    0.819696 0.811174 0.617855 0.121384
H15   H     H_    0.180304 0.811174 0.382145 0.121384
H16   H     H_    0.819696 0.188826 0.382145 0.121384
H17   H     H_    0.388534 0.417450 0.514781 0.132948
H18   H     H_    0.111466 0.917450 0.485219 0.132948
H19   H     H_    0.888534 0.082550 0.485219 0.132948
H20   H     H_    0.111466 0.082550 0.514781 0.132948
H21   H     H_    0.888534 0.917450 0.514781 0.132948
H22   H     H_    0.318647 0.560816 0.132543 0.124619
H23   H     H_    0.681353 0.439184 0.132543 0.124619
H24   H     H_    0.318647 0.439184 0.867457 0.124619
H25   H     H_    0.888534 0.582550 0.985219 0.132948
H26   H     H_    0.681353 0.560816 0.867457 0.124619
H27   H     H_    0.818647 0.060816 0.132543 0.124619
H28   H     H_    0.181353 0.939184 0.132543 0.124619
H29   H     H_    0.818647 0.939184 0.867457 0.124619
H30   H     H_    0.181353 0.060816 0.867457 0.124619
H31   H     H_    0.818647 0.560816 0.632543 0.124619
H32   H     H_    0.181353 0.439184 0.632543 0.124619
H33   H     H_    0.818647 0.439184 0.367457 0.124619
H34   H     H_    0.181353 0.560816 0.367457 0.124619
H35   H     H_    0.318647 0.060816 0.632543 0.124619
H36   H     H_    0.111466 0.582550 0.014781 0.132948
H37   H     H_    0.681353 0.939184 0.632543 0.124619
H38   H     H_    0.318647 0.939184 0.367457 0.124619
H39   H     H_    0.681353 0.060816 0.367457 0.124619
H40   H     H_    0.319695 0.617926 0.188639 0.124101
H41   H     H_    0.680305 0.382074 0.188639 0.124101
H42   H     H_    0.319694 0.382074 0.811361 0.124101
H43   H     H_    0.680306 0.617926 0.811361 0.124101
H44   H     H_    0.819695 0.117926 0.188639 0.124101
H45   H     H_    0.180305 0.882074 0.188639 0.124101
H46   H     H_    0.819694 0.882074 0.811361 0.124101
H47   H     H_    0.888534 0.417450 0.014781 0.132948
H48   H     H_    0.180305 0.117926 0.811361 0.124101
H49   H     H_    0.819695 0.617926 0.688639 0.124101
H50   H     H_    0.180305 0.382074 0.688639 0.124101
H51   H     H_    0.819694 0.382074 0.311361 0.124101
H52   H     H_    0.180306 0.617926 0.311361 0.124101
H53   H     H_    0.319695 0.117926 0.688639 0.124101
H54   H     H_    0.680305 0.882074 0.688639 0.124101
H55   H     H_    0.319694 0.882074 0.311361 0.124101
H56   H     H_    0.680306 0.117926 0.311361 0.124101
H57   H     H_    0.181315 0.632757 0.060739 0.108854
H58   H     H_    0.611466 0.917450 0.985219 0.132948
H59   H     H_    0.818685 0.367243 0.060739 0.108854
H60   H     H_    0.181315 0.367243 0.939261 0.108854
H61   H     H_    0.818685 0.632757 0.939261 0.108854
H62   H     H_    0.681315 0.132757 0.060739 0.108854
H63   H     H_    0.318685 0.867243 0.060739 0.108854
H64   H     H_    0.681315 0.867243 0.939261 0.108854
H65   H     H_    0.318685 0.132757 0.939261 0.108854
H66   H     H_    0.681315 0.632757 0.560739 0.108854
H67   H     H_    0.318685 0.367243 0.560739 0.108854
H68   H     H_    0.681315 0.367243 0.439261 0.108854
H69   H     H_    0.388534 0.082550 0.985219 0.132948
H70   H     H_    0.318685 0.632757 0.439261 0.108854
H71   H     H_    0.181315 0.132757 0.560739 0.108854
H72   H     H_    0.818685 0.867243 0.560739 0.108854
H73   H     H_    0.181315 0.867243 0.439261 0.108854
H74   H     H_    0.818685 0.132757 0.439261 0.108854
H75   H     H_    0.443547 0.429614 0.000519 0.122870
H76   H     H_    0.556453 0.570386 0.000519 0.122870
H77   H     H_    0.443547 0.570386 0.999481 0.122870
H78   H     H_    0.556453 0.429614 0.999481 0.122870
H79   H     H_    0.943547 0.929614 0.000519 0.122870
H80   H     H_    0.611466 0.082550 0.014781 0.132948
H81   H     H_    0.056453 0.070386 0.000519 0.122870
H82   H     H_    0.943547 0.070386 0.999481 0.122870
H83   H     H_    0.056453 0.929614 0.999481 0.122870
H84   H     H_    0.943547 0.429614 0.500519 0.122870
H85   H     H_    0.056453 0.570386 0.500519 0.122870
H86   H     H_    0.943547 0.570386 0.499481 0.122870
H87   H     H_    0.056453 0.429614 0.499481 0.122870
H88   H     H_    0.443547 0.929614 0.500519 0.122870
H89   H     H_    0.556453 0.070386 0.500519 0.122870
H90   H     H_    0.443547 0.070386 0.499481 0.122870
H91   H     H_    0.388534 0.917450 0.014781 0.132948
H92   H     H_    0.556453 0.929614 0.499481 0.122870
H93   H     H_    0.055606 0.650549 0.008128 0.108662
H94   H     H_    0.944394 0.349451 0.008128 0.108662
H95   H     H_    0.055606 0.349451 0.991872 0.108662
H96   H     H_    0.944394 0.650549 0.991872 0.108662
H97   H     H_    0.555606 0.150549 0.008128 0.108662
H98   H     H_    0.444394 0.849451 0.008128 0.108662
H99   H     H_    0.555606 0.849451 0.991872 0.108662
H100  H     H_    0.444394 0.150549 0.991872 0.108662
H101  H     H_    0.555606 0.650549 0.508128 0.108662
H102  H     H_    0.611466 0.417450 0.485219 0.132948
H103  H     H_    0.444394 0.349451 0.508128 0.108662
H104  H     H_    0.555606 0.349451 0.491872 0.108662
H105  H     H_    0.444394 0.650549 0.491872 0.108662
H106  H     H_    0.055606 0.150549 0.508128 0.108662
H107  H     H_    0.944394 0.849451 0.508128 0.108662
H108  H     H_    0.055606 0.849451 0.491872 0.108662
H109  H     H_    0.944394 0.150549 0.491872 0.108662
H110  H     H_    0.180304 0.688826 0.117855 0.121384
H111  H     H_    0.819696 0.311174 0.117855 0.121384
H112  H     H_    0.180304 0.311174 0.882145 0.121384
O1    O     O_R   0.250030 0.571170 0.018980 -0.518624
O2    O     O_R   0.249970 0.428830 0.518980 -0.518624
O3    O     O_R   0.750030 0.428830 0.481020 -0.518624
O4    O     O_R   0.249970 0.571170 0.481020 -0.518624
O5    O     O_R   0.250030 0.071170 0.518980 -0.518624
O6    O     O_R   0.749970 0.928830 0.518980 -0.518624
O7    O     O_R   0.250030 0.928830 0.481020 -0.518624
O8    O     O_R   0.749970 0.071170 0.481020 -0.518624
O9    O     O_R   0.250030 0.519000 0.071200 -0.505518
O10   O     O_R   0.749970 0.481000 0.071200 -0.505518
O11   O     O_R   0.250030 0.481000 0.928800 -0.505518
O12   O     O_R   0.749970 0.428830 0.018980 -0.518624
O13   O     O_R   0.749970 0.519000 0.928800 -0.505518
O14   O     O_R   0.750030 0.019000 0.071200 -0.505518
O15   O     O_R   0.249970 0.981000 0.071200 -0.505518
O16   O     O_R   0.750030 0.981000 0.928800 -0.505518
O17   O     O_R   0.249970 0.019000 0.928800 -0.505518
O18   O     O_R   0.750030 0.519000 0.571200 -0.505518
O19   O     O_R   0.249970 0.481000 0.571200 -0.505518
O20   O     O_R   0.750030 0.481000 0.428800 -0.505518
O21   O     O_R   0.249970 0.519000 0.428800 -0.505518
O22   O     O_R   0.250030 0.019000 0.571200 -0.505518
O23   O     O_R   0.250030 0.428830 0.981020 -0.518624
O24   O     O_R   0.749970 0.981000 0.571200 -0.505518
O25   O     O_R   0.250030 0.981000 0.428800 -0.505518
O26   O     O_R   0.749970 0.019000 0.428800 -0.505518
O27   O     O_R   0.159850 0.526090 0.973890 -0.513290
O28   O     O_R   0.840150 0.473910 0.973890 -0.513290
O29   O     O_R   0.159850 0.473910 0.026110 -0.513290
O30   O     O_R   0.840150 0.526090 0.026110 -0.513290
O31   O     O_R   0.659850 0.026090 0.973890 -0.513290
O32   O     O_R   0.340150 0.973910 0.973890 -0.513290
O33   O     O_R   0.659850 0.973910 0.026110 -0.513290
O34   O     O_R   0.749970 0.571170 0.981020 -0.518624
O35   O     O_R   0.340150 0.026090 0.026110 -0.513290
O36   O     O_R   0.659850 0.526090 0.473890 -0.513290
O37   O     O_R   0.340150 0.473910 0.473890 -0.513290
O38   O     O_R   0.659850 0.473910 0.526110 -0.513290
O39   O     O_R   0.340150 0.526090 0.526110 -0.513290
O40   O     O_R   0.159850 0.026090 0.473890 -0.513290
O41   O     O_R   0.840150 0.973910 0.473890 -0.513290
O42   O     O_R   0.159850 0.973910 0.526110 -0.513290
O43   O     O_R   0.840150 0.026090 0.526110 -0.513290
O44   O     O_R   0.340200 0.526080 0.973890 -0.509202
O45   O     O_R   0.750030 0.071170 0.018980 -0.518624
O46   O     O_R   0.659800 0.473920 0.973890 -0.509202
O47   O     O_R   0.340200 0.473920 0.026110 -0.509202
O48   O     O_R   0.659800 0.526080 0.026110 -0.509202
O49   O     O_R   0.840200 0.026080 0.973890 -0.509202
O50   O     O_R   0.159800 0.973920 0.973890 -0.509202
O51   O     O_R   0.840200 0.973920 0.026110 -0.509202
O52   O     O_R   0.159800 0.026080 0.026110 -0.509202
O53   O     O_R   0.840200 0.526080 0.473890 -0.509202
O54   O     O_R   0.159800 0.473920 0.473890 -0.509202
O55   O     O_R   0.840200 0.473920 0.526110 -0.509202
O56   O     O_R   0.249970 0.928830 0.018980 -0.518624
O57   O     O_R   0.159800 0.526080 0.526110 -0.509202
O58   O     O_R   0.340200 0.026080 0.473890 -0.509202
O59   O     O_R   0.659800 0.973920 0.473890 -0.509202
O60   O     O_R   0.340200 0.973920 0.526110 -0.509202
O61   O     O_R   0.659800 0.026080 0.526110 -0.509202
O62   O     O_R   0.302180 0.295120 0.704840 -0.510159
O63   O     O_R   0.697820 0.704880 0.704840 -0.510159
O64   O     O_R   0.302180 0.704880 0.295160 -0.510159
O65   O     O_R   0.697820 0.295120 0.295160 -0.510159
O66   O     O_R   0.802180 0.795120 0.704840 -0.510159
O67   O     O_R   0.750030 0.928830 0.981020 -0.518624
O68   O     O_R   0.197820 0.204880 0.704840 -0.510159
O69   O     O_R   0.802180 0.204880 0.295160 -0.510159
O70   O     O_R   0.197820 0.795120 0.295160 -0.510159
O71   O     O_R   0.802180 0.295120 0.204840 -0.510159
O72   O     O_R   0.197820 0.704880 0.204840 -0.510159
O73   O     O_R   0.802180 0.704880 0.795160 -0.510159
O74   O     O_R   0.197820 0.295120 0.795160 -0.510159
O75   O     O_R   0.302180 0.795120 0.204840 -0.510159
O76   O     O_R   0.697820 0.204880 0.204840 -0.510159
O77   O     O_R   0.302180 0.204880 0.795160 -0.510159
O78   O     O_R   0.249970 0.071170 0.981020 -0.518624
O79   O     O_R   0.697820 0.795120 0.795160 -0.510159
O80   O     O_R   0.197800 0.295110 0.704850 -0.510833
O81   O     O_R   0.802200 0.704890 0.704850 -0.510833
O82   O     O_R   0.197800 0.704890 0.295150 -0.510833
O83   O     O_R   0.802200 0.295110 0.295150 -0.510833
O84   O     O_R   0.697800 0.795110 0.704850 -0.510833
O85   O     O_R   0.302200 0.204890 0.704850 -0.510833
O86   O     O_R   0.697800 0.204890 0.295150 -0.510833
O87   O     O_R   0.302200 0.795110 0.295150 -0.510833
O88   O     O_R   0.697800 0.295110 0.204850 -0.510833
O89   O     O_R   0.750030 0.571170 0.518980 -0.518624
O90   O     O_R   0.302200 0.704890 0.204850 -0.510833
O91   O     O_R   0.697800 0.704890 0.795150 -0.510833
O92   O     O_R   0.302200 0.295110 0.795150 -0.510833
O93   O     O_R   0.197800 0.795110 0.204850 -0.510833
O94   O     O_R   0.802200 0.204890 0.204850 -0.510833
O95   O     O_R   0.197800 0.204890 0.795150 -0.510833
O96   O     O_R   0.802200 0.795110 0.795150 -0.510833

loop_
_geom_bond_atom_site_label_1
_geom_bond_atom_site_label_2
_ccdc_geom_bond_type
C31   O37   A    
C87   C91   A    
C55   H17   S    
C15   C151  S    
Cu16  O69   S    
C9    C143  S    
C206  H76   S    
Cu21  O56   S    
C163  H10   S    
Cu20  O45   S    
C118  H34   S    
C195  C203  S    
C19   C113  S    
C167  C185  A    
C112  O12   A    
C105  C123  A    
C130  C141  A    
C215  H85   S    
Cu14  O73   S    
Cu3   Cu24  S    
C186  H74   S    
C78   C96   A    
C57   C202  S    
C58   C75   A    
C32   C104  S    
C48   C65   A    
C49   H69   S    
C174  C191  A    
C1    C187  S    
C25   O96   A    
C84   C99   A    
C113  C155  A    
Cu12  O46   S    
Cu14  O66   S    
Cu24  O53   S    
Cu1   O44   S    
C210  C224  A    
C119  C200  A    
C165  C183  A    
C166  C184  A    
C169  C187  A    
C44   C81   A    
C132  H49   S    
C47   C64   A    
C155  H3    S    
C206  C207  A    
C181  O56   A    
C119  H35   S    
C116  C133  A    
C180  H68   S    
C154  H112  S    
Cu1   Cu18  S    
C205  C223  A    
Cu4   O39   S    
C183  H71   S    
C185  C202  A    
C75   C76   A    
C19   O91   A    
C78   C82   A    
C111  C130  A    
C129  H45   S    
C5    C213  A    
C30   C102  S    
Cu10  O84   S    
C31   C100  S    
C90   C153  A    
Cu6   Cu8   S    
C86   C99   A    
C11   O83   A    
Cu17  O82   S    
C171  C188  A    
C40   O54   A    
Cu18  O29   S    
C23   O77   A    
C9    O81   A    
C5    C39   S    
C53   C89   A    
Cu12  O28   S    
C32   O42   A    
C53   C71   A    
C51   C83   A    
C67   H97   S    
Cu16  O71   S    
C118  C136  A    
C43   C61   A    
C148  O23   A    
Cu11  O87   S    
Cu21  O50   S    
Cu8   O8    S    
Cu17  O93   S    
C213  C217  A    
C177  C195  A    
C107  H24   S    
Cu21  O32   S    
Cu11  O90   S    
C159  O13   A    
C182  C199  A    
C88   C102  A    
C52   H102  S    
C130  H46   S    
C139  C150  A    
C44   C62   A    
C8    O80   A    
Cu9   Cu15  S    
C54   C88   A    
C116  C197  A    
C217  H87   S    
C146  C164  A    
C211  H82   S    
C14   C147  S    
C64   H94   S    
C45   C63   A    
C45   C80   A    
C121  H38   S    
C166  H14   S    
C180  C198  A    
C123  H40   S    
C111  C194  A    
C37   O49   A    
C9    O63   A    
C83   C86   A    
C120  C138  A    
C88   C89   A    
C3    C37   S    
C22   O76   A    
C6    C42   S    
C42   O59   A    
C52   C91   A    
C20   O74   A    
C51   C69   A    
Cu15  O95   S    
C143  C161  A    
C136  C146  A    
Cu2   O54   S    
C35   O22   A    
C115  C196  A    
C207  C223  A    
C135  C157  A    
C80   C97   A    
C68   C204  S    
Cu22  O33   S    
C192  O16   A    
C184  H72   S    
Cu8   O43   S    
C33   O41   A    
C218  H88   S    
C72   H101  S    
C111  H29   S    
C160  H7    S    
Cu16  O94   S    
C24   O21   A    
C208  C222  A    
C69   H98   S    
Cu9   O85   S    
Cu1   O27   S    
C110  C129  A    
C43   H1    S    
Cu11  Cu17  S    
C147  C165  A    
C39   O55   A    
C129  C135  A    
C22   O94   A    
C46   C201  S    
C4    C40   S    
C74   C77   A    
C58   H19   S    
C34   O47   A    
C60   H21   S    
C47   H47   S    
C50   C67   A    
C139  H55   S    
C30   O38   A    
C219  H89   S    
C140  H56   S    
C66   C67   A    
C106  H23   S    
C26   O29   A    
C159  O34   A    
C27   O30   A    
C159  C190  S    
C108  C190  A    
Cu20  O49   S    
C192  O67   A    
C115  C132  A    
C60   C92   A    
C138  C149  A    
C3    C211  A    
C168  C186  A    
C49   C66   A    
C154  C172  A    
C116  H32   S    
C29   O32   A    
C177  H65   S    
Cu7   O7    S    
Cu11  O64   S    
C20   C101  S    
C145  C163  A    
C178  C196  A    
C170  C191  S    
Cu2   O21   S    
C25   O79   A    
C192  C194  S    
C214  O18   A    
C122  H39   S    
C158  H6    S    
Cu19  O10   S    
C175  C193  A    
C196  C214  S    
C37   O51   A    
C38   O52   A    
C13   O3    A    
C110  C193  A    
C167  H15   S    
C2    O19   A    
C168  H16   S    
C10   C146  S    
C7    C220  A    
C28   C99   S    
C46   O24   A    
Cu15  O80   S    
C48   C86   A    
Cu10  O79   S    
Cu4   O4    S    
Cu15  O74   S    
C76   H106  S    
C12   O84   A    
C23   O95   A    
C181  C193  S    
C34   C223  S    
C218  C221  A    
C87   C100  A    
C212  C224  A    
C57   O25   A    
C50   H80   S    
C133  C144  A    
C184  C201  A    
C182  H70   S    
C54   H13   S    
C34   O44   A    
Cu20  O16   S    
Cu7   O42   S    
Cu22  O14   S    
Cu14  O81   S    
Cu3   O38   S    
C183  C200  A    
C35   O5    A    
C121  C139  A    
C122  C140  A    
C71   C72   A    
C39   O53   A    
C1    O9    A    
C101  C154  A    
C206  C222  A    
Cu20  Cu22  S    
C131  H48   S    
C53   H2    S    
C7    C41   S    
C214  O89   A    
C55   C87   A    
C29   O35   A    
C125  H41   S    
Cu6   O6    S    
C30   O36   A    
C26   C97   S    
C40   O57   A    
C55   C73   A    
C128  H44   S    
Cu9   O62   S    
C14   O68   A    
Cu15  O68   S    
Cu13  Cu16  S    
C16   C150  S    
C47   C78   A    
Cu8   O61   S    
Cu12  O13   S    
C161  H8    S    
C117  C198  A    
Cu6   O59   S    
Cu19  O48   S    
C3    C209  A    
Cu4   O57   S    
C56   C95   A    
C2    C197  S    
C114  C131  A    
C220  H90   S    
C50   C84   A    
Cu18  O23   S    
C156  C174  A    
C29   C98   S    
C207  H77   S    
Cu12  Cu19  S    
C15   O86   A    
C11   O65   A    
C108  H26   S    
C38   O50   A    
C51   H91   S    
C173  C190  A    
C209  C212  A    
Cu10  Cu14  S    
C38   C224  S    
C126  H42   S    
C7    C218  A    
C28   O33   A    
C18   C79   S    
Cu23  O78   S    
Cu2   O2    S    
C210  H81   S    
C137  H53   S    
C33   O43   A    
Cu19  O34   S    
C124  C128  A    
C152  C169  A    
C132  C143  A    
C44   H25   S    
C45   H36   S    
C36   O46   A    
C27   C96   S    
C117  C134  A    
C122  C204  A    
Cu2   O37   S    
C56   C74   A    
C114  C195  A    
C89   C100  A    
Cu5   O5    S    
C84   C85   A    
C10   O64   A    
C216  H86   S    
C219  C220  A    
C75   H109  S    
C81   C96   A    
C20   O92   A    
Cu6   O26   S    
C1    O1    A    
C18   O72   A    
C138  H54   S    
C61   C64   A    
C62   C63   A    
C18   O90   A    
C28   O31   A    
C109  C128  A    
C106  C125  A    
C208  H78   S    
Cu10  O63   S    
C107  C189  A    
C70   C73   A    
C140  C151  A    
C8    O62   A    
Cu22  O67   S    
C24   O4    A    
C59   H20   S    
C94   C103  A    
Cu21  Cu23  S    
C82   C97   A    
C148  O11   A    
C178  H66   S    
C68   O8    A    
C115  H31   S    
C134  C145  A    
C170  O14   A    
C61   H95   S    
Cu9   O77   S    
C33   C103  S    
C14   O85   A    
C12   C149  S    
C137  C147  A    
C25   C141  S    
C17   C90   S    
Cu17  O70   S    
C209  H79   S    
Cu9   O92   S    
C156  H4    S    
C21   C135  S    
C172  C189  A    
C19   O73   A    
C42   O61   A    
Cu16  O83   S    
C48   H58   S    
Cu5   Cu7   S    
C41   O58   A    
C63   H93   S    
C27   O28   A    
C174  H62   S    
Cu3   O18   S    
C65   C69   A    
C150  C167  A    
C90   C125  A    
C134  H51   S    
C117  H33   S    
C105  H22   S    
C160  C177  A    
C164  C182  A    
C15   O69   A    
C17   O71   A    
C141  C158  A    
C13   O20   A    
C36   O48   A    
C74   H108  S    
C176  C194  A    
C161  C178  A    
C62   H96   S    
C2    O2    A    
C185  H73   S    
C70   H104  S    
C181  O15   A    
C93   C94   A    
Cu24  O36   S    
C16   O87   A    
Cu3   O3    S    
C215  C216  A    
Cu4   O19   S    
Cu12  O12   S    
C68   O26   A    
C171  H59   S    
Cu18  O47   S    
Cu13  O65   S    
C121  C202  A    
C152  H110  S    
C46   O6    A    
C73   H103  S    
Cu14  O96   S    
C151  C168  A    
C16   O70   A    
C65   H99   S    
C85   C98   A    
C92   C103  A    
C17   O88   A    
Cu24  O20   S    
C24   C199  S    
C21   O93   A    
C23   C142  S    
Cu13  O86   S    
C6    C221  A    
C155  C173  A    
C205  H75   S    
Cu23  O35   S    
Cu6   O41   S    
C4    C215  A    
C120  C201  A    
C172  H60   S    
C57   O7    A    
Cu17  O72   S    
C118  C199  A    
C93   C104  A    
C10   O82   A    
C35   C200  S    
C77   H107  S    
C31   O39   A    
C120  H37   S    
C60   C77   A    
C32   O40   A    
C13   C198  S    
C173  H61   S    
C119  C137  A    
C49   C85   A    
C21   O75   A    
C179  H67   S    
C162  H9    S    
C41   O60   A    
Cu7   O22   S    
Cu21  O17   S    
C11   C145  S    
C127  H43   S    
C179  C197  A    
Cu11  O75   S    
C5    C216  A    
C79   C123  A    
C83   C98   A    
C92   C95   A    
C26   O27   A    
Cu10  O91   S    
Cu19  O30   S    
C157  H5    S    
Cu1   O11   S    
Cu24  O89   S    
C133  H50   S    
Cu1   O1    S    
C153  C171  A    
C221  H92   S    
C112  O10   A    
C101  C126  A    
C186  C204  A    
C8    C144  S    
C71   H105  S    
Cu13  O76   S    
C162  C179  A    
C109  H27   S    
C131  C142  A    
C157  C175  A    
C110  H28   S    
C212  H83   S    
C158  C176  A    
C4    C217  A    
Cu2   Cu4   S    
C124  C156  A    
C164  H11   S    
C91   C102  A    
C36   C222  S    
C56   H18   S    
C95   C104  A    
C205  C208  A    
C169  H57   S    
C148  C189  S    
C170  O45   A    
Cu23  O15   S    
C153  H111  S    
C213  H84   S    
C144  C162  A    
C203  O78   A    
C149  C166  A    
C107  C126  A    
C142  C160  A    
C80   C81   A    
Cu5   O25   S    
C112  C188  S    
C12   O66   A    
C22   C124  S    
Cu23  O52   S    
C113  C127  A    
Cu3   O55   S    
Cu8   O24   S    
C165  H12   S    
C105  C187  A    
C58   C94   A    
C106  C188  A    
Cu20  O31   S    
Cu7   O60   S    
C109  C191  A    
C59   C76   A    
Cu5   O58   S    
C108  C127  A    
Cu5   O40   S    
C52   C70   A    
C114  H30   S    
Cu13  O88   S    
C6    C219  A    
Cu22  O51   S    
Cu18  O9    S    
C54   C72   A    
C175  H63   S    
C210  C211  A    
C163  C180  A    
C176  H64   S    
C43   C82   A    
C79   C152  A    
C66   H100  S    
C59   C93   A    
C203  O17   A    
C136  H52   S    
