data_mof_unit_10012.cif
_audit_creation_date              2012-12-10T17:14:42-0500
_audit_creation_method            fapswitch 2.2
_symmetry_space_group_name_H-M    P1
_symmetry_Int_Tables_number       1
_space_group_crystal_system       triclinic
_cell_length_a                    10.630987
_cell_length_b                    12.979951
_cell_length_c                    11.891989
_cell_angle_alpha                 100.812228
_cell_angle_beta                  94.753872
_cell_angle_gamma                 90.590036
_cell_volume                      1605.73524492

loop_
_atom_site_label
_atom_site_type_symbol
_atom_type_description
_atom_site_fract_x
_atom_site_fract_y
_atom_site_fract_z
_atom_type_partial_charge
C1    C     C_R   0.502326 0.300018 0.478845 0.826283
C2    C     C_R   0.497673 0.699982 0.521155 0.826281
C3    C     C_R   0.581885 0.131663 0.526327 -0.063495
C4    C     C_R   0.418112 0.868336 0.473673 -0.063496
C5    C     C_R   0.557529 0.024620 0.527233 0.119329
C6    C     C_R   0.442468 0.975380 0.472767 0.119330
C7    C     C_R   0.389751 0.397157 0.018696 -0.325705
C8    C     C_R   0.610250 0.602842 0.981303 -0.325705
C9    C     C_R   0.402138 0.403585 0.138455 0.151893
C10   C     C_R   0.597862 0.596415 0.861545 0.151893
C11   C     C_R   0.548588 0.546168 0.158316 0.301288
C12   C     C_R   0.451412 0.453832 0.841684 0.301288
C13   C     C_R   0.540738 0.537247 0.035419 0.000472
C14   C     C_R   0.459263 0.462752 0.964581 0.000472
C15   C     C_R   0.259566 0.500414 0.499224 0.840968
C16   C     C_R   0.740434 0.499587 0.500776 0.840971
C17   C     C_3   0.044490 0.408343 0.521194 -0.201460
C18   C     C_3   0.955510 0.591659 0.478806 -0.201461
C19   C     C_3   0.949467 0.421254 0.419677 0.186105
C20   C     C_3   0.050533 0.578747 0.580323 0.186104
C21   C     C_3   0.877748 0.499207 0.502394 -0.051524
C22   C     C_3   0.122252 0.500794 0.497606 -0.051524
C23   C     C_3   0.970843 0.486716 0.604674 -0.166075
C24   C     C_3   0.029157 0.513285 0.395326 -0.166073
C25   C     C_R   0.508613 0.812480 0.530140 -0.050856
C26   C     C_R   0.491385 0.187520 0.469860 -0.050858
C27   C     C_R   0.354285 0.034400 0.418704 -0.211714
C28   C     C_R   0.645712 0.965600 0.581295 -0.211714
C29   C     C_R   0.377705 0.139451 0.420202 -0.194703
C30   C     C_R   0.622292 0.860549 0.579798 -0.194702
Cu1   Cu    Cu3+1 0.509400 0.507730 0.615930 0.984295
Cu2   Cu    Cu3+1 0.490600 0.492270 0.384070 0.984295
H1    H     H_    0.088339 0.334595 0.536038 0.162632
H2    H     H_    0.911662 0.665406 0.463962 0.162631
H3    H     H_    0.944468 0.476478 0.690319 0.164651
H4    H     H_    0.055532 0.523523 0.309681 0.164651
H5    H     H_    0.695437 0.815035 0.614376 0.168596
H6    H     H_    0.304561 0.184965 0.385622 0.168597
H7    H     H_    0.265209 0.001117 0.376357 0.160011
H8    H     H_    0.734789 0.998883 0.623642 0.160011
H9    H     H_    0.330255 0.334219 0.968954 0.187738
H10   H     H_    0.669746 0.665779 0.031046 0.187738
N1    N     N_R   0.523540 0.519360 0.790140 -0.206539
N2    N     N_R   0.476460 0.480640 0.209860 -0.206539
O1    O     O_R   0.506670 0.354460 0.582000 -0.568736
O2    O     O_R   0.493330 0.645540 0.418000 -0.568737
O3    O     O_R   0.490800 0.341410 0.386200 -0.577882
O4    O     O_R   0.509200 0.658590 0.613800 -0.577882
O5    O     O_R   0.324790 0.506500 0.597880 -0.531834
O6    O     O_R   0.675210 0.493500 0.402120 -0.531833
O7    O     O_R   0.308910 0.493440 0.402080 -0.598355
O8    O     O_R   0.691090 0.506560 0.597920 -0.598356
I1    I     I_    0.857876 0.298308 0.293727 -0.478989
I2    I     I_    0.142123 0.701695 0.706273 -0.478989
C31   C     C_R   0.299810 0.815911 0.413743 0.073861
C32   C     C_R   0.299693 0.757382 0.301634 -0.087472
C33   C     C_R   0.185887 0.720321 0.239104 -0.158451
C34   C     C_R   0.071416 0.745070 0.286241 -0.118773
C35   C     C_R   0.070793 0.805235 0.396760 -0.129095
C36   C     C_R   0.184507 0.838764 0.461302 -0.146965
H11   H     H_    0.387247 0.742873 0.261606 0.158118
H12   H     H_    0.186310 0.674793 0.152993 0.143943
H13   H     H_    0.983259 0.718433 0.236719 0.162266
H14   H     H_    0.982167 0.827058 0.432072 0.142924
H15   H     H_    0.182757 0.887069 0.545941 0.157077
C37   C     C_R   0.700189 0.184088 0.586253 0.073861
C38   C     C_R   0.815489 0.161233 0.538691 -0.146962
C39   C     C_R   0.929205 0.194761 0.603230 -0.129094
C40   C     C_R   0.928586 0.254924 0.713750 -0.118774
C41   C     C_R   0.814117 0.279674 0.760890 -0.158452
C42   C     C_R   0.700309 0.242616 0.698363 -0.087474
H16   H     H_    0.817236 0.112929 0.454052 0.157077
H17   H     H_    0.017830 0.172937 0.567915 0.142923
H18   H     H_    0.016745 0.281559 0.763270 0.162267
H19   H     H_    0.813697 0.325201 0.847002 0.143944
H20   H     H_    0.612757 0.257126 0.738393 0.158117
I3    I     I_    0.314345 0.341952 0.742962 -0.447663
I4    I     I_    0.685655 0.658048 0.257037 -0.447664
C43   C     C_R   0.647621 0.689829 0.824897 0.167484
C44   C     C_R   0.574091 0.780269 0.840835 -0.118873
C45   C     C_R   0.629790 0.879644 0.849096 -0.141899
C46   C     C_R   0.759509 0.889919 0.841823 -0.136780
C47   C     C_R   0.832996 0.800667 0.824289 -0.152300
C48   C     C_R   0.777721 0.700804 0.815952 -0.161829
H21   H     H_    0.474759 0.774077 0.853649 0.152444
H22   H     H_    0.572779 0.948754 0.863072 0.146318
H23   H     H_    0.803020 0.966962 0.849452 0.143853
H24   H     H_    0.933514 0.809794 0.821489 0.180377
H25   H     H_    0.837311 0.633203 0.810553 0.145044
C49   C     C_R   0.352378 0.310171 0.175104 0.167484
C50   C     C_R   0.222277 0.299197 0.184046 -0.161830
C51   C     C_R   0.167000 0.199333 0.175708 -0.152295
C52   C     C_R   0.240487 0.110080 0.158175 -0.136779
C53   C     C_R   0.370207 0.120355 0.150906 -0.141900
C54   C     C_R   0.425908 0.219730 0.159167 -0.118874
H26   H     H_    0.162686 0.366798 0.189443 0.145043
H27   H     H_    0.066480 0.190207 0.178504 0.180375
H28   H     H_    0.196974 0.033038 0.150545 0.143852
H29   H     H_    0.427217 0.051244 0.136932 0.146318
H30   H     H_    0.525241 0.225921 0.146356 0.152445

loop_
_geom_bond_atom_site_label_1
_geom_bond_atom_site_label_2
_ccdc_geom_bond_type
C31   C32   A    
C16   C21   S    
C27   C29   A    
C18   C21   S    
Cu1   O8    S    
C4    C25   A    
C49   C50   A    
C33   H12   S    
C2    O2    A    
C35   H14   S    
C52   C53   A    
Cu1   N1    S    
C47   C48   A    
C18   C24   S    
C19   C21   S    
C8    H10   S    
C12   N1    A    
C5    C6    A    
C28   H8    S    
C46   H23   S    
C25   C30   A    
C32   C33   A    
C38   H16   S    
C50   H26   S    
C15   C22   S    
Cu1   Cu2   S    
C27   H7    S    
C39   C40   A    
C29   H6    S    
C41   C42   A    
C15   O7    A    
C45   H22   S    
C6    C27   A    
C19   I1    S    
C15   O5    A    
C47   H24   S    
C35   C36   A    
C31   C36   A    
C43   C48   A    
C53   C54   A    
C17   H1    S    
Cu1   O5    S    
C51   H27   S    
C45   C46   A    
C7    C14   A    
C38   C39   A    
C11   N2    A    
C4    C6    A    
C50   C51   A    
C54   H30   S    
C1    O3    A    
C2    O4    A    
C34   C35   A    
C30   H5    S    
Cu2   O7    S    
C44   H21   S    
C11   I4    S    
C5    C28   A    
C37   C42   A    
C20   C23   S    
C12   I3    S    
Cu2   N2    S    
C40   H18   S    
C17   C23   S    
C18   H2    S    
Cu2   O6    S    
C20   I2    S    
C12   C14   A    
C36   H15   S    
C23   H3    S    
Cu1   O4    S    
C21   C23   S    
C4    C31   S    
C1    C26   S    
Cu2   O3    S    
C22   C24   S    
C3    C37   S    
C48   H25   S    
C34   H13   S    
C7    C9    A    
C9    N2    A    
C10   N1    A    
Cu2   O2    S    
C3    C26   A    
C16   O8    A    
C20   C22   S    
C44   C45   A    
C3    C5    A    
C49   C54   A    
C9    C49   S    
C10   C43   S    
C17   C22   S    
C24   H4    S    
C28   C30   A    
C19   C24   S    
C39   H17   S    
C11   C13   A    
C1    O1    A    
C33   C34   A    
C42   H20   S    
C53   H29   S    
C51   C52   A    
C17   C19   S    
C37   C38   A    
C2    C25   S    
C18   C20   S    
C7    H9    S    
C40   C41   A    
C16   O6    A    
C43   C44   A    
C8    C13   A    
C26   C29   A    
C8    C10   A    
C46   C47   A    
Cu1   O1    S    
C41   H19   S    
C32   H11   S    
C13   C14   A    
C52   H28   S    
