data_mof_unit_33966.cif
_audit_creation_date              2013-03-05T15:57:42-0500
_audit_creation_method            fapswitch 2.2
_symmetry_space_group_name_H-M    P1
_symmetry_Int_Tables_number       1
_space_group_crystal_system       triclinic
_cell_length_a                    19.115921
_cell_length_b                    17.989853
_cell_length_c                    12.629677
_cell_angle_alpha                 90.617947
_cell_angle_beta                  97.932366
_cell_angle_gamma                 91.461207
_cell_volume                      4299.8472484

loop_
_atom_site_label
_atom_site_type_symbol
_atom_site_description
_atom_site_fract_x
_atom_site_fract_y
_atom_site_fract_z
_atom_type_partial_charge
O1    O     O_R   0.448200 0.076800 0.373930 -0.630707
O2    O     O_R   0.448200 0.923200 0.373930 -0.620124
O3    O     O_R   0.948200 0.576800 0.373930 -0.600919
O4    O     O_R   0.948200 0.423200 0.373930 -0.612797
O5    O     O_R   0.414750 0.076790 0.542400 -0.655355
O6    O     O_R   0.414750 0.923210 0.542400 -0.603263
O7    O     O_R   0.914750 0.576790 0.542400 -0.637238
O8    O     O_R   0.914750 0.423210 0.542400 -0.659646
C1    C     C_R   0.411166 0.102684 0.445320 0.876623
C2    C     C_R   0.406280 0.901812 0.441555 0.881276
C3    C     C_R   0.911224 0.602801 0.445789 0.883433
C4    C     C_R   0.917462 0.391674 0.449985 0.869403
Zn1   Zn    Zn3+2 0.522330 1.000000 0.387520 1.034329
Zn2   Zn    Zn3+2 0.022330 0.500000 0.387520 1.034470
Zn3   Zn    Zn3+2 0.477660 0.000000 0.612480 1.031433
Zn4   Zn    Zn3+2 0.977660 0.500000 0.612480 1.007155
O9    O     O_R   0.585240 0.923200 0.457600 -0.565899
O10   O     O_R   0.585240 0.076800 0.457600 -0.569787
O11   O     O_R   0.085240 0.423200 0.457600 -0.557144
O12   O     O_R   0.085240 0.576800 0.457600 -0.595655
O13   O     O_R   0.551780 0.923190 0.626070 -0.576465
O14   O     O_R   0.551780 0.076810 0.626070 -0.551769
O15   O     O_R   0.051780 0.423190 0.626070 -0.568803
O16   O     O_R   0.051780 0.576810 0.626070 -0.558653
C5    C     C_R   0.581506 0.891888 0.549575 1.027699
C6    C     C_R   0.592260 0.100733 0.556403 1.018707
C7    C     C_R   0.081582 0.391855 0.549770 0.966733
C8    C     C_R   0.082353 0.608585 0.551019 0.994315
C9    C     C_R   0.715103 0.239147 0.720215 0.243046
C10   C     C_R   0.668403 0.734335 0.699369 0.244895
C11   C     C_R   0.150951 0.796125 0.676244 0.228028
C12   C     C_R   0.170919 0.234169 0.697603 0.251014
H1    H     H_    0.221490 0.929182 0.662821 0.188238
H2    H     H_    0.306173 0.195813 0.749573 0.171597
H3    H     H_    0.842355 0.306658 0.780605 0.180105
H4    H     H_    0.801603 0.690031 0.751683 0.176400
C13   C     C_R   0.653460 0.150883 0.591425 -0.307944
C14   C     C_R   0.614337 0.819189 0.567647 -0.321631
C15   C     C_R   0.112779 0.684719 0.568591 -0.345265
C16   C     C_R   0.115270 0.319597 0.567744 -0.361952
C17   C     C_R   0.352684 0.803272 0.316059 -0.331748
C18   C     C_R   0.332282 0.157231 0.299011 -0.356275
C19   C     C_R   0.891068 0.277045 0.339491 -0.301401
C20   C     C_R   0.833627 0.659964 0.301540 -0.329543
C21   C     C_R   0.300638 0.747371 0.284760 0.555754
C22   C     C_R   0.262531 0.175753 0.259394 0.545620
C23   C     C_R   0.869366 0.201763 0.327273 0.533099
C24   C     C_R   0.763970 0.677634 0.260728 0.539757
C25   C     C_R   0.245654 0.738835 0.346191 -0.180293
C26   C     C_R   0.218118 0.194686 0.333478 -0.141107
C27   C     C_R   0.836848 0.169032 0.408663 -0.119953
C28   C     C_R   0.717839 0.693307 0.334089 -0.130308
C29   C     C_R   0.236909 0.789230 0.429756 0.048454
C30   C     C_R   0.243666 0.205105 0.443284 0.048343
C31   C     C_R   0.826332 0.209518 0.501870 0.045959
C32   C     C_R   0.741893 0.702059 0.444852 0.055491
C33   C     C_R   0.284896 0.849733 0.451577 0.091462
C34   C     C_R   0.312192 0.182492 0.482228 0.079464
C35   C     C_R   0.867708 0.274757 0.524233 0.064175
C36   C     C_R   0.810379 0.679791 0.484567 0.079415
C37   C     C_R   0.773663 0.193344 0.570239 -0.026398
C38   C     C_R   0.699844 0.732330 0.518068 -0.045751
C39   C     C_R   0.186314 0.776794 0.499830 -0.002396
C40   C     C_R   0.202312 0.235443 0.516883 -0.048824
C41   C     C_R   0.774983 0.235901 0.666537 -0.063846
C42   C     C_R   0.716542 0.717329 0.628407 -0.036371
C43   C     C_R   0.188288 0.820640 0.593828 -0.031462
C44   C     C_R   0.219946 0.220472 0.627029 -0.037722
C45   C     C_R   0.225819 0.888633 0.600323 -0.103281
C46   C     C_R   0.288010 0.198501 0.664771 -0.140410
C47   C     C_R   0.834599 0.280273 0.702263 -0.120153
C48   C     C_R   0.783983 0.693571 0.666722 -0.118197
C49   C     C_R   0.271367 0.904388 0.526547 -0.174414
C50   C     C_R   0.335696 0.187919 0.593340 -0.145288
C51   C     C_R   0.880917 0.299054 0.631793 -0.079008
C52   C     C_R   0.832439 0.683530 0.596212 -0.140637
C53   C     C_R   0.714761 0.145312 0.540083 0.254431
C54   C     C_R   0.649800 0.786670 0.488146 0.243968
C55   C     C_R   0.135114 0.720255 0.480295 0.178176
C56   C     C_R   0.150551 0.288091 0.487353 0.231511
C57   C     C_R   0.652030 0.202321 0.676096 0.234064
C58   C     C_R   0.613500 0.782853 0.665948 0.186369
C59   C     C_R   0.116840 0.725292 0.666751 0.232140
C60   C     C_R   0.115269 0.281594 0.664953 0.268044
C61   C     C_R   0.346266 0.852233 0.401332 -0.151146
C62   C     C_R   0.354235 0.153117 0.409451 -0.137588
C63   C     C_R   0.891790 0.313701 0.437983 -0.168905
C64   C     C_R   0.854060 0.653234 0.411628 -0.134868
H5    H     H_    0.399647 0.808214 0.277842 0.184494
H6    H     H_    0.368571 0.140123 0.245827 0.173995
H7    H     H_    0.909478 0.306662 0.274245 0.180943
H8    H     H_    0.871199 0.645292 0.249046 0.182786
H9    H     H_    0.823548 0.110807 0.398293 0.222643
H10   H     H_    0.662821 0.699281 0.302836 0.203365
H11   H     H_    0.211682 0.690182 0.329786 0.193970
H12   H     H_    0.162859 0.200209 0.303520 0.196822
H13   H     H_    0.297792 0.958331 0.531577 0.147953
H14   H     H_    0.390369 0.182531 0.626928 0.216843
H15   H     H_    0.925433 0.334397 0.662832 0.208585
H16   H     H_    0.886850 0.678485 0.631046 0.213283
C65   C     C_R   0.635712 0.953109 0.133535 -0.179476
C66   C     C_R   0.139093 0.544040 0.136800 -0.213716
H17   H     H_    0.656205 0.974363 0.301561 0.224384
H18   H     H_    0.157176 0.527438 0.305250 0.146081
H19   H     H_    0.660218 0.927846 0.940607 0.199226
H20   H     H_    0.165846 0.568184 0.947176 0.199047
H21   H     H_    0.688790 0.934662 0.129059 0.179780
H22   H     H_    0.192993 0.563194 0.133505 0.173040
N1    N     N_R   0.552340 0.000000 0.237260 -0.121155
N2    N     N_R   0.052340 0.500000 0.237260 -0.095761
C67   C     C_R   0.378483 0.011684 0.764568 0.038197
C68   C     C_R   0.878078 0.487436 0.763904 0.002705
C69   C     C_R   0.350731 0.009895 0.860529 -0.216355
C70   C     C_R   0.851543 0.482650 0.860308 -0.203336
C71   C     C_R   0.395121 0.998344 0.955393 -0.199722
C72   C     C_R   0.897258 0.490819 0.955395 -0.189518
C73   C     C_R   0.467786 0.987648 0.954605 0.002073
C74   C     C_R   0.970268 0.504914 0.954816 -0.010139
C75   C     C_R   0.493957 0.986894 0.854355 0.136213
C76   C     C_R   0.996132 0.509194 0.854486 0.142964
C77   C     C_R   0.516273 0.980866 0.049817 -0.017109
C78   C     C_R   0.018777 0.513014 0.050381 -0.027265
C79   C     C_R   0.585130 0.956041 0.042793 0.058085
C80   C     C_R   0.088773 0.538829 0.045543 0.075449
C81   C     C_R   0.605800 0.942409 0.944138 -0.152584
C82   C     C_R   0.110718 0.552551 0.948822 -0.157726
C83   C     C_R   0.566982 0.971615 0.853873 0.325755
C84   C     C_R   0.070586 0.526558 0.855604 0.352242
C85   C     C_R   0.500962 0.001266 0.151697 -0.030535
C86   C     C_R   0.001732 0.495109 0.151390 -0.008765
C87   C     C_R   0.618313 0.977095 0.230414 0.208375
C88   C     C_R   0.119814 0.522362 0.232816 0.185243
N3    N     N_R   0.448170 1.000000 0.762060 -0.122358
N4    N     N_R   0.948170 0.500000 0.762060 -0.129867
H23   H     H_    0.449206 0.018381 0.165146 0.113615
H24   H     H_    0.949393 0.477682 0.164820 0.116402
H25   H     H_    0.344022 0.021758 0.691291 0.129058
H26   H     H_    0.842694 0.480765 0.689665 0.159711
H27   H     H_    0.371391 0.996390 0.028079 0.142417
H28   H     H_    0.873734 0.488269 0.028128 0.142507
H29   H     H_    0.294915 0.017965 0.861508 0.209179
H30   H     H_    0.795551 0.472795 0.861409 0.214150
N5    N     N_R   0.586177 0.220045 0.712948 0.258156
O17   O     O_R   0.530408 0.231215 0.644007 -0.417456
O18   O     O_R   0.582796 0.231527 0.814017 -0.267224
N6    N     N_R   0.554264 0.790405 0.724434 0.235394
O19   O     O_R   0.490446 0.790169 0.672736 -0.377036
O20   O     O_R   0.562303 0.791680 0.828300 -0.331080
N7    N     N_R   0.084411 0.697678 0.754847 0.248554
O21   O     O_R   0.016018 0.689249 0.744838 -0.403933
O22   O     O_R   0.120168 0.699471 0.850294 -0.357588
N8    N     N_R   0.052234 0.275826 0.714388 0.216277
O23   O     O_R   0.013791 0.214934 0.699324 -0.379354
O24   O     O_R   0.042762 0.320124 0.792790 -0.335821
N9    N     N_R   0.609986 0.013725 0.791951 0.215348
O25   O     O_R   0.659876 0.980525 0.750737 -0.394475
O26   O     O_R   0.621335 0.083044 0.820495 -0.361148
N10   N     N_R   0.114277 0.495710 0.784231 0.231581
O27   O     O_R   0.134856 0.428439 0.804734 -0.343266
O28   O     O_R   0.160091 0.539970 0.747740 -0.397939
N11   N     N_R   0.715420 0.288412 0.810275 0.230728
O29   O     O_R   0.686287 0.352878 0.798007 -0.346236
O30   O     O_R   0.747429 0.270108 0.903602 -0.374383
N12   N     N_R   0.675533 0.702330 0.803458 0.227190
O31   O     O_R   0.679380 0.630578 0.813243 -0.395209
O32   O     O_R   0.689436 0.744970 0.887887 -0.370080
N13   N     N_R   0.150187 0.840654 0.771145 0.236608
O33   O     O_R   0.090357 0.857352 0.802416 -0.292102
O34   O     O_R   0.209060 0.859346 0.831112 -0.410169
N14   N     N_R   0.175545 0.197382 0.798677 0.214468
O35   O     O_R   0.192969 0.127971 0.805519 -0.431025
O36   O     O_R   0.157461 0.231056 0.882055 -0.318346
N15   N     N_R   0.715396 0.092274 0.455280 0.185190
O37   O     O_R   0.731944 0.023892 0.477217 -0.372360
O38   O     O_R   0.693840 0.110895 0.356989 -0.407641
N16   N     N_R   0.643713 0.817003 0.382703 0.206115
O39   O     O_R   0.584286 0.810309 0.318678 -0.412028
O40   O     O_R   0.698384 0.849010 0.349547 -0.389559
N17   N     N_R   0.087050 0.723322 0.382056 0.219697
O41   O     O_R   0.085287 0.672518 0.307767 -0.400747
O42   O     O_R   0.049149 0.781949 0.362772 -0.352892
N18   N     N_R   0.140848 0.316661 0.380596 0.217433
O43   O     O_R   0.080025 0.307955 0.320585 -0.433990
O44   O     O_R   0.191305 0.355277 0.345830 -0.374566
O45   O     O_3   0.302159 0.695158 0.202267 -0.646834
C89   C     C_3   0.348696 0.712710 0.127509 0.082970
H31   H     H_    0.349501 0.662855 0.075049 0.191801
H32   H     H_    0.404272 0.720677 0.165765 0.155191
C90   C     C_3   0.322568 0.777558 0.055423 -0.380022
H33   H     H_    0.269164 0.762921 0.012510 0.287109
H34   H     H_    0.318465 0.828792 0.103659 0.222243
C91   C     C_3   0.372610 0.793984 0.973741 -0.775980
H35   H     H_    0.425707 0.811429 0.015029 0.265020
H36   H     H_    0.351686 0.839672 0.921176 0.292846
H37   H     H_    0.377436 0.743993 0.923144 0.281169
O46   O     O_3   0.232807 0.174912 0.151656 -0.609658
C92   C     C_3   0.278337 0.152782 0.078471 0.150668
H38   H     H_    0.244760 0.136469 0.002900 0.237632
H39   H     H_    0.306550 0.101151 0.102882 0.091857
C93   C     C_3   0.327304 0.217676 0.054097 -0.365377
H40   H     H_    0.295765 0.259032 0.004693 0.268421
H41   H     H_    0.351542 0.246402 0.128960 0.238185
C94   C     C_3   0.386305 0.191029 0.994433 -0.866952
H42   H     H_    0.420585 0.152504 0.044938 0.263715
H43   H     H_    0.419150 0.239412 0.974854 0.296413
H44   H     H_    0.363816 0.162159 0.918987 0.265406
O47   O     O_3   0.870985 0.159770 0.234087 -0.612765
C95   C     C_3   0.927822 0.179346 0.177733 0.085421
H45   H     H_    0.949226 0.126953 0.149653 0.190126
H46   H     H_    0.973308 0.207647 0.228417 0.164219
C96   C     C_3   0.901091 0.224779 0.078830 -0.368508
H47   H     H_    0.866309 0.188606 0.020809 0.274547
H48   H     H_    0.869172 0.271681 0.101132 0.243166
C97   C     C_3   0.962086 0.255823 0.024870 -0.757073
H49   H     H_    0.996253 0.294151 0.080442 0.274595
H50   H     H_    0.940796 0.287316 0.952898 0.276890
H51   H     H_    0.994241 0.209895 0.999885 0.297481
O48   O     O_3   0.736864 0.680768 0.152113 -0.601364
C98   C     C_3   0.782030 0.653900 0.081139 0.154955
H52   H     H_    0.748579 0.637778 0.005339 0.241262
H53   H     H_    0.807380 0.601149 0.108339 0.091784
C99   C     C_3   0.835098 0.714889 0.056107 -0.364654
H54   H     H_    0.806802 0.758491 0.007150 0.275000
H55   H     H_    0.861382 0.742661 0.130473 0.243986
C100  C     C_3   0.891692 0.683139 0.995873 -0.833965
H56   H     H_    0.924733 0.644516 0.047965 0.265918
H57   H     H_    0.926298 0.728959 0.972787 0.303737
H58   H     H_    0.867088 0.653022 0.922381 0.261863

loop_
_geom_bond_atom_site_label_1
_geom_bond_atom_site_label_2
_geom_bond_distance
_ccdc_geom_bond_type
C65   H21   1.084158 S    
C17   H5    1.078549 S    
C94   H42   1.110839 S    
C25   C29   1.414053 A    
C2    C61   1.465216 S    
C46   C50   1.383179 A    
C31   C35   1.402353 A    
N9    O26   1.298866 A    
C16   C60   1.411675 A    
O10   C6    1.303744 A    
C10   N12   1.431487 S    
C48   C52   1.384332 A    
C21   O45   1.399018 S    
C68   C70   1.384784 A    
N11   O29   1.300823 A    
C36   C64   1.413231 A    
C84   N10   1.427845 S    
C50   H14   1.079507 S    
C39   C55   1.389420 A    
N15   O37   1.301229 A    
O7    C3    1.305193 A    
C94   H43   1.110212 S    
C67   H25   1.079225 S    
C65   C79   1.396127 A    
O13   C5    1.315090 A    
Zn1   O10   1.932243 S    
C70   H30   1.082460 S    
C78   C86   1.398421 A    
N12   O31   1.301011 A    
H17   C87   1.075919 S    
C66   C88   1.372819 A    
C24   C28   1.395760 A    
N7    O22   1.300777 A    
C74   C78   1.420642 A    
C1    C62   1.461474 S    
C97   H50   1.110694 S    
C79   C81   1.379479 A    
N14   O35   1.301249 A    
N18   O44   1.301925 A    
N5    O17   1.301357 A    
C100  H58   1.109924 S    
C11   C59   1.412840 A    
C90   H34   1.109764 S    
C18   C22   1.407602 A    
C33   C49   1.410892 A    
C92   H39   1.111079 S    
O2    Zn1   1.942759 S    
C73   C77   1.421720 A    
N18   O43   1.302198 A    
Zn1   N1    2.056935 S    
N11   O30   1.300657 A    
O6    Zn3   1.932120 S    
C85   H23   1.078546 S    
N10   O28   1.302741 A    
Zn3   O14   1.942747 S    
C42   C48   1.392563 A    
O45   C89   1.416502 S    
C90   C91   1.526813 S    
C37   C53   1.408704 A    
C93   H40   1.111486 S    
C71   C73   1.408554 A    
N1    C87   1.350400 A    
C82   C84   1.383401 A    
C16   C56   1.415289 A    
C28   H10   1.079611 S    
C18   C62   1.403332 A    
O15   C7    1.314204 A    
O4    C4    1.319132 A    
O11   C7    1.308649 A    
H2    C46   1.081341 S    
C95   C96   1.535107 S    
C20   H8    1.078147 S    
H1    C45   1.081984 S    
C12   C44   1.403972 A    
C32   C38   1.419269 A    
N16   O40   1.301704 A    
H3    C47   1.082613 S    
Zn4   O16   1.942747 S    
C14   C58   1.411151 A    
C89   H32   1.109818 S    
C54   N16   1.435586 S    
C40   C56   1.403118 A    
C13   C57   1.410171 A    
C92   H38   1.106498 S    
C66   C80   1.396243 A    
C34   C62   1.408926 A    
C58   N6    1.443191 S    
N6    O20   1.299425 A    
N15   O38   1.303025 A    
C23   O47   1.396007 S    
C12   C60   1.400855 A    
C94   H44   1.107866 S    
C39   C43   1.413813 A    
C4    C63   1.473499 S    
C38   C42   1.416489 A    
O47   C95   1.417876 S    
C91   H37   1.110742 S    
Zn2   O12   1.932243 S    
O1    C1    1.309540 A    
O14   C6    1.318065 A    
C35   C63   1.423996 A    
N13   O34   1.301222 A    
N2    C88   1.350060 A    
C83   N9    1.421180 S    
C98   H52   1.106832 S    
H4    C48   1.082451 S    
C29   C33   1.405333 A    
C97   H49   1.111170 S    
C67   N3    1.358501 A    
C23   C27   1.400197 A    
O12   C8    1.314190 A    
C99   C100  1.524689 S    
C41   C47   1.394050 A    
C13   C53   1.420557 A    
C36   C52   1.415267 A    
C19   H7    1.080154 S    
C32   C36   1.405655 A    
C69   C71   1.390125 A    
C18   H6    1.078035 S    
C91   H36   1.109741 S    
C10   C58   1.404958 A    
C92   C93   1.537979 S    
C49   H13   1.079686 S    
O5    C1    1.309864 A    
C68   H26   1.081395 S    
C5    C14   1.471462 S    
C98   H53   1.112633 S    
C45   C49   1.386955 A    
C71   H27   1.079141 S    
C96   H47   1.111613 S    
C21   C25   1.396307 A    
C3    C64   1.460232 S    
O8    C4    1.300293 A    
O5    Zn3   1.988790 S    
C51   H15   1.075651 S    
C100  H56   1.109992 S    
C67   C69   1.388789 A    
C75   N3    1.383944 A    
C25   H11   1.077364 S    
C66   H22   1.084492 S    
C15   C59   1.423631 A    
C60   N8    1.433596 S    
C95   H45   1.110888 S    
H20   C82   1.086803 S    
C10   C42   1.407027 A    
O3    Zn2   1.996057 S    
C27   H9    1.073888 S    
C9    C41   1.410675 A    
C65   C87   1.379184 A    
C93   H41   1.109975 S    
O7    Zn4   1.988790 S    
C96   H48   1.110022 S    
C11   N13   1.436384 S    
N8    O24   1.299298 A    
C9    C57   1.403202 A    
Zn4   O15   1.996047 S    
C56   N18   1.437801 S    
N1    C85   1.357067 A    
N10   O27   1.299721 A    
C55   N17   1.440845 S    
O1    Zn1   1.996057 S    
C78   C80   1.414662 A    
O2    C2    1.303816 A    
C40   C44   1.415846 A    
C35   C51   1.409646 A    
N13   O33   1.301516 A    
C34   C50   1.414719 A    
C80   C82   1.368120 A    
N6    O19   1.301708 A    
C30   C34   1.406064 A    
C90   H33   1.111647 S    
N5    O18   1.301529 A    
C12   N14   1.437129 S    
C76   N4    1.386819 A    
C99   H55   1.109508 S    
C53   N15   1.428205 S    
C7    C16   1.471288 S    
Zn2   O11   1.988918 S    
C38   C54   1.403372 A    
C86   H24   1.077073 S    
O16   C8    1.309328 A    
C77   C85   1.405411 A    
O46   C92   1.414964 S    
C24   O48   1.400139 S    
O6    C2    1.313724 A    
C70   C72   1.388329 A    
C76   C84   1.447444 A    
C6    C13   1.474110 S    
C22   O46   1.400108 S    
Zn3   N3    2.044654 S    
Zn1   O9    1.988918 S    
C52   H16   1.078431 S    
C17   C61   1.404364 A    
C22   C26   1.392601 A    
C14   C54   1.416111 A    
C8    C15   1.476688 S    
H19   C81   1.085919 S    
O9    C5    1.306407 A    
C91   H35   1.111200 S    
C89   C90   1.538317 S    
C73   C75   1.424197 A    
C19   C63   1.399817 A    
C26   C30   1.414109 A    
C95   H46   1.114368 S    
N7    O21   1.300823 A    
C98   C99   1.540159 S    
C47   C51   1.378037 A    
C29   C39   1.413575 A    
C26   H12   1.079221 S    
O48   C98   1.417073 S    
Zn3   O13   1.996047 S    
C30   C40   1.414465 A    
C93   C94   1.524485 S    
Zn2   N2    2.056935 S    
C31   C37   1.440263 A    
N12   O32   1.299923 A    
C100  H57   1.110274 S    
C72   C74   1.413157 A    
Zn4   N4    2.044654 S    
N2    C86   1.350488 A    
C27   C31   1.418070 A    
C69   H29   1.082209 S    
C37   C41   1.427034 A    
O4    Zn2   1.942759 S    
C99   H54   1.109028 S    
C74   C76   1.424472 A    
C97   H51   1.110799 S    
C77   C79   1.414651 A    
O3    C3    1.314088 A    
C11   C43   1.409350 A    
N16   O39   1.302400 A    
N17   O41   1.299214 A    
C20   C24   1.405506 A    
C57   N5    1.442905 S    
C96   C97   1.526490 S    
C59   N7    1.433730 S    
N8    O23   1.300805 A    
O8    Zn4   1.932120 S    
H18   C88   1.081599 S    
N9    O25   1.302522 A    
C81   C83   1.387672 A    
C44   C46   1.391199 A    
C17   C21   1.410423 A    
N17   O42   1.300938 A    
N14   O36   1.301068 A    
C9    N11   1.433644 S    
C43   C45   1.398028 A    
C89   H31   1.111012 S    
C20   C64   1.398746 A    
C68   N4    1.356535 A    
C19   C23   1.406843 A    
C33   C61   1.408695 A    
C28   C32   1.416746 A    
C15   C55   1.402655 A    
C72   H28   1.077964 S    
C75   C83   1.430409 A    
