data_mof_unit_18118.cif
_audit_creation_date              2012-12-10T20:32:41-0500
_audit_creation_method            fapswitch 2.2
_symmetry_space_group_name_H-M    P1
_symmetry_Int_Tables_number       1
_space_group_crystal_system       triclinic
_cell_length_a                    11.538674
_cell_length_b                    10.627001
_cell_length_c                    9.889206
_cell_angle_alpha                 89.856644
_cell_angle_beta                  90.013436
_cell_angle_gamma                 90.010404
_cell_volume                      1212.62542604

loop_
_atom_site_label
_atom_site_type_symbol
_atom_type_description
_atom_site_fract_x
_atom_site_fract_y
_atom_site_fract_z
_atom_type_partial_charge
C1    C     C_R   0.498781 0.260495 0.499997 0.869375
C2    C     C_R   0.556985 0.591078 0.071852 0.555334
C3    C     C_R   0.558289 0.589102 0.927299 -0.251935
C4    C     C_R   0.281963 0.499742 0.500014 0.888551
C5    C     C_R   0.449785 0.403458 0.929122 0.150264
C6    C     C_3   0.325176 0.364516 0.924402 -0.131941
C7    C     C_3   0.326310 0.363902 0.078735 -0.506261
C8    C     C_R   0.501065 0.739592 0.499605 0.901024
C9    C     C_R   0.718045 0.500068 0.500030 0.921761
C10   C     C_1   0.161523 0.499421 0.500109 -0.199119
C11   C     C_1   0.059343 0.499354 0.500234 -0.005624
C12   C     C_R   0.500536 0.128784 0.497429 -0.073654
C13   C     C_1   0.940688 0.499560 0.500249 0.008486
C14   C     C_1   0.838501 0.499828 0.500144 -0.162814
C15   C     C_R   0.589473 0.064837 0.562113 0.045769
C16   C     C_3   0.308233 0.234122 0.860255 -0.354719
C17   C     C_3   0.181830 0.190888 0.870891 -0.360949
C18   C     C_3   0.164540 0.063623 0.802559 -0.875466
C19   C     C_3   0.803422 0.874603 0.824602 -0.296571
C20   C     C_3   0.568325 0.801073 0.117257 -0.300882
C21   C     C_R   0.423469 0.064936 0.412636 -0.228518
C22   C     C_R   0.424546 0.934821 0.412397 -0.231933
C23   C     C_R   0.503440 0.871471 0.495921 -0.148956
C24   C     C_R   0.592015 0.936715 0.560313 0.119443
C25   C     C_3   0.641933 0.928380 0.699570 0.353822
C26   C     C_3   0.636014 0.072131 0.702519 -0.562836
C27   C     C_R   0.450035 0.403479 0.071451 0.096435
H1    H     H_    0.359463 0.115076 0.353030 0.148361
H2    H     H_    0.187594 0.069767 0.693653 0.265921
H3    H     H_    0.219323 0.990890 0.852006 0.256607
H4    H     H_    0.072305 0.034858 0.811201 0.253255
H5    H     H_    0.156329 0.182664 0.978917 0.228602
H6    H     H_    0.124369 0.261250 0.821374 0.227721
H7    H     H_    0.331653 0.240044 0.751699 0.228123
H8    H     H_    0.366111 0.163613 0.909162 0.194139
H9    H     H_    0.763374 0.795770 0.881456 0.169519
H10   H     H_    0.793840 0.964212 0.881570 0.155932
H11   H     H_    0.897481 0.854481 0.816425 0.192646
H12   H     H_    0.269752 0.437595 0.123337 0.202469
H13   H     H_    0.605677 0.869243 0.190021 0.208313
H14   H     H_    0.472651 0.800546 0.132614 0.155109
H15   H     H_    0.589470 0.835476 0.014268 0.121100
H16   H     H_    0.317082 0.269346 0.125931 0.197123
H17   H     H_    0.360875 0.884110 0.353126 0.153543
H18   H     H_    0.583836 0.878775 0.772144 0.065749
H19   H     H_    0.571271 0.108626 0.775905 0.171662
H20   H     H_    0.722038 0.119197 0.705617 0.224871
H21   H     H_    0.604917 0.660170 0.871432 0.164684
H22   H     H_    0.268610 0.438851 0.880261 0.179772
N1    N     N_R   0.499240 0.499140 0.142800 -0.145907
N2    N     N_R   0.499240 0.499180 0.857150 -0.133137
O1    O     O_R   0.500010 0.316790 0.614690 -0.630313
O2    O     O_3   0.617961 0.681805 0.142144 -0.575146
O3    O     O_R   0.500000 0.316760 0.385350 -0.616677
O4    O     O_R   0.334450 0.500030 0.614670 -0.620585
O5    O     O_R   0.334440 0.500000 0.385330 -0.622488
O6    O     O_R   0.500000 0.683240 0.614650 -0.631000
O7    O     O_R   0.499990 0.683210 0.385310 -0.576209
O8    O     O_R   0.665560 0.500000 0.614670 -0.605408
O9    O     O_R   0.665550 0.499970 0.385330 -0.577005
O10   O     O_3   0.756847 0.882844 0.693099 -0.576299
Zn1   Zn    Zn3+2 0.500010 0.500020 0.653130 0.941516
Zn2   Zn    Zn3+2 0.499990 0.499980 0.346870 0.985349

loop_
_geom_bond_atom_site_label_1
_geom_bond_atom_site_label_2
_ccdc_geom_bond_type
C1    C12   S    
C20   H15   S    
C9    C14   S    
C27   N1    A    
C6    C7    S    
C18   H3    S    
C19   H11   S    
C7    H16   S    
C8    O6    A    
C19   H10   S    
C12   C15   A    
C5    C27   A    
C1    O3    A    
C9    O9    A    
C16   H7    S    
C2    C3    A    
O5    Zn2   S    
O6    Zn1   S    
C16   H8    S    
C18   H2    S    
C25   O10   S    
C21   C22   A    
C4    O5    A    
N1    Zn2   S    
C11   C13   S    
N2    Zn1   S    
C17   H6    S    
C26   H20   S    
C19   O10   S    
O9    Zn2   S    
C20   O2    S    
C15   C24   A    
C21   H1    S    
C20   H14   S    
C19   H9    S    
C4    O4    A    
C5    C6    S    
C20   H13   S    
C1    O1    A    
C10   C11   T    
C26   H19   S    
C23   C24   A    
C4    C10   S    
O8    Zn1   S    
O4    Zn1   S    
C25   H18   S    
C3    H21   S    
C8    C23   S    
C7    C27   S    
C24   C25   S    
C17   C18   S    
O3    Zn2   S    
O7    Zn2   S    
C17   H5    S    
C3    N2    A    
C22   C23   A    
C5    N2    A    
C15   C26   S    
C7    H12   S    
C18   H4    S    
C2    N1    A    
C8    O7    A    
C25   C26   S    
C13   C14   T    
C6    C16   S    
C12   C21   A    
O1    Zn1   S    
C22   H17   S    
C6    H22   S    
C16   C17   S    
C9    O8    A    
C2    O2    S    
