data_mof_unit_62722.cif
_audit_creation_date              2013-03-05T16:19:08-0500
_audit_creation_method            fapswitch 2.2
_symmetry_space_group_name_H-M    P1
_symmetry_Int_Tables_number       1
_space_group_crystal_system       triclinic
_cell_length_a                    18.851108
_cell_length_b                    18.736514
_cell_length_c                    18.847174
_cell_angle_alpha                 109.282234
_cell_angle_beta                  109.086857
_cell_angle_gamma                 109.281403
_cell_volume                      5172.16953428

loop_
_atom_site_label
_atom_site_type_symbol
_atom_site_description
_atom_site_fract_x
_atom_site_fract_y
_atom_site_fract_z
_atom_type_partial_charge
O1    O     O_R   0.909480 0.462010 0.051860 -0.587213
O2    O     O_R   0.910180 0.357650 0.948150 -0.547828
C1    C     C_R   0.882243 0.381572 0.000968 0.883510
O3    O     O_R   0.910060 0.552180 0.962250 -0.586548
O4    O     O_R   0.910760 0.447820 0.858550 -0.510603
C2    C     C_R   0.886206 0.504470 0.882311 0.849521
Cu1   Cu    Cu3+1 0.999590 0.561790 0.061400 1.137665
Cu2   Cu    Cu3+1 0.000410 0.438210 0.938600 1.196929
O5    O     O_R   0.089820 0.642350 0.051850 -0.533397
O6    O     O_R   0.090520 0.537990 0.948140 -0.547172
O7    O     O_R   0.089240 0.552180 0.141450 -0.571981
O8    O     O_R   0.089940 0.447820 0.037750 -0.549546
C3    C     C_R   0.119773 0.618450 0.001184 0.868040
C4    C     C_R   0.120370 0.502181 0.117575 0.902239
C5    C     C_2   0.750123 0.499672 0.677662 -0.300433
C6    C     C_2   0.675797 0.489757 0.677177 0.185684
H1    H     H_    0.764332 0.514417 0.631149 0.194596
C7    C     C_2   0.811602 0.485101 0.736083 0.508354
C8    C     C_2   0.829932 0.517092 0.818930 -0.183139
H2    H     H_    0.804462 0.558118 0.842932 0.161924
C9    C     C_R   0.738126 0.309089 0.981877 -0.043784
C10   C     C_R   0.819055 0.315901 0.004905 -0.220555
C11   C     C_R   0.836202 0.255912 0.026593 0.304443
C12   C     C_R   0.769061 0.185706 0.018242 0.362515
C13   C     C_R   0.685699 0.178149 0.991930 -0.239291
C14   C     C_R   0.672129 0.240909 0.974559 -0.119104
C15   C     C_3   0.606943 0.230934 0.894249 0.596261
C16   C     C_3   0.680108 0.307673 0.904391 0.631246
C17   C     C_R   0.193821 0.521717 0.261854 -0.024482
C18   C     C_R   0.189736 0.504447 0.182720 -0.098893
C19   C     C_R   0.252844 0.485339 0.168471 0.336197
C20   C     C_R   0.315108 0.483998 0.234226 -0.214232
H3    H     H_    0.364136 0.471102 0.224654 0.211028
C21   C     C_R   0.314758 0.500147 0.312412 -0.093905
C22   C     C_R   0.252000 0.517636 0.322925 0.025089
C23   C     C_3   0.219420 0.543213 0.384650 0.520676
C24   C     C_3   0.152341 0.546464 0.313794 -0.431088
H4    H     H_    0.084781 0.494880 0.284578 0.235531
H5    H     H_    0.161189 0.612599 0.330130 0.231022
C25   C     C_R   0.168666 0.701178 0.934546 -0.115353
C26   C     C_R   0.188375 0.684084 0.002930 -0.115383
C27   C     C_R   0.275800 0.725147 0.066875 0.341280
C28   C     C_R   0.339105 0.787416 0.063102 -0.188453
H6    H     H_    0.405538 0.820865 0.113426 0.210169
C29   C     C_R   0.316316 0.811295 0.999117 -0.157689
C30   C     C_R   0.230938 0.764153 0.933143 -0.069164
C31   C     C_3   0.168739 0.790287 0.890220 0.544101
C32   C     C_3   0.098866 0.718828 0.891195 0.375034
O9    O     O_R   0.549550 0.461960 0.407200 -0.553084
O10   O     O_R   0.445180 0.357580 0.407200 -0.563414
C33   C     C_R   0.498978 0.381260 0.380226 0.823062
O11   O     O_R   0.638540 0.552110 0.586390 -0.576302
O12   O     O_R   0.534170 0.447730 0.586390 -0.526555
C34   C     C_R   0.614154 0.498630 0.614468 0.816895
Cu3   Cu    Cu3+1 0.558560 0.561730 0.496790 1.186785
Cu4   Cu    Cu3+1 0.434970 0.438120 0.496790 1.196952
O13   O     O_R   0.548350 0.642270 0.586380 -0.543856
O14   O     O_R   0.443970 0.537890 0.586380 -0.536230
O15   O     O_R   0.459360 0.552110 0.407190 -0.559333
O16   O     O_R   0.354990 0.447740 0.407190 -0.547125
C35   C     C_R   0.494755 0.618360 0.613792 0.893928
C36   C     C_R   0.379346 0.500780 0.379604 0.826129
O17   O     O_R   0.448700 0.909820 0.858480 -0.559302
O18   O     O_R   0.552410 0.909770 0.962140 -0.540923
C37   C     C_R   0.500225 0.880836 0.882247 0.788160
O19   O     O_R   0.538310 0.090150 0.948110 -0.596662
O20   O     O_R   0.642020 0.090090 0.051780 -0.543922
C38   C     C_R   0.618606 0.115181 0.996062 0.782033
Cu5   Cu    Cu3+1 0.438600 0.999980 0.938570 1.119098
Cu6   Cu    Cu3+1 0.561400 0.999920 0.061330 1.103844
O21   O     O_R   0.447590 0.090130 0.037760 -0.574165
O22   O     O_R   0.551300 0.090080 0.141420 -0.569137
O23   O     O_R   0.357980 0.909810 0.948120 -0.542873
O24   O     O_R   0.461690 0.909750 0.051790 -0.587518
C39   C     C_R   0.498514 0.118115 0.117847 0.794991
C40   C     C_R   0.381470 0.880939 0.000272 0.794786
C41   C     C_R   0.482261 0.310565 0.236387 -0.189459
C42   C     C_R   0.500503 0.313931 0.315769 -0.119433
C43   C     C_R   0.507234 0.244273 0.326076 0.339372
C44   C     C_R   0.504171 0.178641 0.259290 -0.208564
H7    H     H_    0.513054 0.127301 0.268072 0.192360
C45   C     C_R   0.494314 0.181543 0.183338 -0.048519
C46   C     C_R   0.478643 0.245321 0.171167 -0.062771
C47   C     C_3   0.516731 0.303374 0.139501 0.157989
C48   C     C_3   0.522109 0.376566 0.212552 0.662651
H8    H     H_    0.471145 0.285723 0.073371 0.161149
C49   C     C_R   0.566316 0.760839 0.742481 -0.052346
C50   C     C_R   0.492097 0.683332 0.679328 -0.166096
C51   C     C_R   0.415211 0.668128 0.684094 0.446368
C52   C     C_R   0.416961 0.731665 0.753334 0.319306
C53   C     C_R   0.495857 0.810373 0.816206 -0.192384
C54   C     C_R   0.568553 0.820575 0.808581 0.004500
C55   C     C_3   0.662145 0.882257 0.848368 0.082819
C56   C     C_3   0.660082 0.812661 0.773459 0.596481
H9    H     H_    0.674394 0.944301 0.847637 0.105588
O25   O     O_3   0.673011 0.383315 0.925171 -0.630670
H10   H     H_    0.728411 0.429860 0.939310 0.346830
N1    N     N_R   0.256923 0.469861 0.090286 0.157106
O26   O     O_R   0.248238 0.518697 0.056311 -0.295119
O27   O     O_R   0.282558 0.416007 0.060407 -0.289996
N2    N     N_R   0.180261 0.475840 0.404326 0.142709
O28   O     O_R   0.185318 0.404991 0.379255 -0.287219
O29   O     O_R   0.136375 0.484943 0.444169 -0.244286
N3    N     N_R   0.280950 0.628160 0.462120 0.128821
O30   O     O_R   0.253995 0.667984 0.508612 -0.252693
O31   O     O_R   0.362802 0.663971 0.486216 -0.355967
N4    N     N_R   0.301512 0.707607 0.137209 0.137676
O32   O     O_R   0.253997 0.694219 0.173291 -0.341070
O33   O     O_R   0.377973 0.716362 0.172931 -0.275000
O34   O     O_3   0.186729 0.875523 0.940389 -0.642209
H11   H     H_    0.224858 0.896841 0.002037 0.337015
N5    N     N_R   0.647070 0.454805 0.726399 0.124123
O35   O     O_R   0.608648 0.485686 0.763636 -0.267164
O36   O     O_R   0.645093 0.383045 0.720981 -0.306163
N6    N     N_R   0.154572 0.773079 0.803587 0.182910
O37   O     O_R   0.104305 0.794675 0.760321 -0.200564
O38   O     O_R   0.194542 0.740208 0.770584 -0.275971
N7    N     N_R   0.063476 0.750704 0.945961 0.131307
O39   O     O_R   0.980764 0.720633 0.914051 -0.271655
O40   O     O_R   0.113687 0.806178 0.027909 -0.322867
N8    N     N_R   0.031373 0.645318 0.805143 0.128016
O41   O     O_R   0.028847 0.570502 0.778488 -0.282555
O42   O     O_R   0.973093 0.654467 0.754526 -0.247989
N9    N     N_R   0.523037 0.242015 0.405126 0.142481
O43   O     O_R   0.574146 0.313054 0.479072 -0.355834
O44   O     O_R   0.495941 0.167926 0.404002 -0.280573
O45   O     O_3   0.597689 0.314089 0.150900 -0.621281
H12   H     H_    0.586223 0.264047 0.099960 0.341325
N10   N     N_R   0.610291 0.445695 0.279575 0.208318
O46   O     O_R   0.633480 0.525977 0.298264 -0.229657
O47   O     O_R   0.665709 0.428147 0.322165 -0.281180
O48   O     O_3   0.469042 0.410131 0.183120 -0.690026
H13   H     H_    0.409365 0.361155 0.141871 0.322824
O49   O     O_3   0.340011 0.591458 0.620622 -0.636218
H14   H     H_    0.291297 0.590211 0.630470 0.412927
O50   O     O_3   0.850599 0.440850 0.706327 -0.618633
H15   H     H_    0.828316 0.422358 0.644155 0.364226
O51   O     O_3   0.341835 0.713968 0.757942 -0.648013
H16   H     H_    0.355630 0.752528 0.816817 0.345116
O52   O     O_3   0.709381 0.892772 0.929430 -0.620363
H17   H     H_    0.770389 0.932768 0.949787 0.369354
O53   O     O_3   0.674548 0.839456 0.715834 -0.680612
H18   H     H_    0.734407 0.888666 0.749204 0.347749
N11   N     N_R   0.708938 0.769912 0.798183 0.137406
O54   O     O_R   0.693004 0.729945 0.840641 -0.278614
O55   O     O_R   0.764881 0.766686 0.772954 -0.273180
N12   N     N_R   0.920699 0.264330 0.054393 0.161435
O56   O     O_R   0.988783 0.339454 0.111770 -0.385675
O57   O     O_R   0.929957 0.196576 0.025105 -0.248227
O58   O     O_3   0.786823 0.125336 0.034856 -0.630873
H19   H     H_    0.734317 0.067709 0.996038 0.332132
O59   O     O_3   0.574511 0.153079 0.819257 -0.684072
H20   H     H_    0.532904 0.105718 0.821023 0.356248
N13   N     N_R   0.539106 0.247872 0.904395 0.142038
O60   O     O_R   0.557453 0.310962 0.975532 -0.290096
O61   O     O_R   0.460095 0.201361 0.841238 -0.263947
O62   O     O_3   0.700580 0.286543 0.837688 -0.696483
H21   H     H_    0.652629 0.276923 0.786681 0.403536

loop_
_geom_bond_atom_site_label_1
_geom_bond_atom_site_label_2
_geom_bond_distance
_ccdc_geom_bond_type
C16   O25   1.404590 S    
C5    C7    1.484256 S    
O19   C38   1.297880 A    
C9    C14   1.385836 A    
O17   C37   1.289765 A    
Cu1   O5    1.971801 S    
C15   O59   1.408381 S    
Cu3   O15   1.972893 S    
C15   N13   1.469858 S    
C26   C27   1.418356 A    
N12   O56   1.300715 A    
C49   C50   1.382249 A    
C3    C26   1.442554 S    
Cu1   Cu2   2.688107 S    
C41   C42   1.395543 A    
Cu1   O7    1.969163 S    
C2    C8    1.460057 S    
C14   C15   1.510321 S    
C55   C56   1.552363 S    
O24   C40   1.294398 A    
C29   C40   1.455010 S    
C23   C24   1.544762 S    
N12   O57   1.301242 A    
C47   H8    1.113939 S    
C21   C22   1.383005 A    
O3    Cu1   1.971638 S    
C48   O48   1.409583 S    
C18   C19   1.429093 A    
O7    C4    1.296844 A    
O19   Cu5   1.975051 S    
C41   C46   1.381185 A    
C5    C6    1.347720 D    
C49   C56   1.491727 S    
C21   C36   1.434729 S    
O16   C36   1.290249 A    
C7    C8    1.344992 D    
C30   C31   1.513104 S    
C19   N1    1.438062 S    
O13   C35   1.297572 A    
Cu5   O21   1.973547 S    
O5    C3    1.291667 A    
N7    O39   1.301177 A    
N5    O35   1.301140 A    
C48   N10   1.469966 S    
O34   H11   0.991907 S    
C47   C48   1.535049 S    
O62   H21   0.991661 S    
O17   Cu5   1.970970 S    
O48   H13   0.993539 S    
N6    O38   1.301510 A    
Cu6   O24   1.975053 S    
C31   C32   1.547684 S    
N4    O32   1.300138 A    
Cu5   O23   1.969892 S    
O18   Cu6   1.973551 S    
C17   C18   1.387361 A    
C27   N4    1.439735 S    
N13   O61   1.301151 A    
O11   Cu3   1.967937 S    
O14   C35   1.290542 A    
C41   C48   1.506458 S    
N2    O29   1.300890 A    
C49   C54   1.349114 A    
N4    O33   1.301552 A    
C13   C38   1.461951 S    
C4    C18   1.448482 S    
O22   C39   1.293699 A    
C5    H1    1.086834 S    
N5    O36   1.301280 A    
N3    O30   1.300995 A    
C52   O51   1.382927 S    
O11   C34   1.304033 A    
C6    C34   1.460831 S    
C55   H9    1.113689 S    
O20   C38   1.295588 A    
C56   O53   1.403352 S    
N2    O28   1.301268 A    
C12   C13   1.425641 A    
N11   O55   1.301149 A    
C53   C54   1.381692 A    
C42   C43   1.420527 A    
C44   H7    1.083591 S    
C32   N7    1.474306 S    
O9    C33   1.294965 A    
C13   C14   1.397686 A    
O9    Cu3   1.972942 S    
C11   N12   1.438868 S    
O10   Cu4   1.971511 S    
Cu4   O16   1.967935 S    
C23   N2    1.465848 S    
O1    C1    1.291204 A    
C22   C23   1.501223 S    
C20   C21   1.405806 A    
C25   C30   1.377364 A    
C28   H6    1.083028 S    
C24   H4    1.111885 S    
C35   C50   1.448368 S    
C46   C47   1.499360 S    
Cu2   O8    1.971639 S    
O25   H10   0.992596 S    
Cu3   Cu4   2.688572 S    
O10   C33   1.293373 A    
N8    O41   1.301869 A    
O52   H17   0.991871 S    
C7    O50   1.381101 S    
C28   C29   1.408364 A    
N13   O60   1.301738 A    
C31   N6    1.466814 S    
C12   O58   1.380250 S    
O3    C2    1.293511 A    
C25   C26   1.392759 A    
C9    C16   1.496765 S    
O8    C4    1.291359 A    
C45   C46   1.392009 A    
N1    O27   1.301353 A    
Cu3   O13   1.971514 S    
O23   C40   1.295961 A    
C27   C28   1.407532 A    
O45   H12   0.991728 S    
C32   N8    1.471056 S    
C6    N5    1.441627 S    
N9    O44   1.301377 A    
N10   O46   1.301130 A    
O12   Cu4   1.972989 S    
C37   C53   1.440463 S    
C25   C32   1.506974 S    
O15   C36   1.291995 A    
C51   O49   1.383955 S    
O1    Cu1   1.973299 S    
C19   C20   1.415234 A    
O2    Cu2   1.971801 S    
O50   H15   0.991655 S    
C16   O62   1.405558 S    
O6    C3    1.292781 A    
O4    Cu2   1.969163 S    
C39   C45   1.448942 S    
O12   C34   1.287702 A    
N3    O31   1.301548 A    
C31   O34   1.412397 S    
C43   N9    1.438723 S    
C17   C22   1.349597 A    
O49   H14   0.989175 S    
O58   H19   0.989788 S    
C23   N3    1.465898 S    
N11   O54   1.302205 A    
O20   Cu6   1.969890 S    
C56   N11   1.469644 S    
C20   H3    1.082992 S    
C8    H2    1.087293 S    
O2    C1    1.293552 A    
C33   C42   1.450070 S    
C24   H5    1.111779 S    
C55   O52   1.400535 S    
O18   C37   1.291840 A    
O21   C39   1.293072 A    
C52   C53   1.426782 A    
O4    C2    1.299037 A    
C47   O45   1.403681 S    
C54   C55   1.492173 S    
C44   C45   1.403826 A    
Cu4   O14   1.973039 S    
Cu5   Cu6   2.685621 S    
N7    O40   1.302178 A    
N8    O42   1.301323 A    
O51   H16   0.989263 S    
C11   C12   1.410855 A    
C43   C44   1.408279 A    
C29   C30   1.394132 A    
C50   C51   1.421024 A    
Cu2   O6    1.973299 S    
N1    O26   1.300554 A    
C17   C24   1.491630 S    
C15   C16   1.530542 S    
O53   H18   0.992343 S    
C10   C11   1.411337 A    
C1    C10   1.445171 S    
Cu6   O22   1.970968 S    
O59   H20   0.990289 S    
C51   C52   1.428673 A    
C9    C10   1.390647 A    
N6    O37   1.300922 A    
N9    O43   1.300775 A    
N10   O47   1.302499 A    
