data_mof_unit_31213.cif
_audit_creation_date              2012-12-10T17:48:47-0500
_audit_creation_method            fapswitch 2.2
_symmetry_space_group_name_H-M    P1
_symmetry_Int_Tables_number       1
_space_group_crystal_system       triclinic
_cell_length_a                    15.737917
_cell_length_b                    10.728961
_cell_length_c                    9.894174
_cell_angle_alpha                 89.106923
_cell_angle_beta                  90.03186
_cell_angle_gamma                 91.708912
_cell_volume                      1669.70018971

loop_
_atom_site_label
_atom_site_type_symbol
_atom_type_description
_atom_site_fract_x
_atom_site_fract_y
_atom_site_fract_z
_atom_type_partial_charge
C1    C     C_R   0.503812 0.259511 0.501984 0.874333
C2    C     C_R   0.487047 0.039743 0.876993 -0.160141
C3    C     C_R   0.441826 0.927151 0.866791 -0.174605
C4    C     C_R   0.338343 0.499466 0.500028 0.880976
C5    C     C_R   0.431042 0.872960 0.740857 -0.133433
C6    C     C_R   0.464975 0.932087 0.622901 0.060346
C7    C     C_R   0.494413 0.056010 0.630043 0.092855
C8    C     C_R   0.502484 0.125108 0.506568 -0.142529
C9    C     C_R   0.493872 0.065941 0.382228 -0.284304
C10   C     C_R   0.480886 0.939106 0.376799 0.098897
C11   C     C_R   0.473002 0.870419 0.498455 -0.152356
C12   C     C_3   0.949874 0.434026 0.630692 -0.400704
C13   C     C_R   0.389121 0.335288 0.142520 -0.168921
C14   C     C_R   0.335136 0.252349 0.074016 0.110174
C15   C     C_R   0.335202 0.253574 0.933315 -0.221760
C16   C     C_R   0.489211 0.738396 0.499126 0.893395
C17   C     C_R   0.389302 0.335657 0.862203 -0.176459
C18   C     C_R   0.445487 0.418799 0.928901 0.108157
C19   C     C_R   0.445450 0.418776 0.073456 0.120416
C20   C     C_R   0.551832 0.578185 0.070593 -0.165708
C21   C     C_R   0.552042 0.578418 0.926898 0.154416
C22   C     C_R   0.661669 0.500251 0.499976 0.916948
C23   C     C_3   0.917395 0.496215 0.498704 0.355139
C24   C     C_3   0.047843 0.431069 0.628786 -0.405203
C25   C     C_3   0.048446 0.425551 0.374136 -0.437612
C26   C     C_3   0.949742 0.426064 0.372647 -0.038729
C27   C     C_1   0.750575 0.499030 0.499977 -0.188110
C28   C     C_3   0.082669 0.496574 0.498817 0.346350
C29   C     C_3   0.953626 0.632080 0.492079 -0.460604
C30   C     C_3   0.051708 0.632208 0.492775 -0.402301
C31   C     C_1   0.825882 0.497706 0.499579 -0.089770
C32   C     C_1   0.174105 0.497356 0.499523 -0.112013
C33   C     C_1   0.249439 0.498333 0.499901 -0.177659
C34   C     C_R   0.513635 0.103902 0.759991 -0.153128
H1    H     H_    0.073840 0.478393 0.719923 0.171115
H2    H     H_    0.293575 0.190351 0.878016 0.146735
H3    H     H_    0.385671 0.330334 0.755110 0.216391
H4    H     H_    0.073396 0.471081 0.279731 0.159546
H5    H     H_    0.071833 0.328607 0.375918 0.171177
H6    H     H_    0.929373 0.478223 0.280384 0.138940
H7    H     H_    0.076548 0.680952 0.400140 0.168594
H8    H     H_    0.930860 0.685478 0.579921 0.177880
H9    H     H_    0.922503 0.337851 0.643575 0.168815
H10   H     H_    0.931144 0.680279 0.398815 0.165743
H11   H     H_    0.551280 0.188275 0.774440 0.168418
H12   H     H_    0.929075 0.487596 0.719677 0.166040
H13   H     H_    0.423478 0.920567 0.195375 0.163019
H14   H     H_    0.529937 0.902681 0.192871 0.176431
H15   H     H_    0.318329 0.107122 0.203610 0.174617
H16   H     H_    0.242877 0.113672 0.084279 0.177372
H17   H     H_    0.670143 0.644941 0.883985 0.156327
H18   H     H_    0.594406 0.753248 0.882311 0.174343
H19   H     H_    0.927918 0.262517 0.271647 0.179582
H20   H     H_    0.939875 0.241796 0.439059 0.190260
H21   H     H_    0.076149 0.684814 0.581526 0.171689
H22   H     H_    0.497749 0.117557 0.287221 0.172135
H23   H     H_    0.500019 0.078817 0.975395 0.136531
H24   H     H_    0.417641 0.879443 0.956481 0.136590
H25   H     H_    0.395862 0.784889 0.736478 0.155178
H26   H     H_    0.593976 0.641851 0.124164 0.147013
H27   H     H_    0.068147 0.332571 0.633273 0.164954
H28   H     H_    0.384717 0.331376 0.249685 0.212975
N1    N     N_R   0.499210 0.498800 0.142780 -0.117674
N2    N     N_R   0.499180 0.498720 0.857170 -0.118598
N3    N     N_3   0.474278 0.881367 0.247270 -0.426896
N4    N     N_3   0.279940 0.168319 0.149672 -0.468742
N5    N     N_3   0.607886 0.662493 0.853913 -0.387110
N6    N     N_3   0.912562 0.299129 0.365604 -0.463361
O1    O     O_R   0.500000 0.316780 0.614690 -0.656254
O2    O     O_R   0.499990 0.316750 0.385360 -0.641279
O3    O     O_R   0.377150 0.500020 0.614720 -0.643733
O4    O     O_R   0.377140 0.499990 0.385380 -0.628738
O5    O     O_R   0.500010 0.683250 0.614640 -0.609855
O6    O     O_R   0.500000 0.683220 0.385310 -0.586250
O7    O     O_R   0.622860 0.500010 0.614620 -0.595335
O8    O     O_R   0.622850 0.499980 0.385280 -0.611736
Zn1   Zn    Zn3+2 0.500010 0.500020 0.653130 0.937261
Zn2   Zn    Zn3+2 0.499990 0.499980 0.346870 0.943539

loop_
_geom_bond_atom_site_label_1
_geom_bond_atom_site_label_2
_ccdc_geom_bond_type
C24   H27   S    
C29   H8    S    
O2    Zn2   S    
C1    C8    S    
N2    Zn1   S    
O1    Zn1   S    
C22   O8    A    
C18   N2    A    
C2    H23   S    
C7    C8    A    
C25   C28   S    
C12   C23   S    
C16   O6    A    
C23   C29   S    
O8    Zn2   S    
C12   H9    S    
C5    C6    A    
H20   N6    S    
C18   C19   A    
C23   C26   S    
H19   N6    S    
C21   N2    A    
O4    Zn2   S    
C13   H28   S    
C19   N1    A    
C8    C9    A    
C30   H7    S    
H14   N3    S    
C20   H26   S    
C9    C10   A    
C2    C34   A    
C13   C14   A    
C21   N5    S    
C22   O7    A    
C24   H1    S    
H15   N4    S    
C5    H25   S    
C27   C31   T    
C16   O5    A    
C28   C32   S    
C12   H12   S    
C6    C11   A    
C34   H11   S    
C13   C19   A    
H17   N5    S    
C25   C26   S    
C1    O1    A    
C23   C31   S    
C29   C30   S    
C25   H4    S    
H16   N4    S    
C11   C16   S    
C17   C18   A    
C14   N4    S    
C9    H22   S    
C17   H3    S    
O7    Zn1   S    
H18   N5    S    
C22   C27   S    
C29   H10   S    
C7    C34   A    
C15   H2    S    
C4    O4    A    
C10   N3    S    
C15   C17   A    
C4    C33   S    
C24   C28   S    
C3    C5    A    
C6    C7    A    
C30   H21   S    
C12   C24   S    
C1    O2    A    
C26   N6    S    
C32   C33   T    
C20   N1    A    
C28   C30   S    
C2    C3    A    
C25   H5    S    
C26   H6    S    
O3    Zn1   S    
C10   C11   A    
C3    H24   S    
C20   C21   A    
O6    Zn2   S    
O5    Zn1   S    
C14   C15   A    
H13   N3    S    
C4    O3    A    
N1    Zn2   S    
