data_mof_unit_48497.cif
_audit_creation_date              2012-12-10T17:31:18-0500
_audit_creation_method            fapswitch 2.2
_symmetry_space_group_name_H-M    P1
_symmetry_Int_Tables_number       1
_space_group_crystal_system       triclinic
_cell_length_a                    18.838078
_cell_length_b                    18.570385
_cell_length_c                    12.453009
_cell_angle_alpha                 89.949812
_cell_angle_beta                  130.291662
_cell_angle_gamma                 89.81496
_cell_volume                      3322.88689048

loop_
_atom_site_label
_atom_site_type_symbol
_atom_type_description
_atom_site_fract_x
_atom_site_fract_y
_atom_site_fract_z
_atom_type_partial_charge
C1    C     C_R   0.611003 0.896614 0.650171 0.807382
C2    C     C_R   0.614953 0.100245 0.655909 0.833535
C3    C     C_R   0.111028 0.396631 0.650204 0.807482
C4    C     C_R   0.114948 0.600250 0.655901 0.833448
C5    C     C_R   0.244285 0.776422 0.037037 0.086099
C6    C     C_R   0.237136 0.218711 0.027071 0.084509
C7    C     C_R   0.744276 0.276445 0.036999 0.086134
C8    C     C_R   0.737086 0.718677 0.027004 0.084470
C9    C     C_R   0.657067 0.279755 0.005001 0.163053
C10   C     C_R   0.653852 0.722228 0.006584 0.162565
C11   C     C_R   0.157087 0.779713 0.005076 0.163060
C12   C     C_R   0.153862 0.222204 0.006551 0.162550
C13   C     C_R   0.579185 0.248547 0.881939 -0.242474
C14   C     C_R   0.575448 0.756051 0.887032 -0.250451
C15   C     C_R   0.079203 0.748498 0.882027 -0.242504
C16   C     C_R   0.075457 0.256003 0.886961 -0.250414
C17   C     C_R   0.587382 0.211117 0.794090 -0.178990
C18   C     C_R   0.579985 0.789431 0.791795 -0.178790
C19   C     C_R   0.087387 0.711090 0.794145 -0.178969
C20   C     C_R   0.080024 0.289414 0.791780 -0.178703
C21   C     C_R   0.320449 0.810212 0.159991 -0.257276
C22   C     C_R   0.314828 0.185001 0.149045 -0.252966
C23   C     C_R   0.820440 0.310221 0.159971 -0.257266
C24   C     C_R   0.814786 0.684957 0.148954 -0.253004
C25   C     C_R   0.224011 0.852802 0.211839 -0.195749
C26   C     C_R   0.226303 0.152901 0.220358 -0.200797
C27   C     C_R   0.723986 0.352837 0.211773 -0.195729
C28   C     C_R   0.726331 0.652951 0.220432 -0.200823
C29   C     C_R   0.686099 0.155048 0.750257 -0.157131
C30   C     C_R   0.673734 0.834080 0.730405 -0.180404
C31   C     C_R   0.186079 0.655070 0.750219 -0.157252
C32   C     C_R   0.173814 0.334137 0.730516 -0.180347
C33   C     C_R   0.679640 0.039073 0.288843 -0.289186
C34   C     C_R   0.179646 0.539053 0.288850 -0.289184
C35   C     C_R   0.341885 0.990795 0.624246 0.065537
C36   C     C_R   0.841883 0.490803 0.624245 0.065530
C37   C     C_R   0.306110 0.986048 0.692925 -0.253211
C38   C     C_R   0.806107 0.486065 0.692921 -0.253195
C39   C     C_R   0.383602 0.098888 0.342155 0.775075
C40   C     C_R   0.383862 0.901266 0.342468 0.771233
C41   C     C_R   0.883600 0.598889 0.342152 0.775071
C42   C     C_R   0.883858 0.401269 0.342463 0.771245
C43   C     C_R   0.364796 0.991117 0.839046 -0.155053
C44   C     C_R   0.864792 0.491132 0.839043 -0.155076
C45   C     C_R   0.460855 0.002126 0.919724 -0.069369
C46   C     C_R   0.960853 0.502131 0.919724 -0.069387
C47   C     C_R   0.496183 0.006247 0.845814 0.188630
C48   C     C_R   0.996184 0.506245 0.845816 0.188679
C49   C     C_R   0.523470 0.008708 0.071548 -0.041048
C50   C     C_R   0.023468 0.508709 0.071549 -0.041048
C51   C     C_R   0.614910 0.032546 0.142185 0.097173
C52   C     C_R   0.114912 0.532535 0.142191 0.097230
C53   C     C_R   0.644358 0.045291 0.067988 -0.348871
C54   C     C_R   0.144363 0.545277 0.068000 -0.348961
C55   C     C_R   0.595119 0.017553 0.932642 0.464331
C56   C     C_R   0.095123 0.517541 0.932648 0.464379
C57   C     C_R   0.500506 0.994043 0.158109 0.033275
C58   C     C_R   0.000502 0.494050 0.158108 0.033284
C59   C     C_R   0.654208 0.020822 0.367204 0.078896
C60   C     C_R   0.154212 0.520806 0.367207 0.078858
C61   C     C_R   0.648127 0.316466 0.094294 -0.196493
C62   C     C_R   0.649616 0.690391 0.104703 -0.201879
C63   C     C_R   0.148156 0.816415 0.094385 -0.196492
C64   C     C_R   0.149590 0.190330 0.104606 -0.201862
C65   C     C_R   0.309573 0.851359 0.241979 -0.043172
C66   C     C_R   0.308475 0.148859 0.240591 -0.047170
C67   C     C_R   0.809560 0.351373 0.241952 -0.043189
C68   C     C_R   0.808470 0.648859 0.240579 -0.047163
C69   C     C_R   0.770991 0.156124 0.775075 0.256308
C70   C     C_R   0.751395 0.822087 0.737821 0.259601
C71   C     C_R   0.270945 0.656196 0.774957 0.256220
C72   C     C_R   0.251534 0.322216 0.738054 0.259582
C73   C     C_R   0.342298 0.701651 0.877291 -0.213595
C74   C     C_R   0.320996 0.273936 0.836798 -0.215751
C75   C     C_R   0.842341 0.201589 0.877383 -0.213640
C76   C     C_R   0.820822 0.773766 0.836495 -0.215673
C77   C     C_R   0.334423 0.741650 0.962872 -0.239520
C78   C     C_R   0.317002 0.239304 0.931193 -0.229625
C79   C     C_R   0.834441 0.241632 0.962897 -0.239518
C80   C     C_R   0.816858 0.739165 0.930946 -0.229577
C81   C     C_R   0.752334 0.239907 0.945006 0.080250
C82   C     C_R   0.740394 0.749448 0.925919 0.077636
C83   C     C_R   0.252331 0.739901 0.945018 0.080239
C84   C     C_R   0.240482 0.249519 0.926051 0.077610
C85   C     C_R   0.674699 0.201451 0.829094 0.036992
C86   C     C_R   0.663852 0.791183 0.814687 0.012316
C87   C     C_R   0.174695 0.701445 0.829108 0.037087
C88   C     C_R   0.163924 0.291222 0.814767 0.012365
Cu1   Cu    Cu3+1 0.526340 0.000000 0.421010 0.948387
Cu2   Cu    Cu3+1 0.026340 0.500000 0.421010 0.948375
Cu3   Cu    Cu3+1 0.473640 0.000000 0.578990 0.953055
Cu4   Cu    Cu3+1 0.973640 0.500000 0.578990 0.953077
H1    H     H_    0.214630 0.884829 0.274547 0.142076
H2    H     H_    0.220207 0.124948 0.290426 0.145708
H3    H     H_    0.714600 0.384870 0.274470 0.142076
H4    H     H_    0.720262 0.625034 0.290558 0.145716
H5    H     H_    0.713582 0.066066 0.123754 0.159146
H6    H     H_    0.213592 0.566043 0.123791 0.159091
H7    H     H_    0.750321 0.056616 0.342952 0.136036
H8    H     H_    0.250332 0.556586 0.342964 0.136061
H9    H     H_    0.431021 0.978681 0.112990 0.121020
H10   H     H_    0.931014 0.478698 0.112988 0.121018
H11   H     H_    0.295208 0.986495 0.510788 0.117884
H12   H     H_    0.795206 0.486506 0.510787 0.117892
H13   H     H_    0.333145 0.988087 0.886538 0.136546
H14   H     H_    0.833140 0.488107 0.886533 0.136545
H15   H     H_    0.232153 0.978418 0.632258 0.141610
H16   H     H_    0.732149 0.478442 0.632252 0.141613
H17   H     H_    0.511347 0.253439 0.852753 0.132513
H18   H     H_    0.510372 0.757138 0.867184 0.137337
H19   H     H_    0.011373 0.753376 0.852870 0.132499
H20   H     H_    0.010354 0.257043 0.867037 0.137333
H21   H     H_    0.581615 0.319346 0.070135 0.131991
H22   H     H_    0.586128 0.692498 0.089476 0.128069
H23   H     H_    0.081653 0.819280 0.070254 0.132044
H24   H     H_    0.086075 0.192394 0.089307 0.128059
H25   H     H_    0.389337 0.807147 0.193607 0.140359
H26   H     H_    0.381555 0.185049 0.174904 0.149210
H27   H     H_    0.889334 0.307142 0.193610 0.140368
H28   H     H_    0.881489 0.684973 0.174737 0.149245
H29   H     H_    0.393584 0.774527 0.040163 0.141385
H30   H     H_    0.373622 0.202808 0.003735 0.148639
H31   H     H_    0.893598 0.274514 0.040181 0.141410
H32   H     H_    0.873446 0.702635 0.003433 0.148618
H33   H     H_    0.406622 0.703445 0.895150 0.132828
H34   H     H_    0.379990 0.264207 0.842420 0.134175
H35   H     H_    0.906683 0.203352 0.895292 0.132777
H36   H     H_    0.879766 0.763980 0.842017 0.134182
H37   H     H_    0.523623 0.191440 0.696665 0.160866
H38   H     H_    0.516092 0.812219 0.698227 0.170747
H39   H     H_    0.023622 0.691419 0.696721 0.160884
H40   H     H_    0.016131 0.312180 0.698177 0.170687
H41   H     H_    0.703397 0.025924 0.479811 0.168839
H42   H     H_    0.203400 0.525895 0.479813 0.168913
N1    N     N_R   0.566260 0.000000 0.302220 -0.182845
N2    N     N_R   0.066260 0.500000 0.302220 -0.182849
N3    N     N_R   0.434410 0.000000 0.697680 -0.191712
N4    N     N_R   0.934410 0.500000 0.697680 -0.191707
O1    O     O_R   0.608610 0.924520 0.551740 -0.541207
O2    O     O_R   0.608610 0.075480 0.551740 -0.555535
O3    O     O_R   0.108610 0.424520 0.551740 -0.541285
O4    O     O_R   0.108610 0.575480 0.551740 -0.555514
O5    O     O_R   0.564110 0.924510 0.685150 -0.538193
O6    O     O_R   0.564110 0.075490 0.685150 -0.533563
O7    O     O_R   0.064110 0.424510 0.685150 -0.538119
O8    O     O_R   0.064110 0.575490 0.685150 -0.533551
O9    O     O_R   0.435880 0.075470 0.314850 -0.579498
O10   O     O_R   0.435880 0.924530 0.314850 -0.589805
O11   O     O_R   0.935880 0.575470 0.314850 -0.579514
O12   O     O_R   0.935880 0.424530 0.314850 -0.589792
O13   O     O_R   0.391380 0.075460 0.448260 -0.598047
O14   O     O_R   0.391380 0.924540 0.448260 -0.601690
O15   O     O_R   0.891380 0.575460 0.448260 -0.598054
O16   O     O_R   0.891380 0.424540 0.448260 -0.601671
O17   O     O_3   0.645311 0.001487 0.889903 -0.561729
C89   C     C_3   0.730393 0.963895 0.993519 0.054563
H43   H     H_    0.732400 0.916983 0.941847 0.177785
H44   H     H_    0.736686 0.940594 0.081932 0.120569
C90   C     C_3   0.814816 0.011139 0.049504 -0.370162
H45   H     H_    0.798286 0.046565 0.964388 0.243067
H46   H     H_    0.832644 0.046264 0.135722 0.201636
C91   C     C_3   0.900380 0.965585 0.105905 -0.931977
H47   H     H_    0.918386 0.929690 0.191914 0.260128
H48   H     H_    0.960372 0.001371 0.147944 0.253353
H49   H     H_    0.887081 0.932349 0.020381 0.258059
O18   O     O_3   0.145296 0.501481 0.889872 -0.561695
C92   C     C_3   0.230485 0.464024 0.993536 0.054399
H50   H     H_    0.232545 0.417060 0.942010 0.177617
H51   H     H_    0.236947 0.440815 0.082152 0.120729
C93   C     C_3   0.314743 0.511366 0.049088 -0.369829
H52   H     H_    0.298169 0.546405 0.963520 0.242861
H53   H     H_    0.332275 0.546891 0.134653 0.201864
C94   C     C_3   0.400554 0.465915 0.106411 -0.932090
H54   H     H_    0.418637 0.430430 0.192944 0.260091
H55   H     H_    0.460397 0.501784 0.147995 0.253377
H56   H     H_    0.387514 0.432269 0.021499 0.258092
N5    N     N_2   0.786987 0.110617 0.700654 -0.424719
H57   H     H_    0.821183 0.136324 0.672210 0.243403
C95   C     C_3   0.830669 0.042451 0.769853 -0.713740
H58   H     H_    0.847794 0.012736 0.711815 0.213010
H59   H     H_    0.782447 0.008789 0.770666 0.252243
H60   H     H_    0.896417 0.051142 0.879310 0.227816
N6    N     N_2   0.761877 0.859380 0.648936 -0.420397
H61   H     H_    0.829570 0.874361 0.699344 0.232496
C96   C     C_3   0.720132 0.823112 0.517412 -0.641467
H62   H     H_    0.725399 0.857853 0.450215 0.219452
H63   H     H_    0.645315 0.812296 0.459675 0.237104
H64   H     H_    0.756921 0.771416 0.537386 0.207712
N7    N     N_2   0.286900 0.610777 0.700387 -0.424619
H65   H     H_    0.320939 0.636588 0.671769 0.243480
C97   C     C_3   0.330790 0.542650 0.769565 -0.714173
H66   H     H_    0.348035 0.513085 0.711546 0.212977
H67   H     H_    0.282650 0.508819 0.770299 0.252219
H68   H     H_    0.396496 0.551381 0.879045 0.227865
N8    N     N_2   0.262045 0.359548 0.649232 -0.420463
H69   H     H_    0.329728 0.374596 0.699727 0.232553
C98   C     C_3   0.220445 0.323262 0.517776 -0.641491
H70   H     H_    0.225735 0.358023 0.450624 0.219419
H71   H     H_    0.145628 0.312380 0.459931 0.237148
H72   H     H_    0.257322 0.271601 0.537860 0.207729

loop_
_geom_bond_atom_site_label_1
_geom_bond_atom_site_label_2
_ccdc_geom_bond_type
C28   H4    S    
C26   H2    S    
Cu1   O10   S    
C83   C87   A    
C48   N4    A    
C25   H1    S    
C64   H24   S    
C2    O6    A    
C14   C18   A    
C53   C55   A    
C27   H3    S    
C3    O3    A    
C25   C63   A    
Cu2   O12   S    
Cu4   N4    S    
Cu1   O1    S    
C32   C72   A    
C74   H34   S    
C94   H54   S    
C15   C19   A    
C18   C86   A    
C75   C79   A    
C2    C29   S    
C9    C61   A    
C89   H43   S    
C28   C68   A    
C37   H15   S    
C35   H11   S    
N6    C96   S    
C14   H18   S    
C4    O4    A    
Cu3   O14   S    
C12   C64   A    
C7    C23   A    
C96   H63   S    
C41   O11   A    
C93   H52   S    
C77   C83   A    
C21   H25   S    
C6    C22   A    
C39   O13   A    
C49   C57   A    
C77   H29   S    
C40   O14   A    
C7    C9    A    
C43   H13   S    
C23   C67   A    
N7    C97   S    
C9    C13   A    
C22   C66   A    
C13   H17   S    
C27   C61   A    
C69   N5    S    
Cu3   N3    S    
C11   C15   A    
Cu3   O5    S    
C12   C16   A    
C44   C46   A    
N5    C95   S    
C50   C52   A    
C90   H46   S    
Cu4   O15   S    
C58   H10   S    
C30   C86   A    
C60   N2    A    
C29   C85   A    
C1    O1    A    
C95   H60   S    
C63   H23   S    
C31   C71   A    
C33   C59   A    
C34   C60   A    
C10   C62   A    
C20   H40   S    
Cu2   O11   S    
C78   H30   S    
C6    C12   A    
C21   C65   A    
C30   C70   A    
C52   C54   A    
C92   C93   S    
C29   C69   A    
C45   C47   A    
C19   H39   S    
Cu2   Cu4   S    
C46   C48   A    
C24   H28   S    
C6    C84   A    
C40   O10   A    
Cu4   O8    S    
C97   H66   S    
C26   C66   A    
C15   H19   S    
C31   C87   A    
C92   H51   S    
C10   C14   A    
C92   H50   S    
C71   C73   A    
C62   H22   S    
C96   H64   S    
C49   C51   A    
C82   C86   A    
C79   H31   S    
C59   H41   S    
N8    H69   S    
C58   N2    A    
C33   H7    S    
C50   C58   A    
C37   C43   A    
C98   H72   S    
C55   O17   S    
N6    H61   S    
C97   H67   S    
C5    C83   A    
C38   C44   A    
C1    O5    A    
C91   H49   S    
Cu2   N2    S    
C34   H8    S    
C90   H45   S    
C45   C49   A    
C16   C20   A    
Cu1   O2    S    
C4    O8    A    
C47   N3    A    
C90   C91   S    
C25   C65   A    
C3    C32   S    
C71   N7    S    
C98   H71   S    
N8    C98   S    
C43   C45   A    
Cu2   O4    S    
C94   H55   S    
Cu3   O6    S    
Cu1   N1    S    
C72   C74   A    
C7    C81   A    
C3    O7    A    
C44   H14   S    
C40   C65   S    
C61   H21   S    
O18   C92   S    
C76   H36   S    
C39   C66   S    
C17   C85   A    
C18   H38   S    
Cu1   Cu3   S    
C56   O18   S    
C60   H42   S    
C16   H20   S    
C47   C55   A    
C91   H47   S    
C80   H32   S    
C94   H56   S    
C35   C37   A    
N7    H65   S    
Cu1   O9    S    
C22   H26   S    
C41   C68   S    
C41   O15   A    
C42   O16   A    
Cu4   O7    S    
C34   C52   A    
C59   N1    A    
C89   C90   S    
C57   N1    A    
C76   C80   A    
C72   N8    S    
C54   C56   A    
C5    C11   A    
C26   C64   A    
C33   C51   A    
C57   H9    S    
C46   C50   A    
C79   C81   A    
C13   C17   A    
C36   H12   S    
C53   H5    S    
Cu3   O13   S    
C89   H44   S    
C19   C87   A    
C2    O2    A    
C91   H48   S    
C35   N3    A    
C70   C76   A    
C96   H62   S    
C42   C67   S    
C84   C88   A    
C93   H53   S    
C73   H33   S    
Cu2   O3    S    
C20   C88   A    
C36   C38   A    
C1    C30   S    
C8    C24   A    
C80   C82   A    
C69   C75   A    
C75   H35   S    
C38   H16   S    
C98   H70   S    
C42   O12   A    
C97   H68   S    
C4    C31   S    
C27   C67   A    
C24   C68   A    
C95   H58   S    
C78   C84   A    
C70   N6    S    
C8    C82   A    
C5    C21   A    
C48   C56   A    
C8    C10   A    
N5    H57   S    
C74   C78   A    
C39   O9    A    
O17   C89   S    
C73   C77   A    
C54   H6    S    
C23   H27   S    
Cu4   O16   S    
C51   C53   A    
C11   C63   A    
C36   N4    A    
C17   H37   S    
C81   C85   A    
C28   C62   A    
C95   H59   S    
C93   C94   S    
C32   C88   A    
