data_mof_unit_65486.cif
_audit_creation_date              2013-03-05T16:04:41-0500
_audit_creation_method            fapswitch 2.2
_symmetry_space_group_name_H-M    P1
_symmetry_Int_Tables_number       1
_space_group_crystal_system       triclinic
_cell_length_a                    21.483083
_cell_length_b                    21.48331
_cell_length_c                    55.708232
_cell_angle_alpha                 90.000091
_cell_angle_beta                  90.000077
_cell_angle_gamma                 90.00027
_cell_volume                      25710.8939597

loop_
_atom_site_label
_atom_site_type_symbol
_atom_site_description
_atom_site_fract_x
_atom_site_fract_y
_atom_site_fract_z
_atom_type_partial_charge
O1    O     O_R   0.999980 0.092630 0.020130 -0.590383
O2    O     O_R   0.907370 0.999980 0.020130 -0.590382
O3    O     O_R   0.000020 0.907370 0.020130 -0.590383
O4    O     O_R   0.092630 0.000020 0.020130 -0.590381
O5    O     O_R   0.499980 0.592630 0.520130 -0.590362
O6    O     O_R   0.407370 0.499980 0.520130 -0.590391
O7    O     O_R   0.500020 0.407370 0.520130 -0.590361
O8    O     O_R   0.592630 0.500020 0.520130 -0.590391
O9    O     O_R   0.999950 0.092690 0.979910 -0.638137
O10   O     O_R   0.907310 0.999950 0.979910 -0.638148
O11   O     O_R   0.000050 0.907310 0.979910 -0.638136
O12   O     O_R   0.092690 0.000050 0.979910 -0.638149
O13   O     O_R   0.499950 0.592690 0.479910 -0.638135
O14   O     O_R   0.407310 0.499950 0.479910 -0.638133
O15   O     O_R   0.500050 0.407310 0.479910 -0.638136
O16   O     O_R   0.592690 0.500050 0.479910 -0.638132
C1    C     C_R   0.996425 0.121292 0.000037 0.887537
C2    C     C_R   0.878708 0.996424 0.000037 0.887516
C3    C     C_R   0.003575 0.878708 0.000037 0.887537
C4    C     C_R   0.121292 0.003576 0.000037 0.887514
C5    C     C_R   0.496422 0.621292 0.500037 0.887501
C6    C     C_R   0.378708 0.496426 0.500037 0.887524
C7    C     C_R   0.503578 0.378708 0.500037 0.887501
C8    C     C_R   0.621292 0.503574 0.500037 0.887523
H1    H     H_    0.901855 0.479646 0.879363 0.150523
H2    H     H_    0.525023 0.902932 0.879394 0.150877
H3    H     H_    0.098147 0.520362 0.879364 0.150524
H4    H     H_    0.474960 0.097068 0.879395 0.150877
H5    H     H_    0.402329 0.977433 0.379378 0.150629
H6    H     H_    0.021317 0.402054 0.379370 0.150599
H7    H     H_    0.597666 0.022540 0.379376 0.150629
H8    H     H_    0.978691 0.597943 0.379369 0.150600
C9    C     C_R   0.542544 0.964331 0.161306 0.514776
C10   C     C_R   0.036231 0.542063 0.161302 0.514783
C11   C     C_R   0.457443 0.035662 0.161307 0.514780
C12   C     C_R   0.963774 0.457919 0.161302 0.514785
C13   C     C_R   0.041665 0.463291 0.661299 0.514780
C14   C     C_R   0.534228 0.043719 0.661318 0.514739
C15   C     C_R   0.958364 0.536716 0.661299 0.514781
C16   C     C_R   0.465774 0.956286 0.661317 0.514739
N1    N     N_R   0.499994 0.999997 0.149287 -0.355553
N2    N     N_R   0.000002 0.499991 0.149282 -0.355519
N3    N     N_R   0.000015 0.500003 0.649278 -0.355484
N4    N     N_R   0.500001 0.000003 0.649300 -0.355639
Zn1   Zn    Zn3+2 0.000000 0.000000 0.026880 1.127934
Zn2   Zn    Zn3+2 0.500000 0.500000 0.526880 1.127992
Zn3   Zn    Zn3+2 0.000000 0.000000 0.973170 0.954220
Zn4   Zn    Zn3+2 0.500000 0.500000 0.473170 0.954287
H9    H     H_    0.619899 0.898722 0.189592 0.196158
H10   H     H_    0.102877 0.618526 0.189588 0.196143
H11   H     H_    0.380087 0.101266 0.189594 0.196157
H12   H     H_    0.897131 0.381456 0.189589 0.196143
H13   H     H_    0.117334 0.395749 0.689587 0.196133
H14   H     H_    0.597216 0.123227 0.689605 0.196190
H15   H     H_    0.882690 0.604256 0.689585 0.196134
H16   H     H_    0.402789 0.876774 0.689604 0.196191
O17   O     O_2   0.584622 0.930439 0.148933 -0.541801
O18   O     O_2   0.070677 0.583691 0.148930 -0.541879
O19   O     O_2   0.415366 0.069555 0.148935 -0.541802
O20   O     O_2   0.929327 0.416292 0.148930 -0.541878
O21   O     O_2   0.082899 0.428372 0.648929 -0.541950
O22   O     O_2   0.566700 0.086901 0.648944 -0.541594
O23   O     O_2   0.917132 0.571636 0.648927 -0.541954
O24   O     O_2   0.433300 0.913106 0.648943 -0.541596
C17   C     C_R   0.499993 0.999993 0.199225 -0.049869
C18   C     C_R   0.000004 0.499991 0.199221 -0.049872
C19   C     C_R   0.000013 0.500004 0.699218 -0.049874
C20   C     C_R   0.500000 0.000002 0.699236 -0.049887
C21   C     C_R   0.034126 0.456207 0.838688 0.505794
C22   C     C_R   0.541797 0.036538 0.838702 0.505685
C23   C     C_R   0.965881 0.543801 0.838687 0.505795
C24   C     C_R   0.458185 0.963466 0.838701 0.505686
C25   C     C_R   0.535216 0.957065 0.338695 0.505751
C26   C     C_R   0.043399 0.534630 0.338690 0.505768
C27   C     C_R   0.464773 0.042903 0.338695 0.505750
C28   C     C_R   0.956610 0.465363 0.338690 0.505767
C29   C     C_R   0.038025 0.456880 0.762707 0.045173
C30   C     C_R   0.540851 0.040446 0.762723 0.045146
C31   C     C_R   0.961992 0.543127 0.762706 0.045174
C32   C     C_R   0.459140 0.959561 0.762722 0.045145
C33   C     C_R   0.539094 0.957845 0.262714 0.045165
C34   C     C_R   0.042677 0.538515 0.262710 0.045170
C35   C     C_R   0.460890 0.042129 0.262715 0.045165
C36   C     C_R   0.957334 0.461469 0.262710 0.045170
C37   C     C_3   0.215442 0.038778 0.022738 0.188236
C38   C     C_3   0.961218 0.215441 0.022737 0.188230
C39   C     C_3   0.784558 0.961221 0.022738 0.188237
C40   C     C_3   0.038781 0.784559 0.022738 0.188229
C41   C     C_3   0.715441 0.538787 0.522736 0.188208
C42   C     C_3   0.461231 0.715442 0.522741 0.188294
C43   C     C_3   0.284559 0.461213 0.522736 0.188209
C44   C     C_3   0.538769 0.284558 0.522740 0.188294
H17   H     H_    0.202037 0.011772 0.039038 0.166669
H18   H     H_    0.988222 0.202037 0.039038 0.166661
H19   H     H_    0.797963 0.988227 0.039038 0.166669
H20   H     H_    0.011777 0.797963 0.039038 0.166661
H21   H     H_    0.702037 0.511788 0.539037 0.166650
H22   H     H_    0.488245 0.702037 0.539038 0.166713
H23   H     H_    0.297963 0.488212 0.539037 0.166651
H24   H     H_    0.511755 0.297964 0.539038 0.166713
C45   C     C_3   0.287101 0.040155 0.021934 -0.405386
C46   C     C_3   0.959840 0.287100 0.021933 -0.405362
C47   C     C_3   0.712899 0.959843 0.021934 -0.405386
C48   C     C_3   0.040159 0.712900 0.021933 -0.405363
C49   C     C_3   0.787100 0.540165 0.521932 -0.405321
C50   C     C_3   0.459855 0.787101 0.521937 -0.405510
C51   C     C_3   0.212899 0.459834 0.521932 -0.405321
C52   C     C_3   0.540145 0.212899 0.521936 -0.405512
H25   H     H_    0.304162 0.088776 0.019856 0.230531
H26   H     H_    0.911219 0.304160 0.019853 0.230566
H27   H     H_    0.695838 0.911222 0.019855 0.230532
H28   H     H_    0.088780 0.695840 0.019854 0.230567
H29   H     H_    0.804161 0.588785 0.519850 0.230588
H30   H     H_    0.411233 0.804163 0.519862 0.230454
H31   H     H_    0.195840 0.411214 0.519849 0.230588
H32   H     H_    0.588767 0.195837 0.519862 0.230455
H33   H     H_    0.306715 0.023591 0.039239 0.192361
H34   H     H_    0.976401 0.306714 0.039239 0.192343
H35   H     H_    0.693285 0.976407 0.039239 0.192362
H36   H     H_    0.023598 0.693286 0.039239 0.192344
H37   H     H_    0.806715 0.523610 0.539238 0.192315
H38   H     H_    0.476430 0.806714 0.539240 0.192444
H39   H     H_    0.193285 0.476389 0.539238 0.192314
H40   H     H_    0.523570 0.193286 0.539240 0.192444
H41   H     H_    0.191420 0.912850 0.018052 0.268818
H42   H     H_    0.087149 0.191422 0.018055 0.268826
H43   H     H_    0.808580 0.087149 0.018052 0.268818
H44   H     H_    0.912850 0.808578 0.018055 0.268827
H45   H     H_    0.691421 0.412855 0.518059 0.268820
H46   H     H_    0.587158 0.691421 0.518044 0.268813
H47   H     H_    0.308579 0.587144 0.518060 0.268820
H48   H     H_    0.412842 0.308579 0.518044 0.268814
C53   C     C_3   0.211063 0.935008 0.001703 -0.473682
C54   C     C_3   0.064994 0.211064 0.001705 -0.473660
C55   C     C_3   0.788937 0.064992 0.001703 -0.473681
C56   C     C_3   0.935006 0.788936 0.001705 -0.473657
C57   C     C_3   0.711064 0.435006 0.501709 -0.473669
C58   C     C_3   0.564991 0.711063 0.501697 -0.473690
C59   C     C_3   0.288936 0.564994 0.501709 -0.473669
C60   C     C_3   0.435008 0.288937 0.501697 -0.473688
C61   C     C_3   0.215932 0.031792 0.976599 -0.356590
C62   C     C_3   0.968215 0.215932 0.976599 -0.356566
C63   C     C_3   0.784068 0.968209 0.976599 -0.356589
C64   C     C_3   0.031786 0.784068 0.976599 -0.356569
C65   C     C_3   0.715933 0.531777 0.476598 -0.356570
C66   C     C_3   0.468194 0.715931 0.476601 -0.356559
C67   C     C_3   0.284067 0.468223 0.476598 -0.356570
C68   C     C_3   0.531806 0.284069 0.476601 -0.356560
C69   C     C_3   0.189449 0.003481 0.000208 -0.048557
C70   C     C_3   0.996521 0.189449 0.000209 -0.048663
C71   C     C_3   0.810551 0.996519 0.000208 -0.048559
C72   C     C_3   0.003479 0.810551 0.000208 -0.048664
C73   C     C_3   0.689449 0.503478 0.500209 -0.048641
C74   C     C_3   0.496517 0.689449 0.500208 -0.048598
C75   C     C_3   0.310551 0.496522 0.500209 -0.048642
C76   C     C_3   0.503483 0.310551 0.500208 -0.048598
H49   H     H_    0.199886 0.004210 0.960849 0.190537
H50   H     H_    0.995801 0.199887 0.960849 0.190609
H51   H     H_    0.800114 0.995792 0.960849 0.190537
H52   H     H_    0.004201 0.800113 0.960849 0.190610
H53   H     H_    0.699887 0.504186 0.460849 0.190604
H54   H     H_    0.495769 0.699885 0.460849 0.190587
H55   H     H_    0.300112 0.495814 0.460849 0.190604
H56   H     H_    0.504231 0.300114 0.460849 0.190586
H57   H     H_    0.198798 0.080006 0.973808 0.219697
H58   H     H_    0.920001 0.198798 0.973805 0.219760
H59   H     H_    0.801201 0.919995 0.973807 0.219698
H60   H     H_    0.080000 0.801202 0.973805 0.219760
H61   H     H_    0.698798 0.579989 0.473802 0.219751
H62   H     H_    0.419978 0.698797 0.473813 0.219712
H63   H     H_    0.301201 0.420011 0.473802 0.219752
H64   H     H_    0.580021 0.301203 0.473813 0.219713
C77   C     C_3   0.310461 0.999946 0.000662 -0.031679
C78   C     C_3   0.000054 0.310461 0.000663 -0.031957
C79   C     C_3   0.689539 0.000053 0.000662 -0.031683
C80   C     C_3   0.999946 0.689539 0.000663 -0.031957
C81   C     C_3   0.810461 0.499945 0.500663 -0.031905
C82   C     C_3   0.500053 0.810461 0.500662 -0.031799
C83   C     C_3   0.189538 0.500054 0.500663 -0.031904
C84   C     C_3   0.499947 0.189539 0.500661 -0.031801
C85   C     C_3   0.282708 0.932187 0.001937 0.181220
C86   C     C_3   0.067814 0.282709 0.001940 0.181311
C87   C     C_3   0.717292 0.067812 0.001938 0.181221
C88   C     C_3   0.932186 0.717291 0.001940 0.181309
C89   C     C_3   0.782709 0.432187 0.501944 0.181378
C90   C     C_3   0.567813 0.782707 0.501931 0.181059
C91   C     C_3   0.217291 0.567813 0.501944 0.181377
C92   C     C_3   0.432187 0.217293 0.501931 0.181059
C93   C     C_3   0.287371 0.030761 0.977110 -0.458039
C94   C     C_3   0.969245 0.287370 0.977110 -0.457650
C95   C     C_3   0.712629 0.969240 0.977110 -0.458041
C96   C     C_3   0.030756 0.712630 0.977110 -0.457649
C97   C     C_3   0.787371 0.530747 0.477109 -0.457753
C98   C     C_3   0.469226 0.787369 0.477112 -0.457813
C99   C     C_3   0.212629 0.469253 0.477109 -0.457753
C100  C     C_3   0.530774 0.212631 0.477112 -0.457813
H65   H     H_    0.305101 0.079310 0.975608 0.225286
H66   H     H_    0.920695 0.305098 0.975606 0.225449
H67   H     H_    0.694899 0.920691 0.975607 0.225285
H68   H     H_    0.079306 0.694901 0.975606 0.225450
H69   H     H_    0.805100 0.579296 0.475603 0.225411
H70   H     H_    0.420675 0.805098 0.475613 0.225356
H71   H     H_    0.194899 0.420704 0.475602 0.225410
H72   H     H_    0.579325 0.194902 0.475613 0.225357
H73   H     H_    0.305190 0.004611 0.961275 0.166396
H74   H     H_    0.995399 0.305189 0.961275 0.166582
H75   H     H_    0.694810 0.995391 0.961275 0.166397
H76   H     H_    0.004603 0.694810 0.961275 0.166581
H77   H     H_    0.805191 0.504589 0.461275 0.166553
H78   H     H_    0.495367 0.805188 0.461274 0.166494
H79   H     H_    0.194809 0.495412 0.461275 0.166553
H80   H     H_    0.504632 0.194811 0.461274 0.166494
H81   H     H_    0.192998 0.908155 0.986074 0.185925
H82   H     H_    0.091852 0.193000 0.986077 0.185882
H83   H     H_    0.807002 0.091846 0.986074 0.185927
H84   H     H_    0.908149 0.807000 0.986077 0.185883
H85   H     H_    0.693000 0.408144 0.486082 0.185883
H86   H     H_    0.591838 0.692997 0.486066 0.185930
H87   H     H_    0.307000 0.591856 0.486082 0.185883
H88   H     H_    0.408162 0.307002 0.486066 0.185930
H89   H     H_    0.297485 0.907070 0.985364 0.125882
H90   H     H_    0.092935 0.297486 0.985368 0.125750
H91   H     H_    0.702515 0.092931 0.985365 0.125883
H92   H     H_    0.907065 0.702514 0.985367 0.125749
H93   H     H_    0.797486 0.407061 0.485373 0.125781
H94   H     H_    0.592922 0.797483 0.485356 0.125813
H95   H     H_    0.202513 0.592940 0.485373 0.125781
H96   H     H_    0.407078 0.202516 0.485356 0.125813
C101  C     C_R   0.512884 0.055012 0.086019 -0.174482
C102  C     C_R   0.945143 0.513531 0.086012 -0.174528
C103  C     C_R   0.487108 0.944988 0.086018 -0.174478
C104  C     C_R   0.054857 0.486460 0.086011 -0.174524
C105  C     C_R   0.014084 0.554721 0.586005 -0.174574
C106  C     C_R   0.444627 0.011232 0.586035 -0.174417
C107  C     C_R   0.985932 0.445279 0.586006 -0.174579
C108  C     C_R   0.555375 0.988772 0.586035 -0.174417
H97   H     H_    0.903096 0.623464 0.810399 0.191756
H98   H     H_    0.382270 0.896197 0.810412 0.191854
H99   H     H_    0.096916 0.376544 0.810401 0.191755
H100  H     H_    0.617709 0.103816 0.810415 0.191854
H101  H     H_    0.399964 0.120927 0.310409 0.191811
H102  H     H_    0.877701 0.401631 0.310403 0.191784
H103  H     H_    0.600021 0.879041 0.310407 0.191810
H104  H     H_    0.122310 0.598357 0.310402 0.191784
C109  C     C_R   0.499997 0.000000 0.073344 -0.061756
C110  C     C_R   0.000000 0.499997 0.073340 -0.061913
C111  C     C_R   0.000005 0.500000 0.573336 -0.062016
C112  C     C_R   0.500000 0.000001 0.573355 -0.061308
C113  C     C_R   0.499994 0.999999 0.123576 0.290010
C114  C     C_R   0.000001 0.499992 0.123570 0.289812
C115  C     C_R   0.000014 0.500001 0.623565 0.289627
C116  C     C_R   0.500001 0.000003 0.623590 0.290498
C117  C     C_R   0.944699 0.488720 0.888989 -0.098261
C118  C     C_R   0.513889 0.945293 0.889016 -0.097816
C119  C     C_R   0.055303 0.511287 0.888990 -0.098260
C120  C     C_R   0.486095 0.054706 0.889016 -0.097814
C121  C     C_R   0.444959 0.987475 0.389002 -0.098086
C122  C     C_R   0.011822 0.444809 0.388995 -0.098172
C123  C     C_R   0.555037 0.012499 0.389001 -0.098088
C124  C     C_R   0.988186 0.555189 0.388995 -0.098173
H105  H     H_    0.620685 0.896942 0.232131 0.147616
H106  H     H_    0.104671 0.619283 0.232128 0.147608
H107  H     H_    0.379299 0.103038 0.232133 0.147616
H108  H     H_    0.895340 0.380699 0.232128 0.147608
H109  H     H_    0.118061 0.393939 0.732127 0.147596
H110  H     H_    0.598979 0.124052 0.732148 0.147652
H111  H     H_    0.881956 0.606064 0.732125 0.147598
H112  H     H_    0.401025 0.875948 0.732147 0.147655
C125  C     C_R   0.944589 0.488962 0.913974 -0.213450
C126  C     C_R   0.513603 0.945164 0.914000 -0.213691
C127  C     C_R   0.055411 0.511043 0.913974 -0.213449
C128  C     C_R   0.486386 0.054836 0.914001 -0.213688
C129  C     C_R   0.444842 0.987743 0.413987 -0.213557
C130  C     C_R   0.011567 0.444696 0.413979 -0.213504
C131  C     C_R   0.555156 0.012241 0.413986 -0.213561
C132  C     C_R   0.988438 0.555302 0.413979 -0.213506
H113  H     H_    0.901309 0.480062 0.923332 0.169972
H114  H     H_    0.524560 0.902375 0.923371 0.169216
H115  H     H_    0.098692 0.519942 0.923333 0.169972
H116  H     H_    0.475431 0.097625 0.923372 0.169216
H117  H     H_    0.401781 0.977877 0.423351 0.169621
H118  H     H_    0.020887 0.401508 0.423341 0.169820
H119  H     H_    0.598218 0.022112 0.423349 0.169620
H120  H     H_    0.979117 0.598491 0.423340 0.169820
C133  C     C_R   0.000000 0.500002 0.926656 -0.045618
C134  C     C_R   0.499996 1.000000 0.926674 -0.044631
C135  C     C_R   0.499999 0.999995 0.426665 -0.045162
C136  C     C_R   0.000002 0.500000 0.426660 -0.045421
C137  C     C_R   0.000001 0.500004 0.876417 0.305197
C138  C     C_R   0.499991 0.000000 0.876439 0.304375
C139  C     C_R   0.499998 0.999985 0.376427 0.304903
C140  C     C_R   0.000004 0.499998 0.376421 0.305021
O25   O     O_2   0.066498 0.412950 0.851061 -0.560112
O26   O     O_2   0.583194 0.071269 0.851071 -0.560034
O27   O     O_2   0.933508 0.587058 0.851060 -0.560112
O28   O     O_2   0.416788 0.928734 0.851069 -0.560035
O29   O     O_2   0.568668 0.914635 0.351066 -0.560050
O30   O     O_2   0.086279 0.567503 0.351062 -0.560099
O31   O     O_2   0.431323 0.085333 0.351067 -0.560051
O32   O     O_2   0.913729 0.432491 0.351062 -0.560099
C141  C     C_R   0.513141 0.054892 0.111003 -0.081782
C142  C     C_R   0.945268 0.513796 0.110996 -0.081718
C143  C     C_R   0.486848 0.945107 0.111002 -0.081780
C144  C     C_R   0.054733 0.486190 0.110995 -0.081714
C145  C     C_R   0.014365 0.554592 0.610989 -0.081649
C146  C     C_R   0.444736 0.011469 0.611018 -0.081922
C147  C     C_R   0.985660 0.445409 0.610991 -0.081664
C148  C     C_R   0.555267 0.988537 0.611018 -0.081929
H121  H     H_    0.523674 0.097402 0.120628 0.158592
H122  H     H_    0.902889 0.524846 0.120620 0.158725
H123  H     H_    0.476314 0.902597 0.120627 0.158592
H124  H     H_    0.097113 0.475139 0.120619 0.158725
H125  H     H_    0.025849 0.596858 0.620612 0.158843
H126  H     H_    0.401920 0.020680 0.620645 0.158257
H127  H     H_    0.974179 0.403144 0.620614 0.158841
H128  H     H_    0.598082 0.979327 0.620645 0.158256
H129  H     H_    0.523273 0.097947 0.076650 0.187405
H130  H     H_    0.902341 0.524439 0.076641 0.187593
H131  H     H_    0.476721 0.902053 0.076649 0.187406
H132  H     H_    0.097659 0.475554 0.076640 0.187595
H133  H     H_    0.025421 0.597406 0.576631 0.187740
H134  H     H_    0.401379 0.020290 0.576673 0.186892
H135  H     H_    0.974592 0.402594 0.576632 0.187737
H136  H     H_    0.598622 0.979714 0.576673 0.186892
C149  C     C_R   0.000008 0.500003 0.775293 0.073530
C150  C     C_R   0.499995 0.000003 0.775309 0.073525
C151  C     C_R   0.499992 0.999986 0.275301 0.073521
C152  C     C_R   0.000005 0.499993 0.275296 0.073526
N5    N     N_R   0.000003 0.500004 0.850706 -0.354488
N6    N     N_R   0.499991 0.000001 0.850724 -0.354407
N7    N     N_R   0.499996 0.999984 0.350715 -0.354467
N8    N     N_R   0.000004 0.499997 0.350709 -0.354469
O33   O     O_R   0.500000 0.052340 0.035630 -0.607436
O34   O     O_R   0.947660 0.500000 0.035630 -0.607336
O35   O     O_R   0.500000 0.947660 0.035630 -0.607437
O36   O     O_R   0.052340 0.500000 0.035630 -0.607337
O37   O     O_R   0.000000 0.552340 0.535630 -0.607258
O38   O     O_R   0.447660 0.000000 0.535630 -0.607648
O39   O     O_R   1.000000 0.447660 0.535630 -0.607256
O40   O     O_R   0.552340 0.000000 0.535630 -0.607649
C153  C     C_R   0.500000 1.000000 0.047033 0.882318
C154  C     C_R   1.000000 0.499999 0.047032 0.882243
C155  C     C_R   0.000001 0.500000 0.547030 0.882138
C156  C     C_R   0.500000 0.000000 0.547037 0.882587
O41   O     O_R   0.407370 0.052330 0.000010 -0.625740
O42   O     O_R   0.947670 0.407370 0.000010 -0.625520
O43   O     O_R   0.592630 0.947670 0.000010 -0.625739
O44   O     O_R   0.052330 0.592630 0.000010 -0.625519
O45   O     O_R   0.907370 0.552330 0.500010 -0.625531
O46   O     O_R   0.447670 0.907370 0.500010 -0.625750
O47   O     O_R   0.092630 0.447670 0.500010 -0.625532
O48   O     O_R   0.552330 0.092630 0.500010 -0.625749
O49   O     O_R   0.407380 0.947770 0.000040 -0.589227
O50   O     O_R   0.052230 0.407380 0.000040 -0.589382
O51   O     O_R   0.592620 0.052230 0.000040 -0.589227
O52   O     O_R   0.947770 0.592620 0.000040 -0.589380
O53   O     O_R   0.907380 0.447770 0.500040 -0.589395
O54   O     O_R   0.552230 0.907380 0.500040 -0.589170
O55   O     O_R   0.092620 0.552230 0.500040 -0.589397
O56   O     O_R   0.447770 0.092620 0.500040 -0.589169
C157  C     C_R   0.378643 0.999879 0.000410 0.860190
C158  C     C_R   0.000121 0.378643 0.000411 0.860331
C159  C     C_R   0.621357 0.000121 0.000410 0.860195
C160  C     C_R   0.999879 0.621357 0.000411 0.860331
C161  C     C_R   0.878643 0.499878 0.500411 0.860268
C162  C     C_R   0.500121 0.878643 0.500410 0.860404
C163  C     C_R   0.121357 0.500122 0.500411 0.860266
C164  C     C_R   0.499879 0.121357 0.500410 0.860405
Zn5   Zn    Zn3+2 0.499970 0.069870 0.000000 1.039793
Zn6   Zn    Zn3+2 0.930130 0.499970 0.000000 1.039649
Zn7   Zn    Zn3+2 0.500030 0.930130 0.000000 1.039794
Zn8   Zn    Zn3+2 0.069870 0.500030 0.000000 1.039648
Zn9   Zn    Zn3+2 0.999970 0.569870 0.500000 1.039688
Zn10  Zn    Zn3+2 0.430130 0.999970 0.500000 1.039531
Zn11  Zn    Zn3+2 0.000030 0.430130 0.500000 1.039689
Zn12  Zn    Zn3+2 0.569870 0.000030 0.500000 1.039532
O57   O     O_R   0.499940 0.052330 0.964390 -0.623621
O58   O     O_R   0.947670 0.499940 0.964390 -0.624009
O59   O     O_R   0.500060 0.947670 0.964390 -0.623621
O60   O     O_R   0.052330 0.500060 0.964390 -0.624010
O61   O     O_R   0.999940 0.552330 0.464390 -0.623942
O62   O     O_R   0.447670 0.999940 0.464390 -0.623842
O63   O     O_R   0.000060 0.447670 0.464390 -0.623942
O64   O     O_R   0.552330 0.000060 0.464390 -0.623841
C165  C     C_R   0.929770 0.588283 0.800995 -0.132656
C166  C     C_R   0.415873 0.924835 0.801008 -0.132600
C167  C     C_R   0.070243 0.411725 0.800996 -0.132656
C168  C     C_R   0.584109 0.075176 0.801010 -0.132601
C169  C     C_R   0.427527 0.086442 0.301005 -0.132651
C170  C     C_R   0.912563 0.428718 0.300999 -0.132651
C171  C     C_R   0.572458 0.913527 0.301003 -0.132651
C172  C     C_R   0.087448 0.571269 0.300998 -0.132651
C173  C     C_R   0.499999 1.000000 0.952986 0.850380
C174  C     C_R   1.000000 0.500000 0.952979 0.850798
C175  C     C_R   0.000000 0.500000 0.452981 0.850721
C176  C     C_R   0.500000 0.999999 0.452982 0.850635
C177  C     C_R   0.964781 0.544252 0.813532 -0.021975
C178  C     C_R   0.457820 0.962318 0.813546 -0.021967
C179  C     C_R   0.035229 0.455755 0.813533 -0.021975
C180  C     C_R   0.542163 0.037688 0.813547 -0.021966
C181  C     C_R   0.463655 0.043322 0.313541 -0.021983
C182  C     C_R   0.956175 0.464251 0.313535 -0.021973
C183  C     C_R   0.536332 0.956647 0.313540 -0.021985
C184  C     C_R   0.043835 0.535738 0.313535 -0.021973
H137  H     H_    0.901353 0.624312 0.767859 0.146635
H138  H     H_    0.381563 0.894368 0.767870 0.146700
H139  H     H_    0.098667 0.375697 0.767861 0.146633
H140  H     H_    0.618418 0.105650 0.767873 0.146697
H141  H     H_    0.398192 0.121733 0.267871 0.146657
H142  H     H_    0.876875 0.399869 0.267864 0.146647
H143  H     H_    0.601792 0.878240 0.267868 0.146657
H144  H     H_    0.123137 0.600114 0.267863 0.146647
C185  C     C_R   0.000006 0.500004 0.800768 -0.051114
C186  C     C_R   0.499993 0.000003 0.800783 -0.051148
C187  C     C_R   0.499993 0.999985 0.300776 -0.051115
C188  C     C_R   0.000005 0.499994 0.300771 -0.051119
C189  C     C_R   0.541729 0.960456 0.237286 0.043976
C190  C     C_R   0.040100 0.541189 0.237282 0.043981
C191  C     C_R   0.458255 0.039523 0.237287 0.043976
C192  C     C_R   0.959910 0.458793 0.237282 0.043981
C193  C     C_R   0.040732 0.459426 0.737279 0.043985
C194  C     C_R   0.538137 0.043016 0.737297 0.043953
C195  C     C_R   0.959287 0.540581 0.737279 0.043985
C196  C     C_R   0.461859 0.956988 0.737296 0.043952
C197  C     C_R   0.499992 0.999990 0.224700 0.074842
C198  C     C_R   0.000005 0.499991 0.224695 0.074845
C199  C     C_R   0.000011 0.500003 0.724692 0.074844
C200  C     C_R   0.499999 0.000002 0.724710 0.074854
C201  C     C_R   0.928306 0.587833 0.776089 -0.209334
C202  C     C_R   0.416430 0.923374 0.776103 -0.209376
C203  C     C_R   0.071710 0.412175 0.776091 -0.209331
C204  C     C_R   0.583554 0.076638 0.776105 -0.209374
C205  C     C_R   0.426072 0.085957 0.276099 -0.209341
C206  C     C_R   0.913031 0.427255 0.276093 -0.209342
C207  C     C_R   0.573912 0.914016 0.276097 -0.209341
C208  C     C_R   0.086980 0.572729 0.276093 -0.209342
C209  C     C_R   0.585197 0.925189 0.223902 -0.208137
C210  C     C_R   0.075949 0.584180 0.223899 -0.208140
C211  C     C_R   0.414788 0.074792 0.223904 -0.208136
C212  C     C_R   0.924061 0.415803 0.223899 -0.208140
C213  C     C_R   0.083299 0.423074 0.723897 -0.208140
C214  C     C_R   0.571933 0.087642 0.723915 -0.208157
C215  C     C_R   0.916721 0.576931 0.723895 -0.208142
C216  C     C_R   0.428068 0.912360 0.723915 -0.208162
C217  C     C_R   0.585698 0.926638 0.198997 -0.123300
C218  C     C_R   0.074504 0.584704 0.198993 -0.123308
C219  C     C_R   0.414287 0.073347 0.198999 -0.123300
C220  C     C_R   0.925505 0.415278 0.198994 -0.123308
C221  C     C_R   0.083846 0.424517 0.698991 -0.123312
C222  C     C_R   0.570458 0.088107 0.699010 -0.123256
C223  C     C_R   0.916178 0.575489 0.698990 -0.123311
C224  C     C_R   0.429544 0.911896 0.699009 -0.123255
C225  C     C_R   0.542952 0.963209 0.186461 -0.025155
C226  C     C_R   0.037361 0.542454 0.186456 -0.025128
C227  C     C_R   0.457034 0.036779 0.186461 -0.025155
C228  C     C_R   0.962646 0.457528 0.186457 -0.025129
C229  C     C_R   0.042037 0.462154 0.686454 -0.025107
C230  C     C_R   0.535334 0.044165 0.686472 -0.025215
C231  C     C_R   0.957989 0.537853 0.686453 -0.025106
C232  C     C_R   0.464668 0.955839 0.686472 -0.025215
N9    N     N_R   0.189829 0.101827 0.025219 0.197082
O65   O     O_R   0.203931 0.145512 0.009976 -0.416029
O66   O     O_R   0.156896 0.115849 0.044060 -0.355551
N10   N     N_R   0.898169 0.189828 0.025216 0.197082
O67   O     O_R   0.854486 0.203928 0.009972 -0.415945
O68   O     O_R   0.884142 0.156898 0.044057 -0.355529
N11   N     N_R   0.810171 0.898172 0.025218 0.197082
O69   O     O_R   0.796070 0.854488 0.009975 -0.416030
O70   O     O_R   0.843103 0.884149 0.044059 -0.355551
N12   N     N_R   0.101831 0.810172 0.025217 0.197083
O71   O     O_R   0.145513 0.796071 0.009972 -0.415943
O72   O     O_R   0.115856 0.843103 0.044057 -0.355528
N13   N     N_R   0.689828 0.601836 0.525212 0.197087
O73   O     O_R   0.703927 0.645513 0.509966 -0.415959
O74   O     O_R   0.656898 0.615868 0.544053 -0.355465
N14   N     N_R   0.398182 0.689831 0.525225 0.197066
O75   O     O_R   0.354489 0.703935 0.509985 -0.416048
O76   O     O_R   0.384168 0.656895 0.544066 -0.355554
N15   N     N_R   0.310172 0.398163 0.525212 0.197087
O77   O     O_R   0.296073 0.354486 0.509965 -0.415960
O78   O     O_R   0.343102 0.384132 0.544052 -0.355465
N16   N     N_R   0.601819 0.310169 0.525225 0.197066
O79   O     O_R   0.645511 0.296065 0.509985 -0.416048
O80   O     O_R   0.615833 0.343106 0.544066 -0.355554
N17   N     N_R   0.304957 0.896541 0.022797 0.238952
O81   O     O_R   0.335821 0.845154 0.019447 -0.335800
O82   O     O_R   0.289071 0.911925 0.044545 -0.376787
N18   N     N_R   0.103456 0.304959 0.022801 0.238917
O83   O     O_R   0.154844 0.335824 0.019453 -0.336001
O84   O     O_R   0.088068 0.289074 0.044549 -0.377021
N19   N     N_R   0.695043 0.103458 0.022798 0.238952
O85   O     O_R   0.664179 0.154845 0.019448 -0.335799
O86   O     O_R   0.710929 0.088073 0.044546 -0.376787
N20   N     N_R   0.896543 0.695041 0.022800 0.238919
O87   O     O_R   0.845155 0.664176 0.019451 -0.336000
O88   O     O_R   0.911931 0.710927 0.044548 -0.377019
N21   N     N_R   0.804960 0.396552 0.522806 0.238864
O89   O     O_R   0.835827 0.345166 0.519460 -0.336092
O90   O     O_R   0.789074 0.411947 0.544553 -0.377252
N22   N     N_R   0.603473 0.804956 0.522788 0.239084
O91   O     O_R   0.654861 0.835816 0.519433 -0.335697
O92   O     O_R   0.588102 0.789069 0.544537 -0.376182
N23   N     N_R   0.195040 0.603447 0.522807 0.238863
O93   O     O_R   0.164173 0.654834 0.519461 -0.336093
O94   O     O_R   0.210926 0.588052 0.544554 -0.377254
N24   N     N_R   0.396527 0.195044 0.522788 0.239084
O95   O     O_R   0.345139 0.164185 0.519433 -0.335696
O96   O     O_R   0.411899 0.210931 0.544537 -0.376182

loop_
_geom_bond_atom_site_label_1
_geom_bond_atom_site_label_2
_geom_bond_distance
_ccdc_geom_bond_type
C33   C151  1.420196 A    
C96   H76   1.113740 S    
C107  H135  1.083041 S    
C12   N2    1.367867 A    
C10   N2    1.367868 A    
C131  C135  1.404344 A    
N14   O76   1.301114 A    
C83   C99   1.551041 S    
O48   C164  1.284952 A    
C94   H66   1.113527 S    
C18   C226  1.407795 A    
C81   C97   1.551043 S    
C79   C87   1.574654 S    
C42   N14   1.468518 S    
C54   C86   1.540419 S    
C190  C210  1.414903 A    
C15   O23   1.349951 S    
C103  H131  1.083047 S    
O53   C161  1.278575 A    
H112  C216  1.076932 S    
C97   H69   1.113527 S    
C4    C69   1.464259 S    
O55   C163  1.278575 A    
C168  C204  1.387837 A    
H99   C167  1.083565 S    
C107  C147  1.391841 A    
C39   N11   1.468512 S    
C94   H74   1.113739 S    
C113  C141  1.400377 A    
C12   C228  1.401564 A    
N10   O67   1.301398 A    
C130  H118  1.083026 S    
O3    C3    1.279829 A    
C64   H52   1.113482 S    
C67   C75   1.556719 S    
C22   C180  1.401558 A    
C102  C110  1.404202 A    
O4    Zn1   2.025192 S    
C215  C223  1.387830 A    
O15   C7    1.280801 A    
C58   C74   1.544811 S    
C127  H115  1.083010 S    
C194  C214  1.414896 A    
N19   O86   1.301365 A    
O34   Zn6   2.020294 S    
C62   H50   1.113486 S    
O12   Zn3   2.026355 S    
C56   C72   1.544819 S    
H143  C207  1.076849 S    
C179  C185  1.407804 A    
O41   Zn5   2.024705 S    
N23   O94   1.301366 A    
H10   C218  1.083510 S    
H140  C204  1.076920 S    
C116  C148  1.400277 A    
C47   C79   1.549936 S    
C84   C164  1.464843 S    
C25   O29   1.349945 S    
C146  H126  1.082974 S    
C43   C51   1.540401 S    
C82   C162  1.464843 S    
C105  C145  1.391836 A    
N24   O95   1.301232 A    
O46   C162  1.284952 A    
H5    C121  1.082920 S    
C150  C186  1.419106 A    
C68   H56   1.113483 S    
C15   C231  1.401566 A    
C66   H54   1.113482 S    
O50   Zn8   2.026181 S    
C66   C74   1.556721 S    
O40   Zn12  2.020295 S    
C195  C215  1.414902 A    
O12   C4    1.280801 A    
O13   C5    1.280805 A    
C23   O27   1.349961 S    
C27   C181  1.401564 A    
C24   O28   1.349960 S    
O42   C158  1.284952 A    
H103  C171  1.083502 S    
C138  N6    1.432537 S    
C39   C47   1.540401 S    
C61   H49   1.113487 S    
H138  C202  1.076922 S    
C77   C157  1.464823 S    
H98   C166  1.083552 S    
N16   O80   1.301114 A    
O49   C157  1.278579 A    
H2    C118  1.082930 S    
C129  C135  1.404340 A    
O54   C162  1.278573 A    
C130  C136  1.404391 A    
C66   C98   1.535151 S    
C180  C186  1.407771 A    
H46   C58   1.110941 S    
O54   Zn12  2.026181 S    
C218  C226  1.395815 A    
C143  H123  1.082933 S    
H12   C220  1.083514 S    
C93   H65   1.113527 S    
C80   C88   1.574659 S    
C191  C211  1.414912 A    
C13   C229  1.401571 A    
C51   C83   1.549933 S    
H16   C224  1.083604 S    
O48   Zn12  2.024728 S    
C49   C81   1.549935 S    
C152  C188  1.419150 A    
C195  C199  1.420191 A    
Zn12  O64   2.019240 S    
C151  C187  1.419145 A    
O5    Zn2   2.025212 S    
C172  C208  1.387827 A    
C36   C192  1.418789 A    
C171  C207  1.387827 A    
C29   C203  1.414912 A    
C30   C204  1.414880 A    
C169  C205  1.387832 A    
C113  C143  1.400377 A    
C65   H53   1.113485 S    
O10   C2    1.280803 A    
C114  C144  1.400420 A    
C167  C203  1.387827 A    
N18   O83   1.301233 A    
C32   C196  1.418736 A    
C104  C110  1.404195 A    
C96   H68   1.113525 S    
C191  C197  1.420198 A    
C35   C205  1.414906 A    
C100  H80   1.113737 S    
N3    C115  1.432426 S    
C99   H71   1.113529 S    
C33   C207  1.414909 A    
C115  C147  1.400460 A    
C57   H85   1.114214 S    
O10   Zn3   2.026358 S    
C10   O18   1.349960 S    
C144  H124  1.082917 S    
C89   N21   1.471493 S    
C19   C199  1.419139 A    
C118  C138  1.400474 A    
N24   O96   1.301367 A    
C17   C197  1.419150 A    
C14   O22   1.349983 S    
C1    C70   1.464277 S    
C62   C94   1.535142 S    
C124  C140  1.400323 A    
C122  C130  1.391844 A    
H144  C208  1.076863 S    
C108  C112  1.404387 A    
C45   C77   1.549933 S    
C55   C87   1.540412 S    
C52   H32   1.113017 S    
C183  C187  1.407793 A    
C78   C86   1.574659 S    
C103  C143  1.391822 A    
C145  H125  1.082918 S    
C48   C80   1.549934 S    
H101  C169  1.083500 S    
N9    O65   1.301401 A    
O61   C175  1.291449 A    
C92   N24   1.471491 S    
C139  N7    1.432387 S    
H111  C215  1.076876 S    
C78   C158  1.464839 S    
C49   H29   1.113015 S    
C219  C227  1.395810 A    
H109  C213  1.076875 S    
C38   C70   1.569114 S    
O38   C156  1.291573 A    
C98   H78   1.113740 S    
C43   N15   1.468511 S    
O37   Zn9   2.020296 S    
C221  C229  1.395824 A    
N22   O91   1.301234 A    
O39   Zn11  2.020295 S    
C35   C191  1.418791 A    
O36   C154  1.291420 A    
C140  N8    1.432359 S    
C33   C189  1.418789 A    
C44   C52   1.540403 S    
O36   Zn8   2.020295 S    
C39   H19   1.115356 S    
C196  C216  1.414895 A    
C34   C152  1.420191 A    
H14   C222  1.083609 S    
C224  C232  1.395853 A    
C131  H119  1.082979 S    
C101  C109  1.404259 A    
O34   C154  1.291420 A    
C32   C202  1.414880 A    
C128  H116  1.083025 S    
C36   C152  1.420194 A    
C165  C201  1.387831 A    
C103  C109  1.404256 A    
C209  C217  1.387827 A    
O15   Zn4   2.026379 S    
C178  C186  1.407770 A    
C40   C48   1.540405 S    
C60   H88   1.114217 S    
C6    C75   1.464260 S    
O2    Zn1   2.025193 S    
C170  C182  1.395818 A    
N20   O88   1.301367 A    
Zn7   O59   2.019242 S    
C35   C151  1.420198 A    
O53   Zn11  2.026164 S    
O7    Zn2   2.025213 S    
O43   C159  1.284952 A    
H8    C124  1.082952 S    
C136  C175  1.466291 S    
C110  C154  1.465572 S    
C93   H73   1.113740 S    
C48   H28   1.113016 S    
H1    C117  1.082949 S    
N12   O71   1.301399 A    
C105  C111  1.404141 A    
O14   Zn4   2.026358 S    
C132  H120  1.083026 S    
C114  C142  1.400422 A    
C101  H129  1.083043 S    
C193  C213  1.414904 A    
C41   C73   1.569115 S    
C40   H20   1.115355 S    
N21   O90   1.301368 A    
C82   C90   1.574660 S    
H15   C223  1.083529 S    
C111  C155  1.465438 S    
N17   O81   1.301228 A    
C192  C212  1.414904 A    
C62   H58   1.110202 S    
C91   H95   1.115512 S    
C59   C75   1.544819 S    
C115  C145  1.400459 A    
C89   H93   1.115515 S    
C50   H38   1.110663 S    
H45   C57   1.110949 S    
C95   H75   1.113738 S    
C109  C153  1.465739 S    
C63   H59   1.110201 S    
C40   N12   1.468514 S    
C53   C85   1.540410 S    
C26   O30   1.349958 S    
C147  H127  1.082913 S    
O38   Zn10  2.020294 S    
C38   C46   1.540405 S    
O35   C153  1.291471 A    
C121  C139  1.400367 A    
Zn5   O57   2.019240 S    
C122  C140  1.400324 A    
C63   C95   1.535141 S    
C30   C150  1.420171 A    
H6    C122  1.082958 S    
C125  H113  1.083011 S    
C92   H96   1.115515 S    
C211  C219  1.387825 A    
C22   N6    1.367940 A    
N23   O93   1.301227 A    
C108  H136  1.083080 S    
C210  C218  1.387834 A    
O1    C1    1.279830 A    
O50   C158  1.278569 A    
H107  C211  1.076852 S    
C32   C150  1.420170 A    
O14   C6    1.280802 A    
H142  C206  1.076861 S    
C101  C141  1.391828 A    
C28   C182  1.401558 A    
C119  C137  1.400281 A    
C67   H55   1.113484 S    
O1    Zn1   2.025212 S    
O7    C7    1.279834 A    
C63   C71   1.556724 S    
O8    C8    1.279822 A    
H137  C201  1.076880 S    
C220  C228  1.395814 A    
C27   O31   1.349945 S    
C11   N1    1.367851 A    
O8    Zn2   2.025192 S    
H47   C59   1.110945 S    
C20   C230  1.407806 A    
C124  C132  1.391849 A    
C59   H87   1.114215 S    
C16   N4    1.367822 A    
H9    C217  1.083527 S    
C216  C224  1.387828 A    
C87   H91   1.115513 S    
C41   C49   1.540399 S    
C182  C188  1.407791 A    
Zn10  O62   2.019241 S    
C43   H23   1.115358 S    
C50   C82   1.549931 S    
C168  C180  1.395853 A    
C28   N8    1.367859 A    
O35   Zn7   2.020295 S    
C20   C200  1.419112 A    
C21   C179  1.401558 A    
O11   Zn3   2.026379 S    
N15   O77   1.301402 A    
C51   H39   1.110662 S    
O63   C175  1.291449 A    
C166  C202  1.387831 A    
C133  C174  1.466419 S    
C82   C98   1.551052 S    
O11   C3    1.280805 A    
H106  C210  1.076860 S    
C17   C225  1.407794 A    
C47   H35   1.110659 S    
C86   N18   1.471492 S    
C58   C90   1.540411 S    
C126  C134  1.404194 A    
H44   C56   1.110945 S    
C181  C187  1.407791 A    
C83   C91   1.574657 S    
C45   H25   1.113017 S    
O6    C6    1.279825 A    
C81   C89   1.574657 S    
C88   N20   1.471493 S    
C47   H27   1.113017 S    
C184  C188  1.407794 A    
O57   C173  1.291318 A    
C41   H21   1.115358 S    
O44   C160  1.284953 A    
C84   C92   1.574658 S    
C106  C112  1.404383 A    
C18   C198  1.419139 A    
C117  C125  1.391854 A    
C9    O17   1.349959 S    
C123  C131  1.391872 A    
C31   C149  1.420193 A    
C9    C225  1.401559 A    
C112  C156  1.466135 S    
Zn8   O60   2.019240 S    
C65   C97   1.535137 S    
C189  C197  1.420199 A    
H102  C170  1.083538 S    
C77   C85   1.574656 S    
C7    C76   1.464273 S    
C90   N22   1.471491 S    
O55   Zn9   2.026164 S    
C68   C100  1.535151 S    
O33   Zn5   2.020296 S    
N14   O75   1.301401 A    
H13   C221  1.083527 S    
C102  H130  1.083032 S    
C57   C89   1.540418 S    
H141  C205  1.076850 S    
C86   H90   1.115518 S    
C19   C231  1.407791 A    
C41   N13   1.468511 S    
C60   C92   1.540411 S    
C16   C232  1.401542 A    
C61   C93   1.535141 S    
C42   C50   1.540403 S    
C104  C144  1.391840 A    
C34   C208  1.414908 A    
O56   C164  1.278573 A    
C53   C69   1.544813 S    
C64   C96   1.535144 S    
O47   Zn11  2.024705 S    
C85   H89   1.115511 S    
O3    Zn1   2.025213 S    
C24   N6    1.367941 A    
O5    C5    1.279831 A    
C13   N3    1.367887 A    
C36   C206  1.414906 A    
C25   C183  1.401563 A    
C14   N4    1.367819 A    
C20   C232  1.407807 A    
C85   N17   1.471494 S    
C31   C201  1.414911 A    
O62   C176  1.291398 A    
C129  H117  1.082980 S    
C56   C88   1.540417 S    
N18   O84   1.301367 A    
C11   C227  1.401557 A    
O9    C1    1.280804 A    
C24   C178  1.401563 A    
C106  H134  1.083080 S    
C172  C184  1.395818 A    
C78   C94   1.551044 S    
C177  C185  1.407805 A    
C64   H60   1.110203 S    
O9    Zn3   2.026376 S    
C171  C183  1.395810 A    
C21   O25   1.349962 S    
C46   H26   1.113017 S    
N13   O74   1.301111 A    
C29   C193  1.418775 A    
C2    C71   1.464259 S    
C167  C179  1.395825 A    
C8    C73   1.464260 S    
C108  C148  1.391792 A    
C132  C136  1.404390 A    
C217  C225  1.395810 A    
H104  C172  1.083537 S    
C102  C142  1.391834 A    
C17   C227  1.407796 A    
C61   H57   1.110201 S    
C214  C222  1.387833 A    
O40   C156  1.291568 A    
C104  H132  1.083029 S    
C63   H51   1.113485 S    
Zn6   O58   2.019241 S    
H48   C60   1.110940 S    
O59   C173  1.291318 A    
C116  C146  1.400275 A    
C54   H82   1.114211 S    
C45   H33   1.110666 S    
C126  H114  1.083025 S    
C25   N7    1.367867 A    
C55   C71   1.544813 S    
C213  C221  1.387832 A    
N22   O92   1.301367 A    
C84   C100  1.551051 S    
C52   H40   1.110662 S    
C189  C209  1.414910 A    
C37   H17   1.115355 S    
C223  C231  1.395824 A    
N2    C114  1.432381 S    
C64   C72   1.556722 S    
N16   O79   1.301403 A    
O41   C157  1.284952 A    
C23   N5    1.367835 A    
H7    C123  1.082914 S    
C68   C76   1.556720 S    
C135  C176  1.466124 S    
H3    C119  1.082950 S    
C48   H36   1.110658 S    
C222  C230  1.395852 A    
C193  C199  1.420194 A    
O39   C155  1.291395 A    
C194  C200  1.420173 A    
C19   C229  1.407790 A    
C26   C184  1.401557 A    
O2    C2    1.279826 A    
C10   C226  1.401553 A    
C192  C198  1.420192 A    
C62   C70   1.556719 S    
O16   Zn4   2.026355 S    
C120  C138  1.400474 A    
C61   C69   1.556725 S    
C119  C127  1.391849 A    
C105  H133  1.083037 S    
C120  C128  1.391848 A    
C80   C160  1.464837 S    
C190  C198  1.420193 A    
C50   H30   1.113018 S    
O60   C174  1.291478 A    
C95   H67   1.113527 S    
C79   C95   1.551050 S    
N12   O72   1.301114 A    
C80   C96   1.551045 S    
C165  C177  1.395825 A    
C128  C134  1.404193 A    
C54   C70   1.544818 S    
H11   C219  1.083527 S    
C52   C84   1.549933 S    
N21   O89   1.301226 A    
C107  C111  1.404148 A    
C148  H128  1.082975 S    
C68   H64   1.110202 S    
N4    C116  1.432248 S    
C55   H83   1.114216 S    
O43   Zn7   2.024705 S    
C149  C185  1.419150 A    
C5    C74   1.464273 S    
C212  C220  1.387828 A    
C67   C99   1.535137 S    
C38   H18   1.115358 S    
C46   H34   1.110663 S    
C65   C73   1.556724 S    
O42   Zn6   2.024728 S    
O47   C163  1.284955 A    
O33   C153  1.291471 A    
O16   C8    1.280805 A    
C134  C173  1.465778 S    
C39   C71   1.569114 S    
H100  C168  1.083545 S    
C40   C72   1.569114 S    
O45   Zn9   2.024705 S    
C65   H61   1.110200 S    
C59   C91   1.540418 S    
H42   C54   1.110944 S    
H105  C209  1.076849 S    
C67   H63   1.110203 S    
C127  C133  1.404441 A    
O56   Zn10  2.026181 S    
N9    O66   1.301112 A    
H97   C165  1.083562 S    
C11   O19   1.349953 S    
O52   C160  1.278570 A    
H139  C203  1.076883 S    
C57   C73   1.544817 S    
O52   Zn6   2.026181 S    
C9    N1    1.367850 A    
O58   C174  1.291477 A    
C14   C230  1.401541 A    
C28   O32   1.349960 S    
C15   N3    1.367890 A    
C31   C195  1.418778 A    
N13   O73   1.301401 A    
C118  C126  1.391853 A    
C18   C228  1.407791 A    
C87   N19   1.471492 S    
C99   H79   1.113737 S    
C37   N9    1.468515 S    
O44   Zn8   2.024728 S    
C100  H72   1.113526 S    
C97   H77   1.113738 S    
N11   O69   1.301400 A    
C90   H94   1.115514 S    
C123  C139  1.400364 A    
N19   O85   1.301227 A    
H41   C53   1.110943 S    
C142  H122  1.082917 S    
C3    C72   1.464275 S    
C125  C133  1.404442 A    
C49   H37   1.110661 S    
C44   C76   1.569113 S    
C170  C206  1.387833 A    
C51   H31   1.113015 S    
O37   C155  1.291394 A    
C26   N8    1.367859 A    
N10   O68   1.301113 A    
C60   C76   1.544810 S    
C66   H62   1.110202 S    
O49   Zn7   2.026164 S    
C43   C75   1.569114 S    
N1    C113  1.432337 S    
C37   C45   1.540401 S    
C44   H24   1.115361 S    
C137  N5    1.432309 S    
C88   H92   1.115515 S    
C27   N7    1.367865 A    
N20   O87   1.301231 A    
C91   N23   1.471495 S    
O6    Zn2   2.025193 S    
N11   O70   1.301114 A    
C29   C149  1.420195 A    
C117  C137  1.400282 A    
H4    C120  1.082929 S    
C12   O20   1.349957 S    
O51   Zn5   2.026164 S    
O13   Zn4   2.026376 S    
C13   O21   1.349954 S    
N15   O78   1.301111 A    
C21   N5    1.367836 A    
O4    C4    1.279828 A    
C46   C78   1.549930 S    
O51   C159  1.278579 A    
C121  C129  1.391862 A    
C16   O24   1.349982 S    
C23   C177  1.401562 A    
C53   H81   1.114216 S    
O64   C176  1.291398 A    
C44   N16   1.468519 S    
N17   O82   1.301368 A    
O46   Zn10  2.024728 S    
H108  C212  1.076860 S    
C42   C74   1.569112 S    
H43   C55   1.110943 S    
C77   C93   1.551049 S    
H110  C214  1.076931 S    
C106  C146  1.391792 A    
C79   C159  1.464823 S    
C22   O26   1.349965 S    
C166  C178  1.395856 A    
C37   C69   1.569110 S    
C30   C194  1.418746 A    
C141  H121  1.082933 S    
C196  C200  1.420176 A    
C169  C181  1.395804 A    
C58   H86   1.114216 S    
C98   H70   1.113525 S    
C81   C161  1.464821 S    
C38   N10   1.468514 S    
C83   C163  1.464821 S    
C34   C190  1.418788 A    
Zn9   O61   2.019240 S    
C42   H22   1.115358 S    
O45   C161  1.284955 A    
C56   H84   1.114214 S    
Zn11  O63   2.019242 S    
