data_mof_unit_22193.cif
_audit_creation_date              2012-12-10T18:04:27-0500
_audit_creation_method            fapswitch 2.2
_symmetry_space_group_name_H-M    P1
_symmetry_Int_Tables_number       1
_space_group_crystal_system       triclinic
_cell_length_a                    19.732955
_cell_length_b                    17.728084
_cell_length_c                    12.574804
_cell_angle_alpha                 89.361147
_cell_angle_beta                  99.648648
_cell_angle_gamma                 90.05948
_cell_volume                      4336.51286567

loop_
_atom_site_label
_atom_site_type_symbol
_atom_type_description
_atom_site_fract_x
_atom_site_fract_y
_atom_site_fract_z
_atom_type_partial_charge
C1    C     C_R   0.411768 0.103393 0.443250 0.860348
C2    C     C_R   0.411443 0.896972 0.444038 0.854765
C3    C     C_R   0.911769 0.603394 0.443251 0.860377
C4    C     C_R   0.911452 0.396965 0.444044 0.854788
C5    C     C_R   0.728774 0.240178 0.536169 0.042484
C6    C     C_R   0.736539 0.769180 0.533885 0.022847
C7    C     C_R   0.228669 0.740323 0.536138 0.042567
C8    C     C_R   0.236516 0.269148 0.533873 0.022850
C9    C     C_R   0.757292 0.249280 0.645855 0.080215
C10   C     C_R   0.764802 0.754535 0.642253 0.101681
C11   C     C_R   0.257235 0.749327 0.645828 0.080176
C12   C     C_R   0.264781 0.254508 0.642242 0.101673
C13   C     C_R   0.326708 0.769779 0.674020 0.078082
C14   C     C_R   0.334222 0.234324 0.669112 0.074778
C15   C     C_R   0.826750 0.269776 0.674067 0.078082
C16   C     C_R   0.834240 0.734339 0.669121 0.074782
C17   C     C_R   0.362121 0.789542 0.590254 -0.199164
C18   C     C_R   0.368822 0.214926 0.585635 -0.248307
C19   C     C_R   0.862173 0.289534 0.590310 -0.199191
C20   C     C_R   0.868836 0.714933 0.585643 -0.248295
C21   C     C_R   0.676251 0.188520 0.512360 -0.268515
C22   C     C_R   0.684309 0.821834 0.514666 -0.260261
C23   C     C_R   0.176106 0.688708 0.512278 -0.268674
C24   C     C_R   0.184284 0.321800 0.514652 -0.260275
C25   C     C_R   0.653173 0.195517 0.695743 0.118060
C26   C     C_R   0.663710 0.808693 0.699623 0.104262
C27   C     C_R   0.153136 0.695534 0.695739 0.118061
C28   C     C_R   0.163697 0.308677 0.699617 0.104270
C29   C     C_R   0.357759 0.841664 0.407577 -0.108836
C30   C     C_R   0.360544 0.161626 0.405314 -0.107381
C31   C     C_R   0.857806 0.341611 0.407603 -0.108826
C32   C     C_R   0.860549 0.661633 0.405319 -0.107372
C33   C     C_R   0.640459 0.024362 0.135033 -0.329093
C34   C     C_R   0.140464 0.524334 0.135033 -0.329076
C35   C     C_R   0.378602 0.992098 0.765989 0.234434
C36   C     C_R   0.878601 0.492109 0.765990 0.234434
C37   C     C_R   0.358509 0.970090 0.863045 -0.246569
C38   C     C_R   0.858505 0.470112 0.863048 -0.246607
C39   C     C_R   0.590776 0.898384 0.558503 0.853352
C40   C     C_R   0.588434 0.103502 0.556481 0.851715
C41   C     C_R   0.090773 0.398381 0.558501 0.853370
C42   C     C_R   0.088416 0.603522 0.556468 0.851720
C43   C     C_R   0.406248 0.966954 0.955823 -0.255893
C44   C     C_R   0.906244 0.466970 0.955825 -0.255887
C45   C     C_R   0.474735 0.987734 0.954036 0.025283
C46   C     C_R   0.974734 0.487734 0.954037 0.025295
C47   C     C_R   0.495856 0.998739 0.853441 0.181101
C48   C     C_R   0.995856 0.498733 0.853441 0.181087
C49   C     C_R   0.522844 0.997135 0.048396 -0.004963
C50   C     C_R   0.022844 0.497129 0.048396 -0.004966
C51   C     C_R   0.592047 0.015577 0.041652 0.210162
C52   C     C_R   0.092051 0.515554 0.041652 0.210151
C53   C     C_R   0.612499 0.022205 0.941853 -0.296720
C54   C     C_R   0.112504 0.522173 0.941855 -0.296689
C55   C     C_R   0.565458 0.010126 0.848968 -0.227743
C56   C     C_R   0.065460 0.510107 0.848967 -0.227737
C57   C     C_R   0.504303 0.991498 0.150122 -0.065242
C58   C     C_R   0.004302 0.491502 0.150123 -0.065268
C59   C     C_R   0.619214 0.015467 0.233611 -0.000870
C60   C     C_R   0.119217 0.515451 0.233611 -0.000807
C61   C     C_R   0.716579 0.231794 0.724037 -0.257996
C62   C     C_R   0.724207 0.765786 0.721036 -0.239370
C63   C     C_R   0.216551 0.731793 0.724029 -0.257958
C64   C     C_R   0.224186 0.265757 0.721024 -0.239369
C65   C     C_R   0.638048 0.164196 0.590251 -0.102192
C66   C     C_R   0.645656 0.842048 0.594279 -0.108643
C67   C     C_R   0.137976 0.664275 0.590211 -0.102212
C68   C     C_R   0.145643 0.342030 0.594271 -0.108649
C69   C     C_R   0.327292 0.842672 0.298905 -0.221675
C70   C     C_R   0.330675 0.163184 0.296478 -0.221074
C71   C     C_R   0.827371 0.342554 0.298919 -0.221700
C72   C     C_R   0.830679 0.663194 0.296484 -0.221124
C73   C     C_R   0.260724 0.816672 0.268610 -0.194393
C74   C     C_R   0.266872 0.196251 0.264500 -0.189093
C75   C     C_R   0.760849 0.316438 0.268590 -0.194406
C76   C     C_R   0.766883 0.696277 0.264506 -0.189091
C77   C     C_R   0.222975 0.789717 0.346203 0.116874
C78   C     C_R   0.230288 0.226519 0.340739 0.117994
C79   C     C_R   0.723102 0.289439 0.346159 0.116918
C80   C     C_R   0.730305 0.726556 0.340745 0.117999
C81   C     C_R   0.258800 0.775007 0.454027 0.053113
C82   C     C_R   0.265760 0.236305 0.449876 0.050288
C83   C     C_R   0.758902 0.274836 0.454033 0.053078
C84   C     C_R   0.765778 0.736333 0.449884 0.050289
C85   C     C_R   0.326922 0.801095 0.483575 0.018028
C86   C     C_R   0.332478 0.205168 0.479742 0.032264
C87   C     C_R   0.826990 0.301023 0.483607 0.018022
C88   C     C_R   0.832490 0.705182 0.479749 0.032234
H1    H     H_    0.665650 0.033946 0.935743 0.140937
H2    H     H_    0.165656 0.533903 0.935746 0.140915
H3    H     H_    0.693717 0.037532 0.131726 0.144291
H4    H     H_    0.193724 0.537491 0.131726 0.144294
H5    H     H_    0.452561 0.982900 0.164162 0.122708
H6    H     H_    0.952558 0.482915 0.164163 0.122714
H7    H     H_    0.305802 0.957771 0.869917 0.140815
H8    H     H_    0.805796 0.457804 0.869922 0.140823
H9    H     H_    0.585282 0.008956 0.775388 0.221915
H10   H     H_    0.085282 0.508943 0.775385 0.221926
H11   H     H_    0.733664 0.246133 0.807682 0.134410
H12   H     H_    0.740100 0.740668 0.799871 0.157603
H13   H     H_    0.233671 0.746060 0.807691 0.134387
H14   H     H_    0.240078 0.240634 0.799857 0.157595
H15   H     H_    0.670006 0.162124 0.434624 0.168031
H16   H     H_    0.678426 0.851909 0.439148 0.175267
H17   H     H_    0.169779 0.662414 0.434460 0.168059
H18   H     H_    0.178395 0.351866 0.439125 0.175269
H19   H     H_    0.351591 0.871521 0.238838 0.156260
H20   H     H_    0.353241 0.132302 0.237217 0.163871
H21   H     H_    0.851659 0.371416 0.238851 0.156282
H22   H     H_    0.853240 0.632307 0.237222 0.163872
H23   H     H_    0.236403 0.825296 0.185514 0.133306
H24   H     H_    0.243165 0.190884 0.180735 0.135375
H25   H     H_    0.736554 0.324988 0.185467 0.133285
H26   H     H_    0.743176 0.690915 0.180741 0.135380
H27   H     H_    0.416862 0.799076 0.608201 0.157107
H28   H     H_    0.423406 0.203163 0.604927 0.164319
H29   H     H_    0.916906 0.299113 0.608283 0.157156
H30   H     H_    0.923418 0.703158 0.604935 0.164318
H31   H     H_    0.655369 0.022574 0.307571 0.135874
H32   H     H_    0.155373 0.522552 0.307571 0.135925
N1    N     N_R   0.552340 0.000000 0.237260 -0.103429
N2    N     N_R   0.052340 0.500000 0.237260 -0.103446
N3    N     N_R   0.448170 0.000000 0.762060 -0.159458
N4    N     N_R   0.948170 0.500000 0.762060 -0.159457
O1    O     O_R   0.448200 0.076800 0.373930 -0.609499
O2    O     O_R   0.448200 0.923200 0.373930 -0.615062
O3    O     O_R   0.948200 0.576800 0.373930 -0.609498
O4    O     O_R   0.948200 0.423200 0.373930 -0.615069
O5    O     O_R   0.414750 0.076790 0.542400 -0.631989
O6    O     O_R   0.414750 0.923210 0.542400 -0.631050
O7    O     O_R   0.914750 0.576790 0.542400 -0.632016
O8    O     O_R   0.914750 0.423210 0.542400 -0.631066
O9    O     O_R   0.585240 0.923200 0.457600 -0.611779
O10   O     O_R   0.585240 0.076800 0.457600 -0.616855
O11   O     O_R   0.085240 0.423200 0.457600 -0.611768
O12   O     O_R   0.085240 0.576800 0.457600 -0.616817
O13   O     O_R   0.551780 0.923190 0.626070 -0.642066
O14   O     O_R   0.551780 0.076810 0.626070 -0.653533
O15   O     O_R   0.051780 0.423190 0.626070 -0.642080
O16   O     O_R   0.051780 0.576810 0.626070 -0.653534
Zn1   Zn    Zn3+2 0.522330 0.000000 0.387520 0.927996
Zn2   Zn    Zn3+2 0.022330 0.500000 0.387520 0.928029
Zn3   Zn    Zn3+2 0.477660 0.000000 0.612480 0.891118
Zn4   Zn    Zn3+2 0.977660 0.500000 0.612480 0.891101
C89   C     C_3   0.609112 0.189277 0.783640 -0.420375
C90   C     C_3   0.589254 0.267080 0.821957 -0.363244
C91   C     C_3   0.562254 0.259801 0.928511 -0.911522
H33   H     H_    0.522446 0.215200 0.923118 0.278187
H34   H     H_    0.604897 0.244635 0.994744 0.261348
H35   H     H_    0.539623 0.314237 0.947885 0.249023
H36   H     H_    0.633660 0.306363 0.834375 0.224210
H37   H     H_    0.548890 0.292522 0.759618 0.215532
H38   H     H_    0.560231 0.159405 0.759463 0.236631
H39   H     H_    0.639328 0.158050 0.852597 0.211743
C92   C     C_3   0.624445 0.814822 0.793130 -0.427093
C93   C     C_3   0.669029 0.850300 0.892698 -0.327702
C94   C     C_3   0.636616 0.840828 0.993875 -0.879932
H40   H     H_    0.583062 0.862161 0.979578 0.283655
H41   H     H_    0.636916 0.780385 0.018011 0.239753
H42   H     H_    0.667087 0.872361 0.061279 0.257023
H43   H     H_    0.720849 0.824722 0.911944 0.208163
H44   H     H_    0.677563 0.910369 0.875155 0.224652
H45   H     H_    0.575853 0.846195 0.773417 0.229188
H46   H     H_    0.609976 0.756635 0.814457 0.197469
C95   C     C_3   0.109102 0.689235 0.783663 -0.420346
C96   C     C_3   0.089318 0.767004 0.822192 -0.363351
C97   C     C_3   0.062284 0.759616 0.928702 -0.911435
H47   H     H_    0.022413 0.715077 0.923154 0.278187
H48   H     H_    0.104893 0.744298 0.994907 0.261424
H49   H     H_    0.039723 0.814051 0.948239 0.248991
H50   H     H_    0.133767 0.806224 0.834750 0.224192
H51   H     H_    0.048994 0.792569 0.759907 0.215580
H52   H     H_    0.060189 0.659430 0.759433 0.236634
H53   H     H_    0.139312 0.657917 0.852530 0.211768
C98   C     C_3   0.124443 0.314821 0.793134 -0.427094
C99   C     C_3   0.169045 0.350289 0.892695 -0.327695
C100  C     C_3   0.136647 0.340817 0.993887 -0.879934
H54   H     H_    0.083095 0.362155 0.979609 0.283662
H55   H     H_    0.136946 0.280373 0.018020 0.239752
H56   H     H_    0.167129 0.372346 0.061284 0.257017
H57   H     H_    0.220863 0.324703 0.911923 0.208162
H58   H     H_    0.177586 0.410356 0.875155 0.224633
H59   H     H_    0.075860 0.346212 0.773433 0.229174
H60   H     H_    0.109959 0.256640 0.814465 0.197478
C101  C     C_3   0.323306 0.014724 0.670834 -0.361849
C102  C     C_3   0.247840 0.004489 0.685166 -0.448248
C103  C     C_3   0.198882 0.030224 0.583995 -0.881107
H61   H     H_    0.207413 0.090761 0.566643 0.265374
H62   H     H_    0.206938 0.996157 0.513525 0.258756
H63   H     H_    0.144891 0.022839 0.596538 0.251009
H64   H     H_    0.237621 0.943955 0.700498 0.233288
H65   H     H_    0.236979 0.038675 0.753965 0.223763
H66   H     H_    0.330075 0.075448 0.655233 0.227516
H67   H     H_    0.328627 0.983172 0.598540 0.260761
C104  C     C_3   0.823307 0.514736 0.670833 -0.361844
C105  C     C_3   0.747840 0.504513 0.685166 -0.448286
C106  C     C_3   0.698884 0.530250 0.583993 -0.881035
H68   H     H_    0.707430 0.590781 0.566623 0.265361
H69   H     H_    0.706926 0.496167 0.513529 0.258818
H70   H     H_    0.644893 0.522887 0.596546 0.250986
H71   H     H_    0.737614 0.443982 0.700505 0.233281
H72   H     H_    0.736983 0.538706 0.753960 0.223764
H73   H     H_    0.830081 0.575458 0.655227 0.227527
H74   H     H_    0.828626 0.483176 0.598542 0.260757
H75   H     H_    0.387243 0.949762 0.027784 0.137226
H76   H     H_    0.887236 0.449784 0.027787 0.137229
C107  C     C_3   0.362041 0.764060 0.791399 -0.414343
C108  C     C_3   0.440723 0.768083 0.811994 -0.339523
C109  C     C_3   0.468900 0.751685 0.930659 -0.904104
H77   H     H_    0.457355 0.799328 0.981441 0.270095
H78   H     H_    0.446442 0.699005 0.958391 0.258556
H79   H     H_    0.525132 0.743397 0.941052 0.252870
H80   H     H_    0.461860 0.725350 0.762336 0.214290
H81   H     H_    0.457644 0.825261 0.790622 0.232169
H82   H     H_    0.341615 0.809211 0.837848 0.203331
H83   H     H_    0.347921 0.708613 0.823740 0.201332
C110  C     C_3   0.373834 0.243888 0.782520 -0.438651
C111  C     C_3   0.370875 0.172823 0.852530 -0.330771
C112  C     C_3   0.376136 0.191418 0.971954 -0.898638
H84   H     H_    0.378956 0.138286 0.020146 0.255709
H85   H     H_    0.422716 0.225424 0.000450 0.267445
H86   H     H_    0.330060 0.223534 0.985398 0.251211
H87   H     H_    0.414266 0.135476 0.842319 0.229388
H88   H     H_    0.322170 0.141532 0.827274 0.223700
H89   H     H_    0.428393 0.257436 0.779279 0.198856
H90   H     H_    0.353590 0.293772 0.820031 0.209840
C113  C     C_3   0.862059 0.264110 0.791462 -0.414340
C114  C     C_3   0.940742 0.268111 0.812084 -0.339519
C115  C     C_3   0.968900 0.251725 0.930759 -0.904081
H91   H     H_    0.957358 0.299381 0.981521 0.270098
H92   H     H_    0.946427 0.199057 0.958498 0.258546
H93   H     H_    0.025131 0.243420 0.941171 0.252862
H94   H     H_    0.961877 0.225363 0.762447 0.214297
H95   H     H_    0.957678 0.325280 0.790702 0.232145
H96   H     H_    0.841630 0.309291 0.837854 0.203333
H97   H     H_    0.847922 0.208684 0.823850 0.201340
C116  C     C_3   0.873853 0.743892 0.782531 -0.438636
C117  C     C_3   0.870871 0.672829 0.852538 -0.330784
C118  C     C_3   0.876114 0.691427 0.971958 -0.898652
H98   H     H_    0.878940 0.638297 0.020155 0.255710
H99   H     H_    0.922685 0.725446 0.000466 0.267461
H100  H     H_    0.830029 0.723532 0.985388 0.251201
H101  H     H_    0.914259 0.635473 0.842347 0.229375
H102  H     H_    0.822164 0.641545 0.827264 0.223706
H103  H     H_    0.928418 0.757420 0.779294 0.198821
H104  H     H_    0.853623 0.793784 0.820040 0.209851
C119  C     C_3   0.644916 0.289797 0.312596 -0.427999
C120  C     C_3   0.610145 0.345858 0.378812 -0.326827
C121  C     C_3   0.532046 0.343330 0.347140 -0.878922
H105  H     H_    0.516589 0.357527 0.260193 0.260151
H106  H     H_    0.512521 0.286252 0.363423 0.266075
H107  H     H_    0.508408 0.384947 0.395242 0.246970
H108  H     H_    0.623329 0.333184 0.466381 0.235609
H109  H     H_    0.628358 0.403913 0.364709 0.216436
H110  H     H_    0.630915 0.307586 0.226566 0.192502
H111  H     H_    0.621920 0.233134 0.313827 0.202937
C122  C     C_3   0.652962 0.736037 0.302654 -0.423882
C123  C     C_3   0.610392 0.683154 0.363333 -0.331313
C124  C     C_3   0.533565 0.698433 0.330402 -0.875274
H112  H     H_    0.521287 0.757014 0.351446 0.270245
H113  H     H_    0.517607 0.690450 0.242253 0.260791
H114  H     H_    0.504035 0.658699 0.373938 0.245483
H115  H     H_    0.621238 0.623637 0.344753 0.219562
H116  H     H_    0.623898 0.689942 0.451815 0.232860
H117  H     H_    0.635874 0.795197 0.303359 0.204705
H118  H     H_    0.639415 0.721537 0.215819 0.189299
C125  C     C_3   0.144776 0.790300 0.312777 -0.428081
C126  C     C_3   0.110209 0.846445 0.379155 -0.326670
C127  C     C_3   0.032094 0.844361 0.347348 -0.879031
H119  H     H_    0.016746 0.858812 0.260458 0.260068
H120  H     H_    0.012299 0.787345 0.363289 0.266062
H121  H     H_    0.008616 0.886002 0.395624 0.246996
H122  H     H_    0.123292 0.833559 0.466683 0.235564
H123  H     H_    0.128692 0.904433 0.365332 0.216433
H124  H     H_    0.130757 0.808151 0.226773 0.192634
H125  H     H_    0.121641 0.733705 0.314011 0.202832
C128  C     C_3   0.152942 0.235973 0.302656 -0.423902
C129  C     C_3   0.110392 0.183075 0.363345 -0.331322
C130  C     C_3   0.033559 0.198305 0.330393 -0.875256
H126  H     H_    0.021249 0.256882 0.351409 0.270220
H127  H     H_    0.017612 0.190300 0.242247 0.260787
H128  H     H_    0.004044 0.158561 0.373939 0.245499
H129  H     H_    0.121269 0.123561 0.344795 0.219593
H130  H     H_    0.123886 0.189886 0.451825 0.232862
H131  H     H_    0.135835 0.295126 0.303362 0.204699
H132  H     H_    0.139396 0.221469 0.215823 0.189312

loop_
_geom_bond_atom_site_label_1
_geom_bond_atom_site_label_2
_ccdc_geom_bond_type
C59   N1    A    
C83   C87   A    
C39   O13   A    
O8    Zn4   S    
C108  H80   S    
C71   C75   A    
C43   H75   S    
C123  H115  S    
C11   C13   A    
C14   C18   A    
C91   H33   S    
C56   H10   S    
C101  H67   S    
C72   C76   A    
C124  H114  S    
C21   C65   A    
C36   C104  S    
C20   H30   S    
C89   C90   S    
C69   H19   S    
C22   H16   S    
C111  H87   S    
C97   H48   S    
C10   C62   A    
C64   H14   S    
C113  H97   S    
C125  H124  S    
C121  H105  S    
C95   C96   S    
C75   C79   A    
C74   C78   A    
C2    C29   S    
C9    C61   A    
C47   C55   A    
C93   C94   S    
C28   C68   A    
C1    O1    A    
C54   H2    S    
C115  H93   S    
C1    O5    A    
O14   Zn3   S    
C33   H3    S    
C74   H24   S    
C91   H34   S    
C5    C83   A    
C103  H62   S    
C3    O3    A    
C5    C21   A    
C104  H73   S    
C95   H52   S    
C23   H17   S    
C117  H102  S    
C109  H79   S    
C49   C57   A    
C37   H7    S    
C42   O12   A    
C122  C123  S    
C130  H128  S    
C23   C67   A    
C102  H64   S    
C106  H69   S    
C22   C66   A    
C103  H63   S    
O12   Zn2   S    
C34   C52   A    
C109  H78   S    
C15   C19   A    
C3    O7    A    
C47   N3    A    
O11   Zn2   S    
C101  C102  S    
C118  H98   S    
O1    Zn1   S    
C108  C109  S    
C49   C51   A    
C40   O14   A    
C126  H122  S    
C70   C74   A    
C50   C52   A    
C130  H126  S    
C13   C107  S    
C14   C110  S    
C69   C73   A    
C101  H66   S    
C75   H25   S    
C45   C49   A    
C8    C12   A    
C30   C86   A    
C29   C85   A    
C127  H119  S    
C48   C56   A    
C35   C101  S    
C110  H90   S    
C89   H38   S    
C119  H111  S    
C53   C55   A    
O13   Zn3   S    
C93   H44   S    
C96   H50   S    
C94   H41   S    
C57   H5    S    
C128  C129  S    
C34   C60   A    
C26   C92   S    
C61   H11   S    
C44   H76   S    
C114  C115  S    
C30   C70   A    
C52   C54   A    
C38   C44   A    
C73   H23   S    
C41   C68   S    
C29   C69   A    
C45   C47   A    
C99   H57   S    
C72   H22   S    
C125  H125  S    
C58   N2    A    
C6    C84   A    
C4    O4    A    
C42   O16   A    
C80   C84   A    
C26   C66   A    
N1    Zn1   S    
C91   H35   S    
C31   C87   A    
C32   C72   A    
C18   H28   S    
C97   H47   S    
C10   C16   A    
C2    O6    A    
C120  H108  S    
C116  H103  S    
C25   C61   A    
C104  H74   S    
C44   C46   A    
C100  H55   S    
C95   H53   S    
C82   C86   A    
C24   C68   A    
C128  H131  S    
C117  H101  S    
C96   H51   S    
C33   C51   A    
C107  C108  S    
C94   H40   S    
C15   C113  S    
C51   C53   A    
O3    Zn2   S    
C79   C119  S    
C37   C43   A    
C106  H70   S    
C7    C11   A    
C5    C9    A    
C115  H91   S    
C119  H110  S    
C112  H85   S    
O15   Zn4   S    
C78   C82   A    
C76   H26   S    
C113  C114  S    
C77   C81   A    
C16   C20   A    
C100  H56   S    
C107  H83   S    
C55   H9    S    
C107  H82   S    
C109  H77   S    
C62   H12   S    
C50   C58   A    
C25   C65   A    
C3    C32   S    
C118  H99   S    
C18   C86   A    
C60   N2    A    
O6    Zn3   S    
C43   C45   A    
C8    C82   A    
C114  H94   S    
C27   C63   A    
C27   C95   S    
C90   H37   S    
C89   H39   S    
C2    O2    A    
C99   C100  S    
C7    C81   A    
C12   C14   A    
C93   H43   S    
C100  H54   S    
C121  H106  S    
C40   C65   S    
C127  H120  S    
C53   H1    S    
C96   C97   S    
C39   C66   S    
C17   C85   A    
C32   C88   A    
C76   C80   A    
N2    Zn2   S    
C97   H49   S    
C124  H112  S    
C28   C64   A    
C41   O11   A    
C120  C121  S    
C17   H27   S    
C98   H59   S    
C90   C91   S    
C39   O9    A    
C35   C37   A    
C112  H84   S    
C12   C64   A    
C117  C118  S    
C121  H107  S    
C59   H31   S    
C36   N4    A    
C9    C15   A    
C114  H95   S    
C123  H116  S    
C122  H118  S    
O16   Zn4   S    
C78   C128  S    
C108  H81   S    
C105  C106  S    
C124  H113  S    
C16   C116  S    
C25   C89   S    
C119  C120  S    
C122  H117  S    
C54   C56   A    
C111  H88   S    
C98   H60   S    
O5    Zn3   S    
C92   H46   S    
C94   H42   S    
C113  H96   S    
C128  H132  S    
C46   C50   A    
O2    Zn1   S    
O9    Zn1   S    
C13   C17   A    
C129  H129  S    
C125  C126  S    
C92   H45   S    
C36   C38   A    
C123  C124  S    
C58   H6    S    
C19   C87   A    
C63   H13   S    
C115  H92   S    
C98   C99   S    
C70   H20   S    
C104  C105  S    
O10   Zn1   S    
C79   C83   A    
C105  H71   S    
C4    O8    A    
C111  C112  S    
C42   C67   S    
C84   C88   A    
C40   O10   A    
N3    Zn3   S    
C7    C23   A    
C26   C62   A    
C71   H21   S    
C110  C111  S    
C35   N3    A    
C1    C30   S    
C8    C24   A    
C38   H8    S    
C116  H104  S    
C60   H32   S    
C118  H100  S    
C120  H109  S    
C130  H127  S    
C28   C98   S    
C102  H65   S    
C106  H68   S    
C34   H4    S    
C41   O15   A    
C4    C31   S    
C27   C67   A    
C6    C10   A    
C99   H58   S    
C57   N1    A    
C90   H36   S    
C21   H15   S    
C46   C48   A    
C77   C125  S    
C103  H61   S    
C24   H18   S    
C126  C127  S    
C19   H29   S    
C33   C59   A    
C48   N4    A    
C20   C88   A    
C127  H121  S    
C126  H123  S    
C92   C93   S    
C73   C77   A    
C129  C130  S    
N4    Zn4   S    
C129  H130  S    
C80   C122  S    
C102  C103  S    
C116  C117  S    
C11   C63   A    
O4    Zn2   S    
C81   C85   A    
O7    Zn4   S    
C105  H72   S    
C110  H89   S    
C31   C71   A    
C112  H86   S    
C6    C22   A    
