data_mof_unit_28234.cif
_audit_creation_date              2012-10-26T18:59:38-0400
_audit_creation_method            fapswitch 2.2
_symmetry_space_group_name_H-M    P1
_symmetry_Int_Tables_number       1
_space_group_crystal_system       triclinic
_cell_length_a                    23.493628
_cell_length_b                    10.809872
_cell_length_c                    9.559886
_cell_angle_alpha                 90.006669
_cell_angle_beta                  89.563973
_cell_angle_gamma                 90.014185
_cell_volume                      2427.78800096

loop_
_atom_site_label
_atom_site_type_symbol
_atom_type_description
_atom_site_fract_x
_atom_site_fract_y
_atom_site_fract_z
_atom_type_partial_charge
Br1   Br    Br    0.635964 0.431057 0.113674 -0.458889
C1    C     C_R   0.499177 0.262365 0.499997 0.548377
C2    C     C_R   0.119214 0.598657 0.559198 0.402087
C3    C     C_R   0.238613 0.502054 0.376869 -0.054971
C4    C     C_R   0.390917 0.499747 0.500517 0.548776
C5    C     C_R   0.297957 0.502331 0.375502 -0.143093
C6    C     C_R   0.328228 0.499251 0.501746 0.005548
C7    C     C_R   0.298023 0.495607 0.629211 -0.141403
C8    C     C_R   0.238681 0.495171 0.630259 -0.054727
C9    C     C_R   0.208755 0.498498 0.504174 0.239688
C10   C     C_R   0.759413 0.417534 0.587159 -0.063791
C11   C     C_R   0.700125 0.417918 0.585086 -0.184842
C12   C     C_R   0.969646 0.296679 0.397495 -0.120695
C13   C     C_R   0.670996 0.502645 0.500820 0.024704
C14   C     C_R   0.701706 0.591024 0.422496 0.262695
C15   C     C_R   0.761202 0.588467 0.422976 -0.022373
C16   C     C_R   0.499022 0.737608 0.500012 0.542022
C17   C     C_R   0.790171 0.502163 0.505377 0.190705
C18   C     C_R   0.497721 0.063613 0.625577 0.019239
C19   C     C_R   0.493935 0.129196 0.500335 0.008992
C20   C     C_R   0.482237 0.064448 0.376271 -0.153507
C21   C     C_R   0.481946 0.935474 0.376419 -0.165698
C22   C     C_R   0.493610 0.870721 0.500487 0.004789
C23   C     C_R   0.029029 0.296121 0.397405 -0.120542
C24   C     C_R   0.497610 0.936372 0.625639 0.030289
C25   C     C_3   0.541558 0.929640 0.737510 -0.270474
C26   C     C_3   0.541685 0.070100 0.737430 -0.259021
C27   C     C_R   0.534006 0.579866 0.072186 0.146275
C28   C     C_R   0.608788 0.500680 0.499802 0.573912
C29   C     C_R   0.463761 0.426763 0.075088 0.004186
C30   C     C_R   0.464062 0.426044 0.926279 0.000244
C31   C     C_R   0.532131 0.583866 0.925241 0.119351
C32   C     C_3   0.594727 0.601353 0.911865 -0.238646
C33   C     C_3   0.597887 0.586645 0.069104 0.041523
C34   C     C_R   0.059398 0.397083 0.451623 0.029693
C35   C     C_R   0.879809 0.600250 0.561128 0.403497
C36   C     C_R   0.879695 0.401037 0.452556 0.410211
C37   C     C_R   0.939394 0.398120 0.452022 0.028677
C38   C     C_R   0.969415 0.499683 0.506973 -0.027763
C39   C     C_R   0.939510 0.601811 0.562020 0.032156
C40   C     C_3   0.662694 0.782762 0.429075 -0.019706
C41   C     C_3   0.634100 0.882474 0.342165 -0.360710
C42   C     C_R   0.029490 0.499196 0.506697 -0.027715
C43   C     C_R   0.059511 0.600899 0.561321 0.029404
C44   C     C_R   0.029259 0.702249 0.616066 -0.121051
C45   C     C_R   0.969876 0.702653 0.616522 -0.119997
C46   C     C_R   0.119104 0.398686 0.452437 0.401634
Cu1   Cu    Cu3+1 0.500000 0.499980 0.640670 0.941050
Cu2   Cu    Cu3+1 0.500000 0.500020 0.359330 0.992727
H1    H     H_    0.947570 0.217437 0.354692 0.171151
H2    H     H_    0.435183 0.365720 0.131369 0.108784
H3    H     H_    0.051015 0.216463 0.354540 0.171331
H4    H     H_    0.435880 0.364104 0.871087 0.113564
H5    H     H_    0.616537 0.526230 0.853489 0.200565
H6    H     H_    0.605722 0.696130 0.875516 0.088023
H7    H     H_    0.614687 0.670208 0.121852 0.168827
H8    H     H_    0.051334 0.781568 0.658686 0.171391
H9    H     H_    0.947890 0.782277 0.659467 0.171229
H10   H     H_    0.215746 0.505054 0.279002 0.134789
H11   H     H_    0.320046 0.505215 0.275710 0.128601
H12   H     H_    0.676917 0.351158 0.647962 0.134792
H13   H     H_    0.320163 0.492920 0.728113 0.129328
H14   H     H_    0.215871 0.491974 0.729053 0.134729
H15   H     H_    0.781539 0.351346 0.652079 0.155594
H16   H     H_    0.702777 0.821910 0.472367 0.149393
H17   H     H_    0.633451 0.757692 0.516824 0.121129
H18   H     H_    0.663334 0.913979 0.257575 0.171835
H19   H     H_    0.594686 0.845413 0.294518 0.156049
H20   H     H_    0.622871 0.962615 0.409681 0.115861
H21   H     H_    0.784917 0.654542 0.360406 0.150876
H22   H     H_    0.475766 0.112768 0.278422 0.138468
H23   H     H_    0.475379 0.887116 0.278623 0.135014
H24   H     H_    0.524331 0.889214 0.836027 0.139421
H25   H     H_    0.582324 0.888704 0.700059 0.123365
H26   H     H_    0.524508 0.110746 0.835888 0.149959
H27   H     H_    0.582508 0.110815 0.699805 0.144105
N1    N     N_R   0.851232 0.501036 0.506590 -0.395914
N2    N     N_R   0.147681 0.498563 0.505400 -0.398958
N3    N     N_R   0.500360 0.500930 0.147930 -0.211965
N4    N     N_R   0.500360 0.500890 0.852020 -0.224186
O1    O     O_R   0.500000 0.319640 0.618810 -0.503247
O2    O     O_R   0.582120 0.500020 0.618760 -0.533907
O3    O     O_R   0.582120 0.500060 0.381180 -0.415532
O4    O     O_2   0.850496 0.696623 0.615180 -0.501617
O5    O     O_3   0.674058 0.679069 0.343482 -0.553332
O6    O     O_2   0.850290 0.305323 0.398349 -0.481587
O7    O     O_2   0.148411 0.300925 0.401711 -0.491663
O8    O     O_2   0.148629 0.696112 0.609286 -0.490349
O9    O     O_R   0.500010 0.319680 0.381230 -0.498314
O10   O     O_R   0.417880 0.499940 0.618820 -0.506337
O11   O     O_R   0.417880 0.499980 0.381240 -0.513349
O12   O     O_R   0.499990 0.680320 0.618770 -0.497222
O13   O     O_R   0.500000 0.680360 0.381190 -0.513533

loop_
_geom_bond_atom_site_label_1
_geom_bond_atom_site_label_2
_ccdc_geom_bond_type
C32   H6    S    
C29   H2    S    
C10   C17   A    
C33   H7    S    
C40   C41   S    
C18   C19   A    
C34   C46   A    
C9    N2    S    
C30   N4    A    
C44   C45   A    
C39   C45   A    
C44   H8    S    
C25   C26   S    
C16   C22   S    
C20   H22   S    
C28   O3    A    
C23   H3    S    
C29   C30   A    
C40   H17   S    
C14   C15   A    
C25   H24   S    
Cu1   O1    S    
C27   N3    A    
C7    C8    A    
C18   C26   S    
C8    C9    A    
C4    O10   A    
C14   O5    S    
C27   C33   S    
Cu1   O10   S    
C20   C21   A    
C45   H9    S    
C41   H19   S    
C16   O12   A    
Cu2   O11   S    
C26   H26   S    
C21   H23   S    
Br1   C33   S    
C2    C43   A    
C23   C34   A    
C1    C19   S    
C5    H11   S    
C36   O6    S    
C35   C39   A    
C15   H21   S    
C3    C5    A    
C10   H15   S    
C38   C39   A    
C4    C6    S    
C40   H16   S    
C24   C25   S    
C36   N1    A    
C41   H20   S    
Cu2   N3    S    
C12   C23   A    
C46   O7    S    
C1    O9    A    
C42   C43   A    
C36   C37   A    
C31   N4    A    
C13   C14   A    
C27   C31   A    
C32   C33   S    
C30   H4    S    
C12   C37   A    
C4    O11   A    
C29   N3    A    
Cu1   Cu2   S    
C11   C13   A    
C41   H18   S    
C16   O13   A    
C13   C28   S    
C3    C9    A    
C26   H27   S    
C34   C42   A    
C43   C44   A    
C32   H5    S    
C2    O8    S    
C8    H14   S    
Cu2   O9    S    
C38   C42   A    
C10   C11   A    
C5    C6    A    
C40   O5    S    
C35   N1    A    
C31   C32   S    
Cu1   N4    S    
C28   O2    A    
C11   H12   S    
Cu2   O3    S    
C37   C38   A    
C35   O4    S    
C17   N1    S    
C3    H10   S    
C25   H25   S    
Cu1   O2    S    
C22   C24   A    
C18   C24   A    
C6    C7    A    
C12   H1    S    
C19   C20   A    
C15   C17   A    
Cu1   O12   S    
C21   C22   A    
C1    O1    A    
C46   N2    A    
Cu2   O13   S    
C2    N2    A    
C7    H13   S    
