data_mof_unit_67474.cif
_audit_creation_date              2013-03-05T15:40:59-0500
_audit_creation_method            fapswitch 2.2
_symmetry_space_group_name_H-M    P1
_symmetry_Int_Tables_number       1
_space_group_crystal_system       triclinic
_cell_length_a                    10.764774
_cell_length_b                    8.710147
_cell_length_c                    7.530414
_cell_angle_alpha                 102.925276
_cell_angle_beta                  94.647881
_cell_angle_gamma                 94.003447
_cell_volume                      683.103025977

loop_
_atom_site_label
_atom_site_type_symbol
_atom_site_description
_atom_site_fract_x
_atom_site_fract_y
_atom_site_fract_z
_atom_type_partial_charge
O1    O     O_R   0.509140 0.286130 0.619770 -0.509306
O2    O     O_R   0.485380 0.256770 0.308360 -0.615727
C1    C     C_R   0.491862 0.200243 0.454208 0.760533
O3    O     O_R   0.329570 0.514650 0.655700 -0.539573
O4    O     O_R   0.305810 0.485300 0.344290 -0.596871
C2    C     C_R   0.260393 0.488894 0.500434 0.829557
Cu1   Cu    Cu3+1 0.514070 0.517380 0.684380 1.136556
Cu2   Cu    Cu3+1 0.485930 0.482620 0.315620 1.115884
O5    O     O_R   0.514620 0.743230 0.691640 -0.576822
O6    O     O_R   0.490860 0.713870 0.380230 -0.514415
O7    O     O_R   0.694190 0.514700 0.655710 -0.592846
O8    O     O_R   0.670430 0.485350 0.344300 -0.516397
C3    C     C_R   0.507231 0.799720 0.545980 0.839942
C4    C     C_R   0.739800 0.499263 0.498943 0.877708
C5    C     C_3   0.074653 0.417044 0.668755 0.555092
C6    C     C_3   0.928906 0.411586 0.653723 0.163638
H1    H     H_    0.902044 0.477436 0.786729 0.160147
C7    C     C_3   0.084118 0.655509 0.506652 0.114850
C8    C     C_3   0.055744 0.374102 0.321744 0.112661
C9    C     C_3   0.122627 0.484425 0.504483 -0.348671
H2    H     H_    0.093143 0.410351 0.203000 0.171941
C10   C     C_3   0.877972 0.493132 0.498501 -0.323862
C11   C     C_3   0.945273 0.667845 0.543404 0.339049
C12   C     C_3   0.912165 0.394013 0.307923 0.595283
H3    H     H_    0.092012 0.671093 0.365073 0.233391
C13   C     C_2   0.473172 0.031837 0.433991 0.244925
C14   C     C_2   0.524694 0.968195 0.567098 0.231023
N1    N     N_2   0.464720 0.456420 0.038520 0.117211
N2    N     N_2   0.535280 0.543580 0.961480 0.118651
Br1   Br    Br    0.140913 0.540504 0.914866 -0.490128
O9    O     O_3   0.884339 0.477994 0.172662 -0.702937
H4    H     H_    0.890640 0.405197 0.052739 0.350868
Br2   Br    Br    0.877559 0.806830 0.398160 -0.201028
O10   O     O_3   0.396283 0.939510 0.286111 -0.679397
H5    H     H_    0.358982 0.008167 0.211469 0.341926
O11   O     O_3   0.599976 0.060690 0.716609 -0.702011
H6    H     H_    0.639247 0.991998 0.789464 0.376904
O12   O     O_3   0.397950 0.333012 0.924527 -0.579455
H7    H     H_    0.355178 0.275763 0.005292 0.343507
Br3   Br    Br    0.633364 0.725217 0.090976 -0.192561
O13   O     O_3   0.109400 0.262267 0.658219 -0.555223
H8    H     H_    0.201410 0.268255 0.684633 0.352577
O14   O     O_3   0.875644 0.254419 0.624837 -0.567025
H9    H     H_    0.795536 0.256766 0.681515 0.363597
O15   O     O_3   0.165743 0.780802 0.616013 -0.638070
H10   H     H_    0.178690 0.764423 0.740987 0.393702
Br4   Br    Br    0.925100 0.787765 0.792557 -0.305335
O16   O     O_3   0.078491 0.214756 0.307716 -0.569940
H11   H     H_    0.164141 0.202283 0.269815 0.326923
Br5   Br    Br    0.811824 0.186060 0.227719 -0.250443

loop_
_geom_bond_atom_site_label_1
_geom_bond_atom_site_label_2
_geom_bond_distance
_ccdc_geom_bond_type
O4    Cu2   1.969416 S    
O14   H9    0.992181 S    
Cu1   N2    2.039832 S    
C7    C11   1.548626 S    
C14   O11   1.388738 S    
C2    C9    1.483767 S    
O13   H8    0.989705 S    
C3    C14   1.437444 S    
O9    H4    0.990933 S    
N1    O12   1.337254 S    
Cu2   O8    1.978230 S    
C4    C10   1.492309 S    
C8    C12   1.564992 S    
C12   O9    1.405976 S    
Cu1   Cu2   2.714670 S    
O15   H10   0.983381 S    
Cu1   O7    1.969416 S    
C6    O14   1.409626 S    
N1    N2    1.295291 D    
C13   C14   1.349438 D    
C5    C9    1.589784 S    
C7    H3    1.113610 S    
O3    Cu1   1.978231 S    
N2    Br3   1.865060 S    
Cu2   O6    1.959363 S    
O16   H11   0.993030 S    
C8    H2    1.108259 S    
O8    C4    1.308337 A    
O2    C1    1.299164 A    
C7    C9    1.571365 S    
C12   Br5   1.985954 S    
O4    C2    1.304388 A    
Cu2   N1    2.039832 S    
O7    C4    1.298044 A    
C10   C12   1.586240 S    
C11   Br4   1.969616 S    
C5    C6    1.560453 S    
C7    O15   1.409974 S    
O12   H7    0.989711 S    
C5    O13   1.411043 S    
C5    Br1   1.971552 S    
O3    C2    1.300062 A    
O10   H5    0.991013 S    
Cu1   O5    1.955264 S    
O5    C3    1.297824 A    
C10   C11   1.590962 S    
O11   H6    0.991097 S    
C6    C10   1.579031 S    
C8    O16   1.408375 S    
C11   Br2   1.944087 S    
O1    Cu1   1.959363 S    
C13   O10   1.388861 S    
C1    C13   1.438477 S    
O2    Cu2   1.955264 S    
C8    C9    1.576919 S    
C6    H1    1.108551 S    
O1    C1    1.293970 A    
O6    C3    1.294815 A    
