data_mof_unit_51040.cif
_audit_creation_date              2013-03-05T16:09:06-0500
_audit_creation_method            fapswitch 2.2
_symmetry_space_group_name_H-M    P1
_symmetry_Int_Tables_number       1
_space_group_crystal_system       triclinic
_cell_length_a                    18.226778
_cell_length_b                    7.148122
_cell_length_c                    12.939495
_cell_angle_alpha                 90.000147
_cell_angle_beta                  72.226331
_cell_angle_gamma                 90.0
_cell_volume                      1605.38495571

loop_
_atom_site_label
_atom_site_type_symbol
_atom_site_description
_atom_site_fract_x
_atom_site_fract_y
_atom_site_fract_z
_atom_type_partial_charge
O1    O     O_R   0.453880 0.506200 0.150010 -0.596438
O2    O     O_R   0.546120 0.006200 0.849990 -0.596442
O3    O     O_R   0.604080 0.177770 0.007280 -0.569497
O4    O     O_R   0.395920 0.677770 0.992720 -0.569500
C1    C     C_R   0.636069 0.344388 0.000758 1.047046
C2    C     C_R   0.363931 0.844388 0.999242 1.047051
O5    O     O_R   0.458010 0.176640 0.159130 -0.560523
O6    O     O_R   0.541990 0.676640 0.840870 -0.560521
O7    O     O_R   0.399010 0.004010 0.002930 -0.573997
O8    O     O_R   0.600990 0.504010 0.997070 -0.574001
C3    C     C_R   0.442821 0.344972 0.201974 1.160276
C4    C     C_R   0.557180 0.844971 0.798025 1.160275
O9    O     O_3   0.480810 0.338440 0.948570 -0.265862
O10   O     O_3   0.519190 0.838440 0.051430 -0.265860
V1    V     V_3+5 0.503560 0.064490 0.009540 1.367788
V2    V     V_3+5 0.496440 0.564490 0.990460 1.367788
C5    C     C_R   0.578534 0.878670 0.496553 0.350390
C6    C     C_R   0.421465 0.378667 0.503447 0.350384
C7    C     C_R   0.590874 0.852678 0.679062 -0.456490
C8    C     C_R   0.409126 0.352680 0.320938 -0.456490
C9    C     C_R   0.951340 0.891178 0.387636 -0.181861
C10   C     C_R   0.048659 0.391184 0.612364 -0.181861
C11   C     C_R   0.917044 0.916361 0.498338 -0.105034
C12   C     C_R   0.082955 0.416370 0.501663 -0.105033
C13   C     C_R   0.837141 0.908859 0.542585 -0.072749
C14   C     C_R   0.162858 0.408866 0.457415 -0.072749
C15   C     C_R   0.789203 0.866332 0.477647 0.156788
C16   C     C_R   0.210796 0.366334 0.522352 0.156788
C17   C     C_R   0.824460 0.854634 0.363984 0.054367
C18   C     C_R   0.175539 0.354631 0.636016 0.054363
C19   C     C_R   0.707043 0.850852 0.521563 -0.080793
C20   C     C_R   0.292956 0.350854 0.478436 -0.080792
C21   C     C_R   0.660482 0.864552 0.450529 -0.206643
C22   C     C_R   0.339516 0.364549 0.549471 -0.206651
C23   C     C_R   0.698393 0.860216 0.336024 0.455104
C24   C     C_R   0.301606 0.360204 0.663975 0.455118
C25   C     C_R   0.778087 0.846109 0.296004 -0.318048
C26   C     C_R   0.221912 0.346097 0.703995 -0.318042
C27   C     C_R   0.670390 0.820577 0.634080 0.268869
C28   C     C_R   0.329609 0.320583 0.365919 0.268869
C29   C     C_R   0.544087 0.883969 0.611245 0.305593
C30   C     C_R   0.455913 0.383968 0.388755 0.305604
C31   C     C_R   0.905756 0.863463 0.319593 -0.133494
C32   C     C_R   0.094243 0.363463 0.680407 -0.133494
H1    H     H_    0.952441 0.947426 0.549860 0.137312
H2    H     H_    0.047558 0.447440 0.450141 0.137312
H3    H     H_    0.803612 0.839144 0.208718 0.156672
H4    H     H_    0.196387 0.339127 0.791281 0.156670
C33   C     C_1   0.216185 0.858878 0.000817 -0.178911
C34   C     C_1   0.783815 0.358878 0.999183 -0.178910
C35   C     C_1   0.283451 0.852577 0.999969 -0.055215
C36   C     C_1   0.716549 0.352577 0.000031 -0.055221
O11   O     O_R   0.899030 0.205490 0.002790 -0.581379
O12   O     O_R   0.100970 0.705490 0.997210 -0.581383
O13   O     O_R   0.042000 0.536370 0.840840 -0.586165
O14   O     O_R   0.958000 0.036370 0.159160 -0.586165
C37   C     C_R   0.056718 0.368450 0.798105 0.913231
C38   C     C_R   0.943282 0.868451 0.201895 0.913233
O15   O     O_R   0.895930 0.535070 0.992690 -0.584448
O16   O     O_R   0.104070 0.035070 0.007310 -0.584445
O17   O     O_R   0.953870 0.707520 0.150040 -0.590434
O18   O     O_R   0.046130 0.207520 0.849960 -0.590434
C39   C     C_R   0.864279 0.366813 0.998572 0.962843
C40   C     C_R   0.135721 0.866813 0.001428 0.962844
O19   O     O_3   0.019200 0.374340 0.051340 -0.280124
O20   O     O_3   0.980800 0.874340 0.948660 -0.280125
V3    V     V_3+5 0.996440 0.648350 0.990470 1.208863
V4    V     V_3+5 0.003560 0.148350 0.009530 1.208866
N1    N     N_R   0.461335 0.912326 0.658182 0.287377
O21   O     O_R   0.420726 0.991733 0.603549 -0.321674
O22   O     O_R   0.424345 0.849328 0.754176 -0.365916
N2    N     N_R   0.538665 0.412322 0.341820 0.287377
O23   O     O_R   0.579273 0.491728 0.396454 -0.321671
O24   O     O_R   0.575655 0.349324 0.245826 -0.365928
N3    N     N_R   0.659155 0.875680 0.256026 0.259045
O25   O     O_R   0.671953 0.022451 0.193644 -0.350413
O26   O     O_R   0.633204 0.725616 0.222590 -0.321161
N4    N     N_R   0.340844 0.375655 0.743974 0.259042
O27   O     O_R   0.328065 0.522448 0.806336 -0.350382
O28   O     O_R   0.366761 0.225573 0.777439 -0.321186
N5    N     N_R   0.529605 0.886986 0.428082 0.273868
O29   O     O_R   0.530576 0.033862 0.369274 -0.336777
O30   O     O_R   0.473352 0.769080 0.440871 -0.356825
N6    N     N_R   0.470393 0.386985 0.571921 0.273860
O31   O     O_R   0.469421 0.533863 0.630727 -0.336772
O32   O     O_R   0.526646 0.269080 0.559132 -0.356834
N7    N     N_R   0.711349 0.732071 0.700169 0.217805
O33   O     O_R   0.710631 0.803516 0.793034 -0.442351
O34   O     O_R   0.749760 0.578637 0.666990 -0.397425
N8    N     N_R   0.288650 0.232083 0.299828 0.217803
O35   O     O_R   0.289369 0.303533 0.206964 -0.442349
O36   O     O_R   0.250239 0.078648 0.333004 -0.397427
H5    H     H_    0.013415 0.902036 0.354173 0.128820
H6    H     H_    0.986584 0.402044 0.645828 0.128820
H7    H     H_    0.813932 0.946520 0.626951 0.158595
H8    H     H_    0.186067 0.446531 0.373050 0.158595

loop_
_geom_bond_atom_site_label_1
_geom_bond_atom_site_label_2
_geom_bond_distance
_ccdc_geom_bond_type
O20   V4    2.197331 S    
N7    O33   1.302034 A    
C11   H1    1.082869 S    
C15   C17   1.416342 A    
O1    C3    1.318411 A    
C27   N7    1.441747 S    
O2    C4    1.318412 A    
C2    O7    1.315895 A    
N5    O29   1.293594 A    
C37   O18   1.315943 A    
O5    C3    1.318376 A    
C23   N3    1.430803 S    
C9    H5    1.083779 S    
C23   C25   1.388909 A    
N6    O32   1.298223 A    
C6    C30   1.424501 A    
C8    C28   1.406044 A    
N4    O28   1.298629 A    
C18   C26   1.394905 A    
N1    O22   1.299582 A    
O11   V4    1.976318 S    
C31   C38   1.467149 S    
O15   V3    1.995121 S    
C9    C31   1.396891 A    
N8    O36   1.301484 A    
C10   C32   1.396892 A    
C19   C27   1.420917 A    
C16   C18   1.416345 A    
C33   C35   1.223578 T    
C34   C36   1.223578 T    
C19   C21   1.432076 A    
C1    C36   1.465217 S    
C2    C35   1.465217 S    
C25   H3    1.083401 S    
C5    N5    1.437441 S    
C26   H4    1.083402 S    
C38   O17   1.315941 A    
O5    V1    2.024215 S    
O20   V3    1.754318 S    
O6    V2    2.024221 S    
C33   C40   1.465300 S    
C17   C31   1.417717 A    
C34   C39   1.465300 S    
C10   H6    1.083777 S    
C18   C32   1.417716 A    
C5    C21   1.432761 A    
N5    O30   1.298223 A    
C14   H8    1.077579 S    
C3    C8    1.473966 S    
C15   C19   1.434635 A    
C16   C20   1.434636 A    
N6    O31   1.293594 A    
O4    C2    1.317393 A    
N4    O27   1.300648 A    
O12   V3    1.976319 S    
O19   V3    2.197334 S    
O14   V4    2.024192 S    
C20   C22   1.432073 A    
O4    V2    1.995149 S    
N3    O25   1.300654 A    
C6    C22   1.432760 A    
O17   V3    2.016447 S    
O13   V3    2.024186 S    
C32   C37   1.467150 S    
O6    C4    1.318376 A    
O19   V4    1.754315 S    
C30   N2    1.457965 S    
O1    V2    2.014890 S    
O2    V1    2.014888 S    
N3    O26   1.298639 A    
C7    C27   1.406042 A    
N2    O24   1.299583 A    
C13   H7    1.077578 S    
O13   C37   1.314504 A    
C10   C12   1.388645 A    
O3    V1    1.995148 S    
C29   N1    1.457965 S    
O15   C39   1.326023 A    
C12   C14   1.393778 A    
N2    O23   1.299699 A    
O3    C1    1.317394 A    
C8    C30   1.415679 A    
C13   C15   1.417801 A    
C14   C16   1.417800 A    
O18   V4    2.016446 S    
O16   C40   1.326023 A    
C12   H2    1.082869 S    
C9    C11   1.388644 A    
O7    V1    1.981177 S    
C1    O8    1.315894 A    
O8    V2    1.981180 S    
O11   C39   1.324780 A    
C6    N6    1.437441 S    
N8    O35   1.302034 A    
O12   C40   1.324778 A    
C4    C7    1.473965 S    
C24   C26   1.388905 A    
C21   C23   1.431301 A    
O14   C38   1.314504 A    
C22   C24   1.431298 A    
C20   C28   1.420916 A    
N1    O21   1.299700 A    
C5    C29   1.424501 A    
C11   C13   1.393779 A    
O16   V4    1.995118 S    
O9    V2    1.755035 S    
C17   C25   1.394906 A    
N7    O34   1.301485 A    
O10   V1    1.755037 S    
C24   N4    1.430800 S    
C28   N8    1.441747 S    
C7    C29   1.415677 A    
