data_mof_unit_54042.cif
_audit_creation_date              2012-12-10T18:57:12-0500
_audit_creation_method            fapswitch 2.2
_symmetry_space_group_name_H-M    P1
_symmetry_Int_Tables_number       1
_space_group_crystal_system       triclinic
_cell_length_a                    8.729346
_cell_length_b                    10.837028
_cell_length_c                    9.558533
_cell_angle_alpha                 90.419886
_cell_angle_beta                  97.836947
_cell_angle_gamma                 90.190398
_cell_volume                      895.760754179

loop_
_atom_site_label
_atom_site_type_symbol
_atom_type_description
_atom_site_fract_x
_atom_site_fract_y
_atom_site_fract_z
_atom_type_partial_charge
C1    C     C_R   0.496727 0.262463 0.499090 0.819110
C2    C     C_R   0.465841 0.934693 0.368624 -0.212278
C3    C     C_R   0.482457 0.870957 0.497663 -0.067626
C4    C     C_R   0.476508 0.937906 0.622104 0.053702
C5    C     C_3   0.577581 0.932819 0.761425 -0.538618
C6    C     C_3   0.577137 0.073264 0.760947 0.260623
C7    C     C_R   0.632395 0.524820 0.090399 0.203414
C8    C     C_R   0.373369 0.463284 0.058175 -0.071908
C9    C     C_R   0.373275 0.463472 0.909624 -0.094603
C10   C     C_R   0.633015 0.523310 0.943139 0.330394
C11   C     C_3   0.728793 0.637696 0.949892 0.136916
C12   C     C_R   0.203937 0.499178 0.463897 0.879835
C13   C     C_3   0.726036 0.640563 0.108542 -0.539258
C14   C     C_R   0.497535 0.737737 0.499950 0.795419
C15   C     C_R   0.796093 0.499976 0.536170 0.901782
C16   C     C_2   0.038147 0.496866 0.444231 -0.384997
C17   C     C_2   0.961970 0.500787 0.556133 -0.342769
C18   C     C_R   0.476101 0.065009 0.621174 0.023072
C19   C     C_R   0.481153 0.129523 0.496191 -0.089133
C20   C     C_R   0.465156 0.063463 0.367888 -0.212087
Cu1   Cu    Cu3+1 0.499990 0.499980 0.640670 0.977338
Cu2   Cu    Cu3+1 0.500010 0.500020 0.359330 0.945786
H1    H     H_    0.978602 0.491206 0.336964 0.176534
H2    H     H_    0.269814 0.435073 0.841756 0.160066
H3    H     H_    0.669207 0.715383 0.891229 0.119916
H4    H     H_    0.841156 0.626354 0.171388 0.215645
H5    H     H_    0.659881 0.719787 0.143797 0.179198
H6    H     H_    0.021623 0.505345 0.663592 0.196082
H7    H     H_    0.459805 0.110563 0.267800 0.167267
H8    H     H_    0.460792 0.885829 0.268835 0.161405
H9    H     H_    0.515235 0.893959 0.845091 0.168594
H10   H     H_    0.692384 0.891281 0.753166 0.199104
H11   H     H_    0.517884 0.115478 0.845230 0.136956
H12   H     H_    0.269994 0.434757 0.099921 0.159664
N1    N     N_R   0.500980 0.500930 0.148050 -0.192981
N2    N     N_R   0.500990 0.500890 0.852140 -0.228216
O1    O     O_R   0.500000 0.319640 0.618810 -0.559956
O2    O     O_R   0.500020 0.319680 0.381230 -0.592056
O3    O     O_R   0.274830 0.499980 0.591380 -0.590072
O4    O     O_R   0.274850 0.500020 0.353800 -0.593634
O5    O     O_R   0.499980 0.680320 0.618770 -0.584605
O6    O     O_R   0.500000 0.680360 0.381190 -0.588509
O7    O     O_R   0.725150 0.499980 0.646200 -0.540773
O8    O     O_R   0.725170 0.500020 0.408620 -0.583471
O9    O     O_3   0.876415 0.613097 0.914903 -0.714330
H13   H     H_    0.931294 0.693660 0.920451 0.325167
O10   O     O_3   0.723685 0.125876 0.753570 -0.700557
H14   H     H_    0.767943 0.087215 0.673514 0.329446

loop_
_geom_bond_atom_site_label_1
_geom_bond_atom_site_label_2
_ccdc_geom_bond_type
C12   O4    A    
C7    C10   A    
C9    H2    S    
Cu1   O7    S    
C9    N2    A    
C19   C20   A    
Cu1   O3    S    
C6    H11   S    
C1    O1    A    
C14   O6    A    
C5    H10   S    
Cu2   O4    S    
C12   O3    A    
C2    C3    A    
C8    C9    A    
C4    C18   A    
Cu1   N2    S    
C8    H12   S    
O9    H13   S    
Cu2   N1    S    
C11   C13   S    
Cu2   O6    S    
C3    C14   S    
C1    O2    A    
C14   O5    A    
Cu1   O5    S    
C15   O8    A    
C16   H1    S    
C20   H7    S    
C5    C6    S    
C6    C18   S    
Cu2   O8    S    
C13   H4    S    
C11   O9    S    
C1    C19   S    
C10   C11   S    
C11   H3    S    
C15   O7    A    
C3    C4    A    
Cu2   O2    S    
C12   C16   S    
C7    C13   S    
Cu1   O1    S    
C18   C19   A    
C6    O10   S    
C15   C17   S    
C2    C20   A    
C4    C5    S    
C2    H8    S    
C10   N2    A    
Cu1   Cu2   S    
C17   H6    S    
C7    N1    A    
C13   H5    S    
O10   H14   S    
C16   C17   D    
C5    H9    S    
C8    N1    A    
