data_mof_unit_53218.cif
_audit_creation_date              2012-10-26T21:00:16-0400
_audit_creation_method            fapswitch 2.2
_symmetry_space_group_name_H-M    P1
_symmetry_Int_Tables_number       1
_space_group_crystal_system       triclinic
_cell_length_a                    19.296997
_cell_length_b                    8.688249
_cell_length_c                    7.447874
_cell_angle_alpha                 102.854442
_cell_angle_beta                  95.0874
_cell_angle_gamma                 92.343133
_cell_volume                      1210.23480517

loop_
_atom_site_label
_atom_site_type_symbol
_atom_type_description
_atom_site_fract_x
_atom_site_fract_y
_atom_site_fract_z
_atom_type_partial_charge
C1    C     C_R   0.497909 0.199700 0.453302 0.554194
C2    C     C_R   0.812159 0.448164 0.341221 -0.126723
C3    C     C_R   0.145684 0.511233 0.489506 0.008212
C4    C     C_R   0.854316 0.488779 0.510494 0.008210
C5    C     C_R   0.176842 0.468910 0.321652 0.051735
C6    C     C_R   0.823159 0.531100 0.678348 0.051732
C7    C     C_R   0.249298 0.462583 0.329203 -0.125163
C8    C     C_R   0.750702 0.537423 0.670797 -0.125164
C9    C     C_R   0.291195 0.501333 0.499075 -0.012435
C10   C     C_R   0.708805 0.498670 0.500925 -0.012436
C11   C     C_R   0.930179 0.493919 0.506258 0.360875
C12   C     C_R   0.502091 0.800300 0.546698 0.554194
C13   C     C_R   0.069822 0.506094 0.493740 0.360875
C14   C     C_2   0.136507 0.437568 0.136323 0.583978
C15   C     C_2   0.863494 0.562446 0.863678 0.583977
C16   C     C_2   0.496907 0.031911 0.426916 -0.148268
C17   C     C_2   0.503093 0.968089 0.573084 -0.148267
C18   C     C_R   0.367372 0.499674 0.500682 0.550397
C19   C     C_R   0.632628 0.500327 0.499318 0.550396
C20   C     C_R   0.259963 0.546163 0.663812 -0.123501
C21   C     C_R   0.740037 0.453840 0.336188 -0.123499
C22   C     C_R   0.187841 0.551843 0.658779 -0.126724
Cu1   Cu    Cu3+1 0.507710 0.517380 0.684380 0.967797
Cu2   Cu    Cu3+1 0.492290 0.482620 0.315620 0.967797
H1    H     H_    0.291195 0.577502 0.796349 0.146035
H2    H     H_    0.554973 0.621258 0.051771 0.241444
H3    H     H_    0.127626 0.316966 0.869538 0.353947
H4    H     H_    0.872370 0.683040 0.130465 0.353946
H5    H     H_    0.708805 0.422498 0.203651 0.146036
H6    H     H_    0.164705 0.585081 0.788114 0.170316
H7    H     H_    0.835295 0.414926 0.211885 0.170315
H8    H     H_    0.273262 0.430477 0.200922 0.165242
H9    H     H_    0.726738 0.569528 0.799078 0.165248
H10   H     H_    0.491074 0.960525 0.285943 0.136312
H11   H     H_    0.508926 0.039475 0.714057 0.136312
H12   H     H_    0.445027 0.378742 0.948229 0.241443
N1    N     N_R   0.028921 0.383433 0.385941 -0.157788
N2    N     N_R   0.971079 0.616580 0.614057 -0.157784
N3    N     N_R   0.960202 0.377885 0.391229 -0.181285
N4    N     N_R   0.039798 0.622128 0.608769 -0.181281
N5    N     N_2   0.480680 0.456420 0.038530 -0.257782
N6    N     N_2   0.519320 0.543580 0.961470 -0.257782
O1    O     O_R   0.505010 0.286130 0.619770 -0.503560
O2    O     O_R   0.159207 0.328407 0.988648 -0.700093
O3    O     O_2   0.915146 0.490070 0.889211 -0.450047
O4    O     O_R   0.840787 0.671594 0.011356 -0.700101
O5    O     O_R   0.494990 0.713870 0.380230 -0.503560
O6    O     O_R   0.491990 0.256780 0.308370 -0.495174
O7    O     O_R   0.508010 0.743220 0.691630 -0.495174
O8    O     O_R   0.406650 0.514660 0.655750 -0.504839
O9    O     O_R   0.593350 0.485340 0.344250 -0.504839
O10   O     O_R   0.393640 0.485310 0.344340 -0.503822
O11   O     O_R   0.606360 0.514690 0.655660 -0.503822
O12   O     O_2   0.084858 0.509956 0.110788 -0.450051

loop_
_geom_bond_atom_site_label_1
_geom_bond_atom_site_label_2
_ccdc_geom_bond_type
C12   C17   S    
Cu2   O10   S    
C11   N2    A    
C2    C4    A    
Cu1   Cu2   S    
C1    O6    A    
C22   H6    S    
N5    N6    D    
C9    C20   A    
C13   N1    A    
C3    C13   S    
C18   O8    A    
C10   C19   S    
Cu1   O8    S    
C19   O11   A    
C2    C21   A    
C12   O7    A    
H12   N5    S    
C3    C5    A    
C18   O10   A    
N1    N3    A    
C1    C16   S    
C4    C11   S    
N2    N4    A    
Cu2   N5    S    
H4    O4    S    
C5    C14   S    
Cu1   N6    S    
Cu2   O9    S    
C12   O5    A    
C14   O2    S    
C14   O12   D    
C20   C22   A    
Cu1   O11   S    
C5    C7    A    
C8    H9    S    
C10   C21   A    
C11   N3    A    
Cu1   O7    S    
C4    C6    A    
C20   H1    S    
C15   O3    D    
Cu2   O6    S    
C19   O9    A    
C9    C18   S    
Cu1   O1    S    
H2    N6    S    
C8    C10   A    
C7    C9    A    
C16   C17   D    
C3    C22   A    
C6    C8    A    
C7    H8    S    
C17   H11   S    
C15   O4    S    
C16   H10   S    
C6    C15   S    
Cu2   O5    S    
C21   H5    S    
H3    O2    S    
C1    O1    A    
C2    H7    S    
C13   N4    A    
