data_mof_unit_65025.cif
_audit_creation_date              2012-12-10T19:14:01-0500
_audit_creation_method            fapswitch 2.2
_symmetry_space_group_name_H-M    P1
_symmetry_Int_Tables_number       1
_space_group_crystal_system       triclinic
_cell_length_a                    12.98188
_cell_length_b                    15.994912
_cell_length_c                    14.766971
_cell_angle_alpha                 90.059868
_cell_angle_beta                  96.468029
_cell_angle_gamma                 90.029515
_cell_volume                      3046.75382785

loop_
_atom_site_label
_atom_site_type_symbol
_atom_type_description
_atom_site_fract_x
_atom_site_fract_y
_atom_site_fract_z
_atom_type_partial_charge
C1    C     C_R   0.500086 0.340846 0.499956 0.828255
C2    C     C_R   0.499913 0.659154 0.500044 0.828256
C3    C     C_R   0.474628 0.956260 0.418351 -0.152308
C4    C     C_R   0.525372 0.043740 0.581648 -0.152308
C5    C     C_1   0.499791 0.823324 0.500087 -0.041076
C6    C     C_1   0.500209 0.176676 0.499913 -0.041076
C7    C     C_1   0.500185 0.251727 0.499907 -0.136103
C8    C     C_1   0.499815 0.748273 0.500093 -0.136104
C9    C     C_R   0.591938 0.516516 0.960987 0.243429
C10   C     C_R   0.408062 0.483484 0.039013 0.243429
C11   C     C_R   0.499948 0.500049 0.902885 -0.177550
C12   C     C_R   0.500052 0.499951 0.097115 -0.177550
C13   C     C_R   0.407917 0.483575 0.942655 0.113840
C14   C     C_R   0.592083 0.516425 0.057345 0.113840
C15   C     C_1   0.500029 0.500046 0.802630 0.314346
C16   C     C_1   0.499971 0.499954 0.197370 0.314347
C17   C     C_R   0.300084 0.503199 0.482826 0.821310
C18   C     C_R   0.699916 0.496801 0.517174 0.821310
C19   C     C_R   0.812593 0.491260 0.527483 -0.108986
C20   C     C_R   0.187406 0.508740 0.472517 -0.108985
C21   C     C_R   0.024151 0.559041 0.396329 -0.181480
C22   C     C_R   0.975849 0.440959 0.603671 -0.181480
C23   C     C_R   0.131624 0.553287 0.400264 0.161497
C24   C     C_R   0.868376 0.446713 0.599736 0.161497
C25   C     C_R   0.134932 0.471517 0.539803 -0.246419
C26   C     C_R   0.865067 0.528483 0.460197 -0.246419
C27   C     C_R   0.027875 0.478026 0.536156 0.120807
C28   C     C_R   0.972125 0.521974 0.463844 0.120807
C29   C     C_R   0.525220 0.956487 0.581700 -0.156103
C30   C     C_R   0.474780 0.043513 0.418300 -0.156103
C31   C     C_R   0.499847 0.912782 0.500051 0.140460
C32   C     C_R   0.500153 0.087218 0.499949 0.140460
Cu1   Cu    Cu3+1 0.500030 0.500000 0.589220 1.038863
Cu2   Cu    Cu3+1 0.499970 0.500000 0.410780 1.038863
H1    H     H_    0.822292 0.562599 0.404635 0.176461
H2    H     H_    0.177707 0.437401 0.595365 0.176461
H3    H     H_    0.981440 0.593598 0.341211 0.177453
H4    H     H_    0.018560 0.406402 0.658789 0.177453
H5    H     H_    0.545065 0.077229 0.645064 0.155935
H6    H     H_    0.454935 0.922771 0.354936 0.155935
H7    H     H_    0.544818 0.923175 0.645152 0.154449
H8    H     H_    0.455182 0.076825 0.354847 0.154450
N1    N     N_1   0.500030 0.499980 0.276710 -0.137744
N2    N     N_1   0.499970 0.500020 0.723290 -0.137744
O1    O     O_R   0.500050 0.380310 0.575330 -0.564024
O2    O     O_R   0.499950 0.619690 0.424670 -0.564024
O3    O     O_R   0.500000 0.380310 0.424640 -0.568839
O4    O     O_R   0.500000 0.619690 0.575360 -0.568839
O5    O     O_R   0.349020 0.499990 0.563110 -0.580490
O6    O     O_R   0.650980 0.500010 0.436890 -0.580490
O7    O     O_R   0.348970 0.499990 0.412410 -0.545250
O8    O     O_R   0.651030 0.500010 0.587590 -0.545250
I1    I     I_    0.798222 0.379769 0.701113 -0.233916
I2    I     I_    0.201778 0.620231 0.298887 -0.233916
I3    I     I_    0.731969 0.541119 0.144226 -0.238423
I4    I     I_    0.268031 0.458880 0.855774 -0.238423
Br1   Br    Br    0.717913 0.539420 0.907719 -0.378397
Br2   Br    Br    0.282087 0.460580 0.092281 -0.378397

loop_
_geom_bond_atom_site_label_1
_geom_bond_atom_site_label_2
_ccdc_geom_bond_type
C15   N2    T    
C3    C30   A    
C6    C32   S    
C9    C14   A    
C20   C23   A    
C6    C7    T    
Cu2   O2    S    
C25   C27   A    
Cu1   O1    S    
C26   C28   A    
C4    C29   A    
C4    H5    S    
C9    C11   A    
C13   I4    S    
C14   I3    S    
C17   O7    A    
C19   C24   A    
C18   O8    A    
C29   C31   A    
C2    O2    A    
Cu1   O8    S    
C3    C31   A    
C11   C13   A    
C16   N1    T    
C1    O1    A    
Cu2   O7    S    
C4    C32   A    
C10   C12   A    
C10   Br2   S    
C21   C28   A    
C12   C14   A    
C3    H6    S    
Cu1   Cu2   S    
C9    Br1   S    
C22   C27   A    
C21   C23   A    
C22   C24   A    
Cu2   O6    S    
C5    C8    T    
C20   C25   A    
C25   H2    S    
Cu1   O5    S    
C30   C32   A    
C26   H1    S    
C17   C20   S    
C21   H3    S    
C18   O6    A    
C23   I2    S    
C18   C19   S    
C17   O5    A    
C27   C28   A    
Cu1   O4    S    
C19   C26   A    
C29   H7    S    
C1    O3    A    
C2    C8    S    
Cu2   O3    S    
C2    O4    A    
C24   I1    S    
C1    C7    S    
Cu1   N2    S    
C11   C15   S    
C30   H8    S    
Cu2   N1    S    
C12   C16   S    
C5    C31   S    
C10   C13   A    
C22   H4    S    
