data_mof_unit_55262.cif
_audit_creation_date              2012-12-11T15:42:48-0500
_audit_creation_method            fapswitch 2.2
_symmetry_space_group_name_H-M    P1
_symmetry_Int_Tables_number       1
_space_group_crystal_system       triclinic
_cell_length_a                    6.947577
_cell_length_b                    14.557312
_cell_length_c                    16.178645
_cell_angle_alpha                 90.647907
_cell_angle_beta                  90.520945
_cell_angle_gamma                 89.630804
_cell_volume                      1636.0713986

loop_
_atom_site_label
_atom_site_type_symbol
_atom_type_description
_atom_site_fract_x
_atom_site_fract_y
_atom_site_fract_z
_atom_type_partial_charge
O1    O     O_R   0.505810 0.583360 0.413880 -0.539636
O2    O     O_R   0.175870 0.595480 0.585520 -0.543258
O3    O     O_R   0.005540 0.416640 0.586120 -0.541884
C1    C     C_R   0.345395 0.619012 0.613497 0.812607
O4    O     O_R   0.176100 0.594390 0.414490 -0.498242
O5    O     O_R   0.005770 0.415540 0.413870 -0.534763
C2    C     C_R   0.344406 0.618972 0.387882 0.823165
O6    O     O_R   0.505580 0.584460 0.586130 -0.516043
O7    O     O_3   0.339190 0.441320 0.500000 -0.394940
V1    V     V_3+5 0.064350 0.510890 0.500000 1.540741
O8    O     O_R   0.676050 0.404520 0.414480 -0.541483
C3    C     C_R   0.845059 0.382708 0.385364 0.773061
O9    O     O_R   0.675830 0.405610 0.585510 -0.551566
C4    C     C_R   0.847257 0.382549 0.612645 0.658212
V2    V     V_3+5 0.564340 0.489110 0.500000 1.497563
O10   O     O_3   0.839370 0.558680 0.500000 -0.348162
C5    C     C_2   0.769773 0.172451 0.756228 0.485034
C6    C     C_2   0.871626 0.185026 0.827192 -0.345853
H1    H     H_    0.931041 0.251177 0.844250 0.144829
C7    C     C_2   0.743710 0.247614 0.693603 -0.313785
C8    C     C_2   0.874159 0.314126 0.679169 0.283348
H2    H     H_    0.620859 0.243091 0.651989 0.089538
C9    C     C_R   0.004295 0.260483 0.187164 0.393705
C10   C     C_R   0.998128 0.323443 0.254338 0.292333
C11   C     C_R   0.857741 0.314033 0.316640 -0.290941
C12   C     C_R   0.733718 0.237543 0.313658 0.397018
C13   C     C_R   0.743993 0.174485 0.247574 -0.309470
H3    H     H_    0.646789 0.116546 0.246278 0.159202
C14   C     C_R   0.880473 0.184146 0.184927 -0.250294
C15   C     C_R   0.232843 0.766409 0.686223 -0.072334
C16   C     C_R   0.240847 0.825486 0.755616 -0.247730
H4    H     H_    0.143894 0.884082 0.759029 0.126095
C17   C     C_R   0.379347 0.813515 0.818221 -0.092216
C18   C     C_R   0.508663 0.739793 0.812094 -0.220208
H5    H     H_    0.613289 0.728669 0.861075 0.128791
C19   C     C_R   0.499922 0.677590 0.744885 0.429745
C20   C     C_R   0.358618 0.688882 0.681805 -0.152059
C21   C     C_R   0.190774 0.711305 0.272962 0.351836
C22   C     C_R   0.197800 0.785089 0.217219 0.386037
C23   C     C_R   0.377661 0.818144 0.190660 -0.208502
C24   C     C_R   0.539321 0.796628 0.239033 -0.319865
H6    H     H_    0.673270 0.829054 0.225712 0.197184
C25   C     C_R   0.522944 0.743733 0.310859 -0.070460
C26   C     C_R   0.353211 0.691863 0.323363 -0.195617
O11   O     O_R   0.230120 0.912300 0.917180 -0.542931
O12   O     O_R   0.559740 0.902430 0.088770 -0.543483
O13   O     O_R   0.729930 0.081310 0.089370 -0.547816
C27   C     C_R   0.391219 0.882445 0.119231 0.733444
O14   O     O_R   0.559840 0.901330 0.917750 -0.539404
O15   O     O_R   0.730030 0.080210 0.917120 -0.528378
C28   C     C_R   0.390663 0.879549 0.888666 0.707389
O16   O     O_R   0.230020 0.913400 0.089430 -0.514271
O17   O     O_3   0.396460 0.055470 0.003290 -0.370009
V3    V     V_3+5 0.671360 0.985960 0.003250 1.458792
O18   O     O_R   0.059740 0.091300 0.917690 -0.548358
C29   C     C_R   0.889318 0.112606 0.889574 0.765024
O19   O     O_R   0.059640 0.092400 0.088720 -0.519884
C30   C     C_R   0.890826 0.114913 0.117083 0.753047
V4    V     V_3+5 0.171350 0.007820 0.003190 1.475668
O20   O     O_3   0.896380 0.938200 0.003220 -0.363710
O21   O     O_3   0.707357 0.084079 0.737272 -0.555357
C31   C     C_3   0.505278 0.082502 0.730060 -0.233894
H7    H     H_    0.458086 0.108440 0.668864 0.120841
H8    H     H_    0.433828 0.120681 0.781506 0.128554
H9    H     H_    0.457675 0.010092 0.733550 0.160804
O22   O     O_3   0.616712 0.600139 0.745184 -0.560687
C32   C     C_3   0.807373 0.626076 0.727985 -0.180845
H10   H     H_    0.815631 0.663079 0.668324 0.144654
H11   H     H_    0.896894 0.563011 0.722099 0.158088
H12   H     H_    0.870178 0.668472 0.778932 0.115112
O23   O     O_3   0.020119 0.664917 0.284868 -0.551601
C33   C     C_3   0.971054 0.615284 0.212386 -0.204675
H13   H     H_    0.854206 0.566751 0.227300 0.157592
H14   H     H_    0.094586 0.573885 0.188620 0.143130
H15   H     H_    0.915191 0.661815 0.163663 0.159806
O24   O     O_3   0.027989 0.827748 0.193748 -0.549404
C34   C     C_3   0.008722 0.909739 0.241363 -0.204305
H16   H     H_    0.881234 0.948653 0.219018 0.129098
H17   H     H_    0.134069 0.956308 0.235587 0.122995
H18   H     H_    0.987922 0.894539 0.307741 0.112964
C35   C     C_2   0.674940 0.754709 0.375183 0.476362
H19   H     H_    0.817290 0.776310 0.358253 0.097228
O25   O     O_2   0.638901 0.747666 0.448558 -0.521737
O26   O     O_3   0.044309 0.319059 0.724370 -0.552544
C36   C     C_3   0.183438 0.261424 0.687240 -0.251058
H20   H     H_    0.217880 0.283231 0.623474 0.146133
H21   H     H_    0.137595 0.188376 0.686601 0.129540
H22   H     H_    0.317515 0.266452 0.724510 0.159774
O27   O     O_3   0.133319 0.273808 0.123866 -0.544875
C37   C     C_3   0.043417 0.328441 0.063126 -0.201493
H23   H     H_    0.146406 0.338726 0.012113 0.157945
H24   H     H_    0.003995 0.397456 0.088292 0.144100
H25   H     H_    0.914215 0.293986 0.036286 0.100944
O28   O     O_3   0.114762 0.400200 0.254145 -0.565302
C38   C     C_3   0.303038 0.374419 0.278129 -0.106119
H26   H     H_    0.304529 0.338831 0.338643 0.164376
H27   H     H_    0.390534 0.437500 0.285409 0.113046
H28   H     H_    0.373261 0.330647 0.230337 0.162476
O29   O     O_3   0.597980 0.224851 0.374327 -0.556612
C39   C     C_3   0.680092 0.169537 0.436514 -0.227842
H29   H     H_    0.808156 0.202874 0.465520 0.106223
H30   H     H_    0.718979 0.100186 0.411944 0.138173
H31   H     H_    0.572102 0.160237 0.485776 0.153773
C40   C     C_2   0.098054 0.792458 0.618613 0.377167
H32   H     H_    0.972201 0.834231 0.632577 0.058328
O30   O     O_2   0.130382 0.772361 0.546584 -0.516727

loop_
_geom_bond_atom_site_label_1
_geom_bond_atom_site_label_2
_ccdc_geom_bond_type
O18   C29   A    
O18   V4    S    
C13   C14   A    
C24   H6    S    
C38   H26   S    
C1    O6    A    
C40   O30   D    
C35   H19   S    
O17   V4    S    
C38   H28   S    
V3    O20   S    
C34   H16   S    
C12   C13   A    
O15   V3    S    
C9    C14   A    
C4    C8    S    
C19   C20   A    
C6    H1    S    
C36   H20   S    
C21   C22   A    
C19   O22   S    
O19   V4    S    
O11   C28   A    
V2    O10   S    
C5    C7    S    
C18   H5    S    
C31   H8    S    
C5    O21   S    
O8    V2    S    
O26   C36   S    
O29   C39   S    
O14   C28   A    
C9    C10   A    
C9    O27   S    
O1    V2    S    
O7    V1    S    
C6    C29   S    
C12   O29   S    
C34   H17   S    
O22   C32   S    
V4    O20   S    
O9    C4    A    
C24   C25   A    
O21   C31   S    
C33   H15   S    
C40   H32   S    
C35   O25   D    
C17   C18   A    
C36   H21   S    
O12   C27   A    
C16   C17   A    
C32   H10   S    
C10   C11   A    
C33   H14   S    
C22   C23   A    
O4    C2    A    
C11   C12   A    
O17   V3    S    
C39   H31   S    
O15   C29   A    
C15   C20   A    
C32   H11   S    
O2    C1    A    
C25   C26   A    
C21   C26   A    
C31   H7    S    
O16   V4    S    
C10   O28   S    
C37   H24   S    
C16   H4    S    
C8    O26   S    
C27   O16   A    
O12   V3    S    
C39   H30   S    
C5    C6    D    
C22   O24   S    
O24   C34   S    
O3    C4    A    
O13   V3    S    
C23   C24   A    
C7    H2    S    
O6    V2    S    
O9    V2    S    
C25   C35   S    
C37   H23   S    
O2    V1    S    
C14   C30   S    
C37   H25   S    
C36   H22   S    
C23   C27   S    
C21   O23   S    
O11   V4    S    
C31   H9    S    
C7    C8    D    
O1    C2    A    
C33   H13   S    
O5    V1    S    
O8    C3    A    
C38   H27   S    
C17   C28   S    
C3    C11   S    
C32   H12   S    
O7    V2    S    
O4    V1    S    
O3    V1    S    
V1    O10   S    
O13   C30   A    
O5    C3    A    
C34   H18   S    
O19   C30   A    
C15   C16   A    
C39   H29   S    
C18   C19   A    
O28   C38   S    
O23   C33   S    
C1    C20   S    
C15   C40   S    
C13   H3    S    
C2    C26   S    
O27   C37   S    
O14   V3    S    
