data_mof_unit_41975.cif
_audit_creation_date              2012-12-10T17:32:12-0500
_audit_creation_method            fapswitch 2.2
_symmetry_space_group_name_H-M    P1
_symmetry_Int_Tables_number       1
_space_group_crystal_system       triclinic
_cell_length_a                    12.346761
_cell_length_b                    13.289665
_cell_length_c                    14.959575
_cell_angle_alpha                 77.13519
_cell_angle_beta                  101.227213
_cell_angle_gamma                 117.101254
_cell_volume                      2117.93173349

loop_
_atom_site_label
_atom_site_type_symbol
_atom_type_description
_atom_site_fract_x
_atom_site_fract_y
_atom_site_fract_z
_atom_type_partial_charge
C1    C     C_R   0.854837 0.286629 0.510510 0.764876
C2    C     C_R   0.100027 0.590966 0.092113 0.088700
C3    C     C_R   0.802570 0.338344 0.047033 -0.209025
C4    C     C_R   0.801621 0.338861 0.953725 -0.206374
C5    C     C_R   0.900062 0.421171 0.906148 0.128400
C6    C     C_R   0.000518 0.504635 0.952429 0.053030
C7    C     C_R   0.099863 0.587468 0.904721 0.086528
C8    C     C_R   0.195984 0.673536 0.949366 -0.254482
C9    C     C_R   0.196024 0.678459 0.042096 0.087417
C10   C     C_R   0.899873 0.421577 0.812889 -0.250856
C11   C     C_R   0.000170 0.501868 0.766857 -0.045389
C12   C     C_R   0.999993 0.500382 0.670696 0.792731
C13   C     C_R   0.099972 0.584289 0.812114 -0.226044
C14   C     C_R   0.288469 0.988722 0.578968 -0.202602
C15   C     C_R   0.228214 0.830985 0.497690 -0.037350
C16   C     C_R   0.811000 0.109923 0.453919 -0.193285
C17   C     C_R   0.727853 0.006001 0.426212 -0.145276
C18   C     C_R   0.606077 0.958626 0.443442 -0.179747
C19   C     C_R   0.566152 0.012095 0.493557 0.080489
C20   C     C_R   0.654549 0.112641 0.528768 0.092433
C21   C     C_R   0.441913 0.969999 0.510004 0.079735
C22   C     C_R   0.410565 0.025876 0.564490 0.165513
C23   C     C_R   0.145216 0.712726 0.489074 0.783192
C24   C     C_R   0.501783 0.115093 0.607503 -0.234942
C25   C     C_R   0.622452 0.157055 0.590870 -0.206341
C26   C     C_R   0.347862 0.872629 0.476327 -0.244742
C27   C     C_R   0.197384 0.891659 0.545477 -0.199142
C28   C     C_R   0.774295 0.165868 0.502539 -0.091590
C29   C     C_R   0.354657 0.343478 0.659456 0.344329
C30   C     C_R   0.756758 0.639216 0.370871 0.087498
C31   C     C_R   0.658801 0.667680 0.341184 -0.270997
C32   C     C_R   0.556761 0.616448 0.390258 -0.193882
C33   C     C_R   0.551775 0.535508 0.470336 0.030792
C34   C     C_R   0.000361 0.500378 0.329252 0.801148
C35   C     C_R   0.654804 0.509528 0.497891 0.298331
C36   C     C_R   0.448813 0.478664 0.523717 -0.094049
C37   C     C_R   0.454263 0.402324 0.605929 0.091671
C38   C     C_R   0.558657 0.383269 0.632943 -0.243656
C39   C     C_R   0.652878 0.430845 0.577673 -0.200015
C40   C     C_R   0.340401 0.494356 0.499513 0.009582
C41   C     C_R   0.251230 0.365381 0.631258 -0.046510
C42   C     C_R   0.098437 0.586946 0.186399 -0.266365
C43   C     C_R   0.000913 0.501704 0.232688 -0.049654
C44   C     C_R   0.901973 0.420134 0.186697 -0.238258
C45   C     C_R   0.901463 0.420735 0.093523 0.122470
C46   C     C_R   0.001145 0.505275 0.046142 0.028731
Cu1   Cu    Cu3+1 0.098270 0.475420 0.521130 0.934645
Cu2   Cu    Cu3+1 0.901730 0.524580 0.478870 0.932624
H1    H     H_    0.171396 0.649765 0.225042 0.135962
H2    H     H_    0.479216 0.150891 0.655310 0.152991
H3    H     H_    0.264278 0.031874 0.619582 0.137950
H4    H     H_    0.365308 0.823330 0.437449 0.126864
H5    H     H_    0.902777 0.149268 0.433538 0.153419
H6    H     H_    0.546321 0.879954 0.417163 0.127647
H7    H     H_    0.756758 0.964020 0.387802 0.142899
H8    H     H_    0.691652 0.222675 0.628724 0.120491
H9    H     H_    0.175144 0.326802 0.672254 0.129714
H10   H     H_    0.567031 0.327952 0.696391 0.183197
H11   H     H_    0.826307 0.355711 0.223952 0.136786
H12   H     H_    0.329089 0.551792 0.439094 0.130312
H13   H     H_    0.835229 0.679278 0.332120 0.130558
H14   H     H_    0.483837 0.642119 0.364350 0.132835
H15   H     H_    0.662127 0.729199 0.279585 0.141943
H16   H     H_    0.722318 0.402269 0.599270 0.196749
H17   H     H_    0.725826 0.273636 0.082864 0.144764
H18   H     H_    0.724202 0.274663 0.918843 0.144140
H19   H     H_    0.823115 0.358512 0.776353 0.114257
H20   H     H_    0.176076 0.647035 0.774521 0.139563
H21   H     H_    0.269984 0.738893 0.911080 0.145508
H22   H     H_    0.105074 0.859108 0.563221 0.153032
N1    N     N_R   0.246280 0.438190 0.553160 -0.199860
N2    N     N_R   0.754320 0.561190 0.447410 -0.208259
O1    O     O_R   0.972510 0.318130 0.526570 -0.580402
O2    O     O_R   0.806530 0.359650 0.490890 -0.584750
O3    O     O_R   0.082980 0.479210 0.647590 -0.575151
O4    O     O_R   0.917000 0.520730 0.611900 -0.598959
O5    O     O_R   0.193470 0.640350 0.509110 -0.576253
O6    O     O_R   0.027490 0.681870 0.473430 -0.588191
O7    O     O_R   0.083000 0.479270 0.388100 -0.582853
O8    O     O_R   0.917020 0.520790 0.352410 -0.582547
O9    O     O_3   0.365717 0.272677 0.741433 -0.623575
C47   C     C_3   0.255865 0.172527 0.756368 0.034884
H23   H     H_    0.205935 0.139808 0.690704 0.126150
H24   H     H_    0.195825 0.190735 0.790608 0.152151
C48   C     C_3   0.286355 0.079569 0.820165 -0.331620
H25   H     H_    0.351290 0.064101 0.789305 0.211392
H26   H     H_    0.331060 0.108701 0.887641 0.224956
C49   C     C_3   0.171555 0.967664 0.835913 -0.921661
H27   H     H_    0.105199 0.980782 0.867065 0.259690
H28   H     H_    0.196547 0.902795 0.883618 0.255356
H29   H     H_    0.127858 0.934792 0.769650 0.256697
C50   C     C_3   0.293074 0.782839 0.082445 -0.405253
C51   C     C_3   0.397574 0.759624 0.142391 -0.336509
C52   C     C_3   0.482527 0.860600 0.192979 -0.872611
H30   H     H_    0.521639 0.940005 0.142815 0.258940
H31   H     H_    0.431643 0.873294 0.239814 0.249761
H32   H     H_    0.558772 0.844051 0.234984 0.235272
H33   H     H_    0.361495 0.681275 0.194033 0.216896
H34   H     H_    0.450819 0.746277 0.097904 0.223225
H35   H     H_    0.332945 0.854738 0.026194 0.190566
H36   H     H_    0.249891 0.813468 0.122315 0.196648

loop_
_geom_bond_atom_site_label_1
_geom_bond_atom_site_label_2
_ccdc_geom_bond_type
C16   C28   A    
C21   C26   A    
C51   C52   S    
C40   H12   S    
C40   N1    A    
Cu2   O4    S    
C19   C20   A    
C25   H8    S    
Cu1   O7    S    
O9    C47   S    
C7    C8    A    
C48   H25   S    
C2    C46   A    
C39   H16   S    
C8    H21   S    
C1    O2    A    
C36   C37   A    
C19   C21   A    
C30   C31   A    
C20   C25   A    
C44   H11   S    
C33   C36   A    
C18   C19   A    
Cu2   O6    S    
C16   H5    S    
C34   O8    A    
C38   H10   S    
Cu1   Cu2   S    
C8    C9    A    
C1    C28   S    
C14   C27   A    
C51   H34   S    
C41   N1    A    
C15   C23   S    
C21   C22   A    
C3    H17   S    
Cu2   N2    S    
C9    C50   S    
C48   H26   S    
C24   H2    S    
C38   C39   A    
Cu2   O2    S    
C36   C40   A    
C24   C25   A    
Cu1   O1    S    
C16   C17   A    
C15   C26   A    
C20   C28   A    
C52   H32   S    
C10   H19   S    
C3    C45   A    
C35   C39   A    
C43   C44   A    
C29   O9    S    
C37   C38   A    
C26   H4    S    
C34   O7    A    
C15   C27   A    
C14   H3    S    
C49   H29   S    
C17   C18   A    
C23   O5    A    
C52   H31   S    
Cu1   N1    S    
C27   H22   S    
C50   H36   S    
C49   H28   S    
C35   N2    A    
C47   H24   S    
C12   O4    A    
C22   C24   A    
C12   O3    A    
C42   C43   A    
Cu1   O5    S    
C3    C4    A    
C47   C48   S    
C44   C45   A    
C50   H35   S    
C48   C49   S    
C17   H7    S    
C6    C46   A    
C29   C41   A    
C31   C32   A    
C34   C43   S    
C4    C5    A    
C30   N2    A    
C11   C12   S    
C6    C7    A    
C31   H15   S    
C1    O1    A    
C32   C33   A    
Cu2   O8    S    
C41   H9    S    
C5    C10   A    
C4    H18   S    
C11   C13   A    
C14   C22   A    
C5    C6    A    
C2    C42   A    
C50   C51   S    
C33   C35   A    
C23   O6    A    
C52   H30   S    
C10   C11   A    
C18   H6    S    
C42   H1    S    
Cu1   O3    S    
C45   C46   A    
C7    C13   A    
C49   H27   S    
C47   H23   S    
C30   H13   S    
C29   C37   A    
C32   H14   S    
C2    C9    A    
C51   H33   S    
C13   H20   S    
