data_mof_unit_65299.cif
_audit_creation_date              2013-03-05T15:44:19-0500
_audit_creation_method            fapswitch 2.2
_symmetry_space_group_name_H-M    P1
_symmetry_Int_Tables_number       1
_space_group_crystal_system       triclinic
_cell_length_a                    21.82149
_cell_length_b                    21.788458
_cell_length_c                    21.849457
_cell_angle_alpha                 119.127483
_cell_angle_beta                  118.528176
_cell_angle_gamma                 89.765443
_cell_volume                      7611.73310739

loop_
_atom_site_label
_atom_site_type_symbol
_atom_site_description
_atom_site_fract_x
_atom_site_fract_y
_atom_site_fract_z
_atom_type_partial_charge
O1    O     O_R   0.447780 0.090160 0.499990 -0.564426
O2    O     O_R   0.552220 0.909840 0.500010 -0.566642
O3    O     O_R   0.552200 0.090180 0.499980 -0.569903
O4    O     O_R   0.447800 0.909820 0.500020 -0.559510
C1    C     C_R   0.499015 0.117677 0.498520 0.776491
C2    C     C_R   0.500431 0.881813 0.500262 0.779913
O5    O     O_R   0.508070 0.060270 0.620570 -0.551021
O6    O     O_R   0.491930 0.939730 0.379430 -0.559005
O7    O     O_R   0.612490 0.060290 0.620560 -0.563729
O8    O     O_R   0.387510 0.939710 0.379440 -0.556878
C3    C     C_R   0.578671 0.080209 0.659584 0.768690
C4    C     C_R   0.421080 0.920355 0.340347 0.765705
Cu1   Cu    Cu3+1 0.438180 0.999990 0.500010 1.109787
Cu2   Cu    Cu3+1 0.561820 0.000010 0.499990 1.094844
C5    C     C_R   0.762199 0.628296 0.643788 0.289536
C6    C     C_R   0.248286 0.494549 0.363356 0.297592
C7    C     C_R   0.682639 0.477303 0.422131 0.296787
C8    C     C_R   0.313092 0.520421 0.570507 0.284954
C9    C     C_R   0.684736 0.519221 0.497129 -0.164705
C10   C     C_R   0.314468 0.510297 0.502304 -0.192986
C11   C     C_R   0.816092 0.542364 0.578103 -0.069092
C12   C     C_R   0.181824 0.487134 0.423571 -0.047263
C13   C     C_3   0.651931 0.252733 0.955986 0.457282
C14   C     C_3   0.346421 0.768864 0.043601 0.465385
C15   C     C_3   0.762778 0.275467 0.944481 0.269049
C16   C     C_3   0.244648 0.720603 0.053454 0.262917
C17   C     C_3   0.818118 0.317280 0.042860 -0.041476
C18   C     C_3   0.185577 0.680977 0.957192 -0.032783
H1    H     H_    0.718477 0.367912 0.069274 0.255956
H2    H     H_    0.293568 0.652522 0.930761 0.267849
H3    H     H_    0.866398 0.297169 0.053441 0.208878
H4    H     H_    0.136147 0.697986 0.950721 0.205575
C19   C     C_1   0.872356 0.377894 0.250699 -0.046623
C20   C     C_1   0.126400 0.623286 0.749117 -0.055778
C21   C     C_3   0.698265 0.212502 0.916478 -0.299054
C22   C     C_3   0.297269 0.793757 0.083093 -0.309309
C23   C     C_3   0.709316 0.310659 0.053218 -0.501309
C24   C     C_3   0.291482 0.708845 0.946486 -0.493976
C25   C     C_3   0.785250 0.296980 0.082757 -0.135103
C26   C     C_3   0.210900 0.708703 0.916668 -0.131951
C27   C     C_3   0.773483 0.213734 0.051171 0.031505
C28   C     C_3   0.210189 0.790602 0.948941 0.024028
C29   C     C_3   0.731961 0.162207 0.952255 0.362111
C30   C     C_3   0.249368 0.839413 0.048300 0.368698
C31   C     C_1   0.832298 0.342363 0.175486 0.149323
C32   C     C_1   0.165016 0.661155 0.824330 0.152778
C33   C     C_1   0.653541 0.165181 0.824031 0.252978
C34   C     C_1   0.342574 0.839386 0.175574 0.244637
C35   C     C_1   0.619731 0.126322 0.748852 0.012230
C36   C     C_1   0.378558 0.876324 0.250899 0.015555
H5    H     H_    0.736544 0.203866 0.069191 0.190920
H6    H     H_    0.243790 0.809501 0.932506 0.190498
H7    H     H_    0.689569 0.312117 0.092095 0.245824
H8    H     H_    0.306803 0.715581 0.907939 0.238213
H9    H     H_    0.509787 0.246678 0.614781 0.187055
H10   H     H_    0.451722 0.746760 0.370053 0.178809
C37   C     C_R   0.475546 0.115343 0.355050 -0.167251
C38   C     C_R   0.578848 0.888494 0.655530 -0.176843
H11   H     H_    0.460201 0.062456 0.344877 0.169555
H12   H     H_    0.594782 0.937754 0.659186 0.166765
C39   C     C_R   0.476491 0.116202 0.292303 -0.122981
C40   C     C_R   0.608886 0.891322 0.729464 -0.108128
H13   H     H_    0.461283 0.064497 0.235349 0.248194
H14   H     H_    0.649194 0.941050 0.787843 0.254198
C41   C     C_R   0.501395 0.182939 0.305080 0.303782
C42   C     C_R   0.584613 0.831491 0.728537 0.304870
C43   C     C_R   0.522644 0.249185 0.380961 0.095504
C44   C     C_R   0.533472 0.766681 0.651199 0.142614
C45   C     C_R   0.506646 0.249223 0.436624 -0.023462
C46   C     C_R   0.518903 0.757132 0.575836 -0.022782
C47   C     C_R   0.492445 0.181723 0.428653 0.051118
C48   C     C_R   0.533136 0.821491 0.578038 0.041415
C49   C     C_R   0.496897 0.182414 0.495236 -0.084053
C50   C     C_R   0.502386 0.816763 0.502518 -0.075141
C51   C     C_R   0.506101 0.247142 0.563732 -0.184633
C52   C     C_R   0.471890 0.749072 0.427355 -0.196386
C53   C     C_R   0.510623 0.312515 0.567643 0.165048
C54   C     C_R   0.471490 0.684643 0.425582 0.218980
C55   C     C_R   0.509155 0.314358 0.502990 -0.144743
C56   C     C_R   0.492941 0.687019 0.499490 -0.097842
C57   C     C_R   0.748096 0.471209 0.425329 0.072315
C58   C     C_R   0.247621 0.517346 0.567125 0.081054
C59   C     C_R   0.814891 0.501202 0.502935 -0.115893
C60   C     C_R   0.181938 0.499245 0.493742 -0.135477
O9    O     O_R   0.910000 0.552200 0.500000 -0.565135
O10   O     O_R   0.090000 0.447800 0.500000 -0.562976
O11   O     O_R   0.909970 0.447830 0.500020 -0.551261
O12   O     O_R   0.090030 0.552170 0.499980 -0.556369
C61   C     C_R   0.882986 0.501830 0.503958 0.824719
C62   C     C_R   0.115438 0.497328 0.494021 0.825144
O13   O     O_R   0.939920 0.491910 0.379430 -0.559003
O14   O     O_R   0.060080 0.508090 0.620570 -0.554424
O15   O     O_R   0.939890 0.387530 0.379440 -0.555353
O16   O     O_R   0.060110 0.612470 0.620560 -0.561161
C63   C     C_R   0.919965 0.420710 0.340201 0.805077
C64   C     C_R   0.080072 0.579392 0.659699 0.807966
Cu3   Cu    Cu3+1 0.000200 0.561800 0.499990 1.106077
Cu4   Cu    Cu3+1 0.999800 0.438200 0.500010 1.115203
O17   O     O_R   0.625100 0.534890 0.569750 -0.569052
O18   O     O_R   0.374900 0.465110 0.430250 -0.587699
O19   O     O_R   0.555310 0.465120 0.430190 -0.533331
O20   O     O_R   0.444690 0.534880 0.569810 -0.535169
C65   C     C_R   0.617954 0.508843 0.498702 0.853015
C66   C     C_R   0.381232 0.503239 0.501109 0.838819
O21   O     O_R   0.534910 0.444720 0.569790 -0.560414
O22   O     O_R   0.465090 0.555280 0.430210 -0.540101
O23   O     O_R   0.465120 0.374940 0.430230 -0.570067
O24   O     O_R   0.534880 0.625060 0.569770 -0.551880
C67   C     C_R   0.503184 0.380980 0.500863 0.807801
C68   C     C_R   0.497217 0.619290 0.499539 0.857840
Cu5   Cu    Cu3+1 0.541330 0.541310 0.582630 1.183245
Cu6   Cu    Cu3+1 0.458670 0.458690 0.417370 1.168842
C69   C     C_R   0.753552 0.563567 0.573005 -0.092342
C70   C     C_R   0.249140 0.498065 0.430565 -0.079090
C71   C     C_R   0.875421 0.562634 0.658089 0.066198
C72   C     C_R   0.117233 0.461487 0.344743 0.056605
C73   C     C_R   0.879873 0.619791 0.730540 0.126653
C74   C     C_R   0.121010 0.425970 0.273751 0.115975
C75   C     C_R   0.827141 0.657757 0.722650 0.072367
C76   C     C_R   0.186485 0.446748 0.281981 0.080072
I1    I     I_    0.846912 0.760405 0.829226 0.051922
I2    I     I_    0.189485 0.407172 0.172771 -0.017006
N1    N     N_R   0.779616 0.128341 0.922995 0.150368
O25   O     O_R   0.749972 0.073208 0.845851 -0.320318
O26   O     O_R   0.850497 0.149727 0.971720 -0.245801
N2    N     N_R   0.196923 0.855755 0.075048 0.152488
O27   O     O_R   0.221042 0.904506 0.153073 -0.270495
O28   O     O_R   0.126732 0.824466 0.023514 -0.261761
N3    N     N_R   0.598205 0.198412 0.942545 0.155565
O29   O     O_R   0.602208 0.199100 0.004294 -0.279588
O30   O     O_R   0.541421 0.152081 0.867735 -0.214372
N4    N     N_R   0.388650 0.833122 0.058578 0.151176
O31   O     O_R   0.381934 0.836141 0.997677 -0.281821
O32   O     O_R   0.440086 0.884799 0.134599 -0.258970
N5    N     N_R   0.838917 0.195752 0.095831 0.185917
O33   O     O_R   0.904672 0.239041 0.138660 -0.303036
O34   O     O_R   0.831158 0.135178 0.093194 -0.202250
N6    N     N_R   0.138804 0.800422 0.904079 0.186766
O35   O     O_R   0.077957 0.747438 0.854855 -0.319791
O36   O     O_R   0.136222 0.863769 0.913068 -0.209186
N7    N     N_R   0.507985 0.182936 0.242674 0.162632
O37   O     O_R   0.512941 0.124631 0.188123 -0.240061
O38   O     O_R   0.500337 0.237902 0.233831 -0.228639
N8    N     N_R   0.610632 0.837481 0.805953 0.159985
O39   O     O_R   0.637020 0.901765 0.875190 -0.217687
O40   O     O_R   0.615997 0.779554 0.809337 -0.250430
I3    I     I_    0.616471 0.330643 0.432447 -0.191247
I4    I     I_    0.453528 0.709103 0.649746 -0.029636
N9    N     N_R   0.709101 0.668023 0.633567 0.131899
O41   O     O_R   0.679988 0.675050 0.570505 -0.362336
O42   O     O_R   0.686487 0.693658 0.684099 -0.305020
N10   N     N_R   0.302798 0.548230 0.380688 0.133355
O43   O     O_R   0.331409 0.613655 0.448742 -0.371851
O44   O     O_R   0.316399 0.536899 0.324951 -0.304883
I5    I     I_    0.520076 0.403658 0.675674 -0.024186
I6    I     I_    0.444256 0.590875 0.308149 0.029935
N11   N     N_R   0.614962 0.445390 0.342851 0.158614
O45   O     O_R   0.576813 0.487176 0.325578 -0.284543
O46   O     O_R   0.591535 0.374878 0.287504 -0.221533
N12   N     N_R   0.377246 0.529469 0.641884 0.147312
O47   O     O_R   0.382448 0.475393 0.652356 -0.290576
O48   O     O_R   0.422278 0.594896 0.703669 -0.248599
I7    I     I_    0.744449 0.416696 0.311267 -0.151351
I8    I     I_    0.250556 0.541464 0.676207 -0.128871
I9    I     I_    0.941411 0.491611 0.670469 -0.175328
I10   I     I_    0.045759 0.527132 0.334389 -0.164200
I11   I     I_    0.962892 0.646849 0.852262 -0.067673
I12   I     I_    0.025844 0.349293 0.155559 -0.100940
N13   N     N_R   0.609127 0.290650 0.916759 0.185349
O49   O     O_R   0.556498 0.252501 0.838052 -0.252053
O50   O     O_R   0.614341 0.359768 0.961199 -0.258989
N14   N     N_R   0.400844 0.736236 0.080402 0.193186
O51   O     O_R   0.443690 0.769734 0.161094 -0.271222
O52   O     O_R   0.421573 0.687753 0.035399 -0.235048
I13   I     I_    0.824173 0.234395 0.885230 -0.028559
I14   I     I_    0.185272 0.738195 0.115104 -0.038487
N15   N     N_R   0.733678 0.325234 0.916497 0.172971
O53   O     O_R   0.674163 0.297364 0.843255 -0.303165
O54   O     O_R   0.779032 0.382978 0.941357 -0.242936
N16   N     N_R   0.288413 0.673793 0.074856 0.173058
O55   O     O_R   0.293975 0.616227 0.020265 -0.263306
O56   O     O_R   0.327231 0.693184 0.152277 -0.294739
I15   I     I_    0.866290 0.436869 0.115524 -0.079968
I16   I     I_    0.136998 0.562617 0.887283 -0.067222
N17   N     N_R   0.674044 0.099978 0.921972 0.159513
O57   O     O_R   0.684476 0.073733 0.967317 -0.213565
O58   O     O_R   0.621531 0.059061 0.843487 -0.328784
N18   N     N_R   0.296206 0.911906 0.083062 0.171504
O59   O     O_R   0.337054 0.959570 0.163434 -0.329841
O60   O     O_R   0.287920 0.935037 0.035497 -0.238066

loop_
_geom_bond_atom_site_label_1
_geom_bond_atom_site_label_2
_geom_bond_distance
_ccdc_geom_bond_type
C38   C40   1.391056 A    
C42   C44   1.408380 A    
N2    O27   1.302428 A    
H10   C52   1.084553 S    
C55   C67   1.478038 S    
C28   N6    1.475159 S    
C57   I7    2.134901 S    
N13   O49   1.302682 A    
O17   C65   1.291524 A    
Cu5   Cu6   2.647603 S    
O18   C66   1.284805 A    
C11   C71   1.420406 A    
C21   C33   1.481014 S    
Cu3   Cu4   2.693318 S    
O14   Cu4   1.946717 S    
N1    O25   1.302422 A    
C33   C35   1.205400 T    
N10   O44   1.297729 A    
O22   Cu6   1.979275 S    
N16   O55   1.300476 A    
O19   Cu6   1.986261 S    
O5    C3    1.295934 A    
C30   N2    1.486945 S    
C14   C22   1.616433 S    
C60   C62   1.454906 S    
O1    C1    1.291899 A    
C52   C54   1.385317 A    
C24   C26   1.555745 S    
C5    N9    1.440285 S    
C20   C64   1.433899 S    
C73   C75   1.406997 A    
O20   C66   1.288788 A    
C15   N15   1.490572 S    
N17   O58   1.300645 A    
C16   N16   1.483484 S    
C42   N8    1.438378 S    
C29   N17   1.488400 S    
C38   H12   1.082729 S    
O14   C64   1.300413 A    
C19   C31   1.207865 T    
C13   N3    1.485149 S    
N18   O60   1.302473 A    
O23   Cu6   1.971770 S    
C74   I12   2.116237 S    
O4    Cu1   1.975088 S    
C45   C47   1.411445 A    
C14   N4    1.480858 S    
C40   H14   1.079519 S    
N1    O26   1.301146 A    
C7    C9    1.411837 A    
C9    C65   1.494687 S    
N11   O45   1.300971 A    
C11   C59   1.423935 A    
C76   I2    2.141817 S    
N4    O31   1.302043 A    
N15   O54   1.299596 A    
C24   H8    1.110123 S    
C14   C24   1.591064 S    
C5    C75   1.409836 A    
C5    C69   1.420069 A    
C20   C32   1.206006 T    
C71   I9    2.135102 S    
C7    N11   1.434365 S    
C27   C29   1.590018 S    
C8    C10   1.411702 A    
O12   Cu3   1.970662 S    
C44   I4    2.131749 S    
C25   C31   1.485891 S    
O11   Cu4   1.970658 S    
H9    C51   1.084418 S    
C26   C28   1.570666 S    
O21   Cu5   1.979278 S    
O19   C65   1.298012 A    
Cu1   Cu2   2.698219 S    
C49   C51   1.389092 A    
C72   I10   2.118786 S    
O20   Cu5   1.986262 S    
O2    C2    1.290331 A    
C14   N14   1.483169 S    
C28   C30   1.600599 S    
O10   Cu4   1.980349 S    
C19   C63   1.437089 S    
C18   H4    1.105820 S    
C57   C59   1.412473 A    
N14   O52   1.302730 A    
C2    C50   1.441743 S    
C74   C76   1.399753 A    
C53   C55   1.417807 A    
C59   C61   1.475395 S    
C40   C42   1.396457 A    
C17   H3    1.103463 S    
N5    O33   1.301326 A    
O9    Cu3   1.980348 S    
C48   C50   1.400380 A    
O10   C62   1.304271 A    
C17   C25   1.563699 S    
C47   C49   1.403508 A    
O9    C61   1.306074 A    
N2    O28   1.300980 A    
O16   Cu3   1.938751 S    
C71   C73   1.414625 A    
C13   C23   1.592457 S    
C46   C56   1.435598 A    
O13   Cu3   1.946718 S    
N18   O59   1.301486 A    
C43   C45   1.416187 A    
N7    O38   1.300891 A    
N12   O48   1.300432 A    
N11   O46   1.300520 A    
C26   C32   1.480016 S    
O7    Cu2   1.936192 S    
C3    C35   1.430698 S    
N8    O40   1.301366 A    
C41   N7    1.437749 S    
C15   I13   2.188790 S    
C13   N13   1.485904 S    
C16   I14   2.191015 S    
O6    C4    1.300408 A    
O17   Cu5   1.972630 S    
C39   H13   1.082434 S    
C54   C56   1.423470 A    
C6    N10   1.440927 S    
C45   C55   1.428690 A    
C37   C47   1.409846 A    
O16   C64   1.296956 A    
C34   C36   1.205936 T    
O7    C3    1.303125 A    
C75   I1    2.142186 S    
O8    C4    1.299425 A    
C15   C21   1.616870 S    
N4    O32   1.302089 A    
C10   C66   1.475613 S    
C11   C69   1.409976 A    
C30   N18   1.490015 S    
O18   Cu6   1.972627 S    
C58   C60   1.405212 A    
O11   C61   1.297167 A    
C43   I3    2.119831 S    
C22   C30   1.621352 S    
O4    C2    1.297324 A    
O1    Cu1   1.976887 S    
C50   C52   1.386123 A    
H1    C23   1.108244 S    
C29   N1    1.484621 S    
C27   N5    1.476886 S    
C21   C29   1.622005 S    
N14   O51   1.301400 A    
N3    O29   1.302269 A    
O22   C68   1.291580 A    
C16   C22   1.605686 S    
N5    O34   1.300923 A    
O21   C67   1.285291 A    
O6    Cu2   1.949570 S    
N16   O56   1.302325 A    
C6    C76   1.408239 A    
O12   C62   1.290071 A    
N8    O39   1.301423 A    
O3    C1    1.297861 A    
O8    Cu1   1.936193 S    
C6    C70   1.423741 A    
C4    C36   1.432069 S    
O24   C68   1.286220 A    
C9    C69   1.418286 A    
C37   C39   1.390088 A    
N6    O36   1.301087 A    
O3    Cu2   1.975089 S    
C12   C60   1.422272 A    
C15   C17   1.591183 S    
C12   C70   1.410994 A    
C16   C18   1.575560 S    
C41   C43   1.410221 A    
O24   Cu5   1.971767 S    
N12   O47   1.300008 A    
N9    O42   1.300913 A    
C18   I16   2.179101 S    
C23   H7    1.109726 S    
C23   C25   1.553285 S    
C8    N12   1.431227 S    
N9    O41   1.301536 A    
C53   I5    2.129042 S    
C10   C70   1.422045 A    
C38   C48   1.409043 A    
N17   O57   1.302125 A    
O23   C67   1.291404 A    
C58   I8    2.143817 S    
C73   I11   2.140771 S    
C12   C72   1.419867 A    
C8    C58   1.395065 A    
C72   C74   1.401674 A    
C22   C34   1.480891 S    
C7    C57   1.405283 A    
C1    C49   1.446266 S    
O2    Cu2   1.976887 S    
C13   C21   1.620381 S    
C17   I15   2.194560 S    
C37   H11   1.082629 S    
N6    O35   1.300859 A    
O13   C63   1.298258 A    
C39   C41   1.397881 A    
O5    Cu1   1.949569 S    
N10   O43   1.299963 A    
C25   C27   1.564632 S    
O15   C63   1.300574 A    
N15   O53   1.300624 A    
C51   C53   1.385816 A    
C56   C68   1.478773 S    
C54   I6    2.135648 S    
C44   C46   1.422243 A    
C18   C26   1.563661 S    
C46   C48   1.410254 A    
H2    C24   1.109117 S    
N7    O37   1.301581 A    
O15   Cu4   1.938751 S    
C27   H5    1.112645 S    
C28   H6    1.110859 S    
N3    O30   1.302112 A    
N13   O50   1.302322 A    
