data_mof_unit_48405.cif
_audit_creation_date              2012-12-11T14:43:39-0500
_audit_creation_method            fapswitch 2.2
_symmetry_space_group_name_H-M    P1
_symmetry_Int_Tables_number       1
_space_group_crystal_system       triclinic
_cell_length_a                    20.642969
_cell_length_b                    7.133142
_cell_length_c                    16.647845
_cell_angle_alpha                 90.296325
_cell_angle_beta                  92.812444
_cell_angle_gamma                 90.032805
_cell_volume                      2448.39608075

loop_
_atom_site_label
_atom_site_type_symbol
_atom_type_description
_atom_site_fract_x
_atom_site_fract_y
_atom_site_fract_z
_atom_type_partial_charge
O1    O     O_R   0.564840 0.505290 0.579830 -0.537472
O2    O     O_R   0.435160 0.005290 0.420170 -0.530294
O3    O     O_R   0.556720 0.179930 0.409350 -0.522071
O4    O     O_R   0.443280 0.679930 0.590650 -0.531501
C1    C     C_R   0.570878 0.345211 0.382139 0.740858
C2    C     C_R   0.431047 0.845821 0.619821 0.747938
O5    O     O_R   0.572280 0.175810 0.578530 -0.534814
O6    O     O_R   0.427720 0.675810 0.421470 -0.537744
O7    O     O_R   0.450830 0.001920 0.590540 -0.531028
O8    O     O_R   0.549170 0.501920 0.409460 -0.537923
C3    C     C_R   0.589710 0.344519 0.604719 0.751208
C4    C     C_R   0.410638 0.843862 0.394566 0.769649
O9    O     O_3   0.460130 0.338030 0.503750 -0.372921
O10   O     O_3   0.539870 0.838030 0.496250 -0.372040
V1    V     V_3+5 0.507400 0.064560 0.499310 1.542137
V2    V     V_3+5 0.492600 0.564560 0.500690 1.523851
C5    C     C_R   0.142631 0.910171 0.168002 -0.197689
C6    C     C_R   0.859414 0.406411 0.827733 -0.183655
C7    C     C_R   0.359962 0.855263 0.328089 -0.142141
C8    C     C_R   0.641315 0.357567 0.669571 -0.140214
C9    C     C_R   0.324911 0.956318 0.192330 0.392211
C10   C     C_R   0.679246 0.477917 0.801384 0.381840
C11   C     C_R   0.375102 0.922392 0.252018 0.046762
C12   C     C_R   0.627738 0.430892 0.745289 0.048731
C13   C     C_R   0.295691 0.809426 0.342309 -0.165703
C14   C     C_R   0.704683 0.303017 0.654890 -0.176818
C15   C     C_R   0.244566 0.842989 0.284510 -0.059652
C16   C     C_R   0.756209 0.333150 0.712594 -0.048386
C17   C     C_R   0.258928 0.920872 0.208877 -0.028704
C18   C     C_R   0.744480 0.437230 0.783386 -0.042917
C19   C     C_R   0.206770 0.956353 0.151120 0.311326
C20   C     C_R   0.798130 0.488065 0.836662 0.349383
C21   C     C_R   0.128564 0.844316 0.244487 0.085708
C22   C     C_R   0.870187 0.299756 0.758134 0.088731
C23   C     C_R   0.179225 0.804241 0.301691 0.203287
C24   C     C_R   0.819142 0.262926 0.700645 0.189753
H1    H     H_    0.286334 0.751212 0.400126 0.179299
H2    H     H_    0.713030 0.240112 0.597215 0.176685
C25   C     C_R   0.384141 0.946807 0.833487 0.259151
C26   C     C_R   0.615303 0.456599 0.170458 0.246587
C27   C     C_R   0.391843 0.862667 0.691792 -0.210772
C28   C     C_R   0.609069 0.360280 0.309720 -0.203071
C29   C     C_R   0.084551 0.777517 0.747461 0.139979
C30   C     C_R   0.922858 0.385300 0.265759 0.121686
C31   C     C_R   0.125138 0.687250 0.694508 0.226484
C32   C     C_R   0.888310 0.401744 0.336060 0.230930
C33   C     C_R   0.190916 0.723730 0.698461 -0.150129
C34   C     C_R   0.820831 0.414980 0.331287 -0.161495
C35   C     C_R   0.218082 0.861202 0.750086 0.072800
C36   C     C_R   0.785450 0.402582 0.257239 0.068020
C37   C     C_R   0.178693 0.949812 0.807246 -0.036282
C38   C     C_R   0.820563 0.410578 0.185628 -0.049008
C39   C     C_R   0.285726 0.897401 0.750654 0.002695
C40   C     C_R   0.715785 0.394247 0.251609 0.015272
C41   C     C_R   0.316183 0.971933 0.821312 -0.131713
C42   C     C_R   0.683778 0.451983 0.178222 -0.143127
C43   C     C_R   0.278125 0.086422 0.870784 0.213522
C44   C     C_R   0.721401 0.495917 0.112957 0.240395
C45   C     C_R   0.209438 0.088123 0.857660 0.122781
C46   C     C_R   0.784783 0.430591 0.112296 0.102934
C47   C     C_R   0.323641 0.867764 0.682722 0.065416
C48   C     C_R   0.676876 0.330401 0.314685 0.069585
C49   C     C_R   0.422090 0.896610 0.768818 0.322838
C50   C     C_R   0.578347 0.423436 0.236990 0.328325
C51   C     C_R   0.111046 0.898058 0.809013 -0.134025
C52   C     C_R   0.889841 0.403399 0.189986 -0.150150
H3    H     H_    0.221323 0.638962 0.661624 0.174739
H4    H     H_    0.796497 0.440943 0.386172 0.175041
O11   O     O_R   0.950790 0.256670 0.090520 -0.527708
O12   O     O_R   0.049210 0.756670 0.909480 -0.533454
O13   O     O_R   0.927720 0.590370 0.921470 -0.514877
O14   O     O_R   0.072280 0.090370 0.078530 -0.526783
C53   C     C_R   0.911338 0.421336 0.893474 0.821513
C54   C     C_R   0.090071 0.921778 0.104154 0.803226
O15   O     O_R   0.943270 0.586180 0.090640 -0.531674
O16   O     O_R   0.056730 0.086180 0.909360 -0.520226
O17   O     O_R   0.064850 0.759970 0.079840 -0.539088
O18   O     O_R   0.935150 0.259970 0.920160 -0.533349
C55   C     C_R   0.929167 0.416955 0.117686 0.763439
C56   C     C_R   0.071519 0.917090 0.882171 0.760633
O19   O     O_3   0.039850 0.428050 0.996240 -0.369094
O20   O     O_3   0.960150 0.928050 0.003760 -0.367578
V3    V     V_3+5 0.992610 0.701540 0.000700 1.601764
V4    V     V_3+5 0.007390 0.201540 0.999300 1.597787
O21   O     O_3   0.216850 0.035579 0.077603 -0.608951
H5    H     H_    0.236594 0.160135 0.089237 0.340883
O22   O     O_3   0.792416 0.617419 0.897570 -0.596456
H6    H     H_    0.765111 0.721277 0.875653 0.341524
I1    I     I_    0.281198 0.912704 0.564571 -0.358835
I2    I     I_    0.713081 0.140937 0.406056 -0.360242
I3    I     I_    0.982834 0.722199 0.735184 -0.226363
I4    I     I_    0.024967 0.331901 0.273750 -0.236632
I5    I     I_    0.093206 0.476209 0.611402 -0.120801
I6    I     I_    0.934763 0.414772 0.452429 -0.095669
I7    I     I_    0.160889 0.349067 0.875597 -0.293955
I8    I     I_    0.798412 0.235120 0.019086 -0.257931
I9    I     I_    0.028913 0.828295 0.274726 -0.232298
I10   I     I_    0.966725 0.216928 0.735369 -0.211640
O23   O     O_3   0.339485 0.017261 0.116825 -0.597618
H7    H     H_    0.380507 0.088879 0.120588 0.345768
O24   O     O_3   0.666667 0.547782 0.876441 -0.596385
H8    H     H_    0.624071 0.611214 0.873952 0.349189
I11   I     I_    0.155227 0.676269 0.412211 -0.185152
I12   I     I_    0.836362 0.080036 0.601149 -0.219193
I13   I     I_    0.475279 0.949198 0.225340 -0.272106
I14   I     I_    0.528778 0.435854 0.778395 -0.274933
O25   O     O_3   0.488701 0.892456 0.783021 -0.599990
H9    H     H_    0.510531 0.858314 0.733500 0.293704
O26   O     O_3   0.511813 0.446353 0.226880 -0.600862
H10   H     H_    0.489563 0.395072 0.273178 0.297371
I15   I     I_    0.323731 0.307877 0.941447 -0.218442
I16   I     I_    0.705655 0.754005 0.052399 -0.199715
I17   I     I_    0.430979 0.924238 0.950437 -0.075403
I18   I     I_    0.562571 0.472002 0.056523 -0.078476

loop_
_geom_bond_atom_site_label_1
_geom_bond_atom_site_label_2
_ccdc_geom_bond_type
C1    C28   S    
O24   H8    S    
C19   O21   S    
C15   C17   A    
C26   C42   A    
C30   C52   A    
O1    C3    A    
C27   C47   A    
O22   H6    S    
C31   I5    S    
O16   V4    S    
C2    O7    A    
C6    C20   A    
C38   C52   A    
C33   C35   A    
O21   H5    S    
O5    C3    A    
C52   C55   S    
C36   C40   A    
C10   O24   S    
C45   I7    S    
C44   I16   S    
C25   I17   S    
C34   C36   A    
C23   I11   S    
C9    O23   S    
C43   C45   A    
O17   V3    S    
C44   C46   A    
C11   I13   S    
C37   C51   A    
C31   C33   A    
C26   I18   S    
C38   C46   A    
C22   I10   S    
C39   C47   A    
C25   C41   A    
C8    C12   A    
C47   I1    S    
C35   C37   A    
C54   O17   A    
C36   C38   A    
C53   O18   A    
C28   C48   A    
C21   I9    S    
C30   I4    S    
C29   C51   A    
C13   H1    S    
O5    V1    S    
O2    C4    A    
O6    V2    S    
C51   C56   S    
C5    C21   A    
C33   H3    S    
O19   V3    S    
C30   C32   A    
O13   V3    S    
C39   C41   A    
C40   C42   A    
C3    C8    S    
O12   C56   A    
O4    C2    A    
O13   C53   A    
C14   H2    S    
C40   C48   A    
C15   C23   A    
C20   O22   S    
C9    C17   A    
C2    C27   S    
C29   I3    S    
O4    V2    S    
C7    C11   A    
O12   V3    S    
C29   C31   A    
O23   H7    S    
C32   I6    S    
O6    C4    A    
O1    V2    S    
C34   H4    S    
O2    V1    S    
C6    C22   A    
O14   V4    S    
C46   I8    S    
O14   C54   A    
C6    C53   S    
O20   V4    S    
C41   C43   A    
C5    C54   S    
C5    C19   A    
C10   C12   A    
O11   C55   A    
C12   I14   S    
C27   C49   A    
O25   H9    S    
C49   O25   S    
C28   C50   A    
O19   V4    S    
O3    V1    S    
C10   C18   A    
O16   C56   A    
O3    C1    A    
C13   C15   A    
C25   C49   A    
C14   C16   A    
C26   C50   A    
C24   I12   S    
C9    C11   A    
O7    V1    S    
C1    O8    A    
C17   C19   A    
O11   V4    S    
O8    V2    S    
O26   H10   S    
C18   C20   A    
O15   V3    S    
C50   O26   S    
C43   I15   S    
C8    C14   A    
C35   C39   A    
C48   I2    S    
C4    C7    S    
C16   C18   A    
C21   C23   A    
C42   C44   A    
C22   C24   A    
C7    C13   A    
C32   C34   A    
O18   V4    S    
C37   C45   A    
C16   C24   A    
O20   V3    S    
O9    V2    S    
O10   V1    S    
O15   C55   A    
