data_mof_unit_6440.cif
_audit_creation_date              2012-12-10T20:32:47-0500
_audit_creation_method            fapswitch 2.2
_symmetry_space_group_name_H-M    P1
_symmetry_Int_Tables_number       1
_space_group_crystal_system       triclinic
_cell_length_a                    11.493151
_cell_length_b                    10.658498
_cell_length_c                    9.93839
_cell_angle_alpha                 90.383239
_cell_angle_beta                  89.372498
_cell_angle_gamma                 89.543575
_cell_volume                      1217.31046965

loop_
_atom_site_label
_atom_site_type_symbol
_atom_type_description
_atom_site_fract_x
_atom_site_fract_y
_atom_site_fract_z
_atom_type_partial_charge
C1    C     C_R   0.505158 0.260380 0.499588 0.944713
C2    C     C_R   0.587453 0.441237 0.069145 0.428387
C3    C     C_R   0.580369 0.430182 0.924987 0.422736
C4    C     C_R   0.282188 0.498654 0.500568 0.920338
C5    C     C_R   0.423763 0.573328 0.930411 -0.040808
C6    C     C_3   0.293899 0.572292 0.918866 0.309585
C7    C     C_3   0.289117 0.542095 0.069197 0.482380
C8    C     C_R   0.503808 0.739510 0.500503 0.913612
C9    C     C_R   0.717847 0.499508 0.499469 0.872554
C10   C     C_1   0.161696 0.496591 0.501607 -0.185600
C11   C     C_1   0.059369 0.496001 0.501384 -0.038688
C12   C     C_R   0.521549 0.128390 0.501515 -0.194637
C13   C     C_1   0.940686 0.496762 0.499876 -0.045348
C14   C     C_1   0.838364 0.498040 0.498875 -0.233555
C15   C     C_R   0.482007 0.065055 0.614954 0.031840
C16   C     C_3   0.106915 0.608650 0.149685 -0.208576
C17   C     C_3   0.755749 0.836331 0.342859 -0.293735
C18   C     C_3   0.171853 0.129595 0.682436 -0.286607
C19   C     C_3   0.770823 0.482149 0.136938 -0.282516
C20   C     C_3   0.752948 0.347693 0.839313 -0.206740
C21   C     C_3   0.165398 0.694355 0.794725 -0.297938
C22   C     C_R   0.584049 0.062426 0.399283 -0.054251
C23   C     C_R   0.586310 0.931609 0.402888 0.537522
C24   C     C_R   0.521663 0.870677 0.504031 -0.224393
C25   C     C_R   0.481083 0.937540 0.615336 -0.061642
C26   C     C_3   0.367442 0.930639 0.689339 -0.463616
C27   C     C_3   0.368233 0.073889 0.691053 0.597151
C28   C     C_R   0.418081 0.563838 0.071802 0.043567
H1    H     H_    0.261672 0.495282 0.852750 0.066001
H2    H     H_    0.275421 0.386767 0.193107 0.233925
H3    H     H_    0.801524 0.784143 0.260895 0.174785
H4    H     H_    0.754959 0.775371 0.433341 0.132535
H5    H     H_    0.806120 0.923138 0.363002 0.165282
H6    H     H_    0.170738 0.199715 0.765721 0.173602
H7    H     H_    0.150189 0.034925 0.721452 0.159279
H8    H     H_    0.102570 0.156918 0.611272 0.181206
H9    H     H_    0.455874 0.093989 0.871527 0.187680
H10   H     H_    0.391160 0.225801 0.816669 0.212720
H11   H     H_    0.813207 0.494532 0.037877 0.103848
H12   H     H_    0.298030 0.889416 0.626184 0.189646
H13   H     H_    0.839518 0.450634 0.206834 0.187706
H14   H     H_    0.738669 0.575962 0.171383 0.184046
H15   H     H_    0.777005 0.447583 0.823973 0.140313
H16   H     H_    0.801205 0.305641 0.924134 0.181070
H17   H     H_    0.780932 0.295856 0.747186 0.165844
H18   H     H_    0.117951 0.785333 0.799205 0.177780
H19   H     H_    0.100320 0.618920 0.810572 0.136204
H20   H     H_    0.205805 0.686199 0.693407 0.178392
H21   H     H_    0.377278 0.887685 0.790183 0.233222
H22   H     H_    0.696875 0.193820 0.331019 0.208503
H23   H     H_    0.582093 0.164770 0.227647 0.249906
H24   H     H_    0.084899 0.525505 0.211359 0.159806
H25   H     H_    0.073280 0.596105 0.046221 0.143829
H26   H     H_    0.061381 0.690902 0.195323 0.167628
H27   H     H_    0.308466 0.350282 0.033401 0.120714
N1    N     N_R   0.499240 0.499140 0.142800 -0.190272
N2    N     N_R   0.499240 0.499180 0.857150 -0.195182
N3    N     N_3   0.643498 0.124193 0.291077 -0.389648
N4    N     N_3   0.257418 0.410224 0.093968 -0.520323
N5    N     N_3   0.380606 0.128989 0.826244 -0.467965
O1    O     O_R   0.500010 0.316790 0.614690 -0.581955
O2    O     O_3   0.641849 0.864813 0.300783 -0.569424
O3    O     O_3   0.279749 0.130795 0.613150 -0.603393
O4    O     O_3   0.681791 0.390728 0.134634 -0.584807
O5    O     O_3   0.632621 0.329945 0.857536 -0.584010
O6    O     O_3   0.252320 0.695373 0.893565 -0.558646
O7    O     O_R   0.500000 0.316760 0.385350 -0.625622
O8    O     O_R   0.334450 0.500030 0.614670 -0.632815
O9    O     O_R   0.334440 0.500000 0.385330 -0.596445
O10   O     O_R   0.500000 0.683240 0.614650 -0.608661
O11   O     O_R   0.499990 0.683210 0.385310 -0.554663
O12   O     O_R   0.665560 0.500000 0.614670 -0.607667
O13   O     O_R   0.665550 0.499970 0.385330 -0.584646
O14   O     O_3   0.227963 0.630755 0.151091 -0.527273
Zn1   Zn    Zn3+2 0.500010 0.500020 0.653130 0.974815
Zn2   Zn    Zn3+2 0.499990 0.499980 0.346870 1.007397

loop_
_geom_bond_atom_site_label_1
_geom_bond_atom_site_label_2
_ccdc_geom_bond_type
C22   N3    S    
C16   H24   S    
C9    C14   S    
C9    O12   A    
C18   H8    S    
C6    C7    S    
N1    Zn2   S    
H27   N4    S    
C17   O2    S    
C5    C28   A    
C18   H6    S    
C18   H7    S    
C15   C27   S    
C20   H17   S    
C12   C15   A    
C5    N2    A    
C19   O4    S    
C23   C24   A    
C21   H20   S    
H2    N4    S    
N2    Zn1   S    
C2    C3    A    
C28   N1    A    
C1    O7    A    
H23   N3    S    
C2    N1    A    
C13   C14   T    
O1    Zn1   S    
O8    Zn1   S    
C11   C13   S    
C19   H14   S    
C26   H12   S    
C26   C27   S    
C3    O5    S    
C1    C12   S    
C17   H5    S    
O12   Zn1   S    
H10   N5    S    
C5    C6    S    
C3    N2    A    
C7    N4    S    
C4    O9    A    
C8    C24   S    
C2    O4    S    
C7    O14   S    
C16   H26   S    
C27   N5    S    
O11   Zn2   S    
C17   H3    S    
O13   Zn2   S    
C16   O14   S    
C18   O3    S    
C15   C25   A    
H9    N5    S    
C10   C11   T    
C4    C10   S    
H22   N3    S    
C12   C22   A    
C20   O5    S    
C6    O6    S    
C6    H1    S    
C24   C25   A    
O9    Zn2   S    
C19   H11   S    
C21   H18   S    
C26   H21   S    
O10   Zn1   S    
C4    O8    A    
C17   H4    S    
C16   H25   S    
C27   O3    S    
C8    O11   A    
O7    Zn2   S    
C20   H16   S    
C25   C26   S    
C22   C23   A    
C8    O10   A    
C20   H15   S    
C9    O13   A    
C23   O2    S    
C7    C28   S    
C19   H13   S    
C21   H19   S    
C21   O6    S    
C1    O1    A    
