data_mof_unit_17121.cif
_audit_creation_date              2013-03-05T15:58:07-0500
_audit_creation_method            fapswitch 2.2
_symmetry_space_group_name_H-M    P1
_symmetry_Int_Tables_number       1
_space_group_crystal_system       triclinic
_cell_length_a                    15.216471
_cell_length_b                    14.945453
_cell_length_c                    15.242696
_cell_angle_alpha                 110.461001
_cell_angle_beta                  109.194326
_cell_angle_gamma                 109.075531
_cell_volume                      2657.61740191

loop_
_atom_site_label
_atom_site_type_symbol
_atom_site_description
_atom_site_fract_x
_atom_site_fract_y
_atom_site_fract_z
_atom_type_partial_charge
C1    C     C_R   0.968513 0.244438 0.057717 -0.085947
H1    H     H_    0.929810 0.227755 0.102192 0.090293
N1    N     N_R   0.947080 0.293830 0.002870 -0.046298
C2    C     C_R   0.297957 0.803080 0.210449 -0.058939
H2    H     H_    0.343753 0.832367 0.176503 0.184923
N2    N     N_R   0.208950 0.706170 0.152110 -0.057667
C3    C     C_R   0.205164 0.407682 0.901205 -0.139330
H3    H     H_    0.173105 0.321781 0.846012 0.160480
N3    N     N_R   0.153670 0.443180 0.946090 -0.073656
C4    C     C_R   0.004596 0.591298 0.302500 0.721168
N4    N     N_R   0.002360 0.556820 0.208890 -0.111338
C5    C     C_R   0.295992 0.589994 0.992392 0.321328
N5    N     N_R   0.210070 0.556820 0.002870 -0.089567
C6    C     C_R   0.915704 0.408363 0.211574 -0.222806
H4    H     H_    0.867860 0.323375 0.185051 0.151452
N6    N     N_R   0.945960 0.443180 0.152110 -0.081577
C7    C     C_R   0.207707 0.804038 0.299438 -0.109361
H5    H     H_    0.172103 0.832334 0.345456 0.168958
N7    N     N_R   0.151710 0.706170 0.208890 -0.054965
C8    C     C_R   0.067815 0.253478 0.976534 -0.038147
H6    H     H_    0.128135 0.254350 0.954574 0.103109
N8    N     N_R   0.004320 0.293830 0.946090 -0.049239
C9    C     C_R   0.045836 0.219182 0.045109 0.060802
C10   C     C_R   0.301912 0.866538 0.304848 0.039951
C11   C     C_R   0.296029 0.498094 0.929035 0.057994
C12   C     C_R   0.953111 0.499996 0.307471 -0.079637
C13   C     C_R   0.689387 0.407269 0.969651 0.801727
N9    N     N_R   0.789930 0.443180 0.997130 -0.125943
C14   C     C_R   0.081269 0.591639 0.787057 -0.041891
H7    H     H_    0.122977 0.676204 0.809731 0.187870
N10   N     N_R   0.054040 0.556820 0.847890 -0.058837
C15   C     C_R   0.782778 0.259326 0.689795 -0.122012
H8    H     H_    0.808313 0.264775 0.633505 0.116964
N11   N     N_R   0.848290 0.293830 0.791110 -0.049944
C16   C     C_R   0.995911 0.800008 0.093161 -0.179006
H9    H     H_    0.963708 0.816648 0.145213 0.150368
N12   N     N_R   0.995680 0.706170 0.053910 -0.066141
C17   C     C_R   0.089689 0.806486 0.008253 0.360424
N13   N     N_R   0.052920 0.706170 0.997130 -0.099487
C18   C     C_R   0.687164 0.241902 0.773188 -0.070711
H10   H     H_    0.621065 0.215077 0.786947 0.214557
N14   N     N_R   0.791050 0.293830 0.847890 -0.062414
C19   C     C_R   0.776929 0.592227 0.054137 -0.184179
H11   H     H_    0.797274 0.677458 0.095073 0.134878
N15   N     N_R   0.846330 0.556820 0.053910 -0.080467
C20   C     C_R   0.999467 0.408652 0.699259 -0.142636
H12   H     H_    0.971319 0.324100 0.642427 0.134724
N16   N     N_R   0.997640 0.443180 0.791110 -0.058990
Ni1   Ni    Ni4+2 0.869690 0.369690 0.000000 0.266176
Ni2   Ni    Ni4+2 0.130310 0.630310 0.000000 0.304992
Ni3   Ni    Ni4+2 0.000970 0.369690 0.869780 0.242151
Ni4   Ni    Ni4+2 0.999030 0.630310 0.130220 0.246868
C21   C     C_R   0.676485 0.498539 0.998197 -0.025333
C22   C     C_R   0.047661 0.499966 0.693329 0.063247
C23   C     C_R   0.680498 0.221953 0.673755 0.100153
C24   C     C_R   0.060113 0.870235 0.073479 -0.041466
H13   H     H_    0.480499 0.123735 0.129009 0.122581
C25   C     C_R   0.594534 0.293725 0.253616 -0.014407
H14   H     H_    0.533937 0.315655 0.255815 0.145282
C26   C     C_R   0.703145 0.373462 0.323708 -0.038087
H15   H     H_    0.725349 0.456003 0.380441 0.150363
C27   C     C_R   0.782488 0.345352 0.323798 0.088230
C28   C     C_R   0.751618 0.236384 0.252884 -0.215907
H16   H     H_    0.811529 0.212002 0.254636 0.122942
C29   C     C_R   0.643048 0.157534 0.181093 -0.033784
H17   H     H_    0.619763 0.073765 0.126760 0.174964
C30   C     C_R   0.564491 0.185870 0.182295 -0.134657
C31   C     C_R   0.924766 0.423861 0.507059 -0.268896
H18   H     H_    0.864018 0.369270 0.514585 0.131469
C32   C     C_R   0.029438 0.497162 0.594529 0.146313
C33   C     C_R   0.107554 0.572096 0.587872 0.062178
C34   C     C_R   0.078034 0.571406 0.492072 -0.194907
H19   H     H_    0.138955 0.624926 0.484043 0.135284
C35   C     C_R   0.972565 0.500178 0.405496 0.123135
C36   C     C_R   0.895186 0.423600 0.411473 0.027339
C37   C     C_R   0.245148 0.760931 0.741742 -0.172943
H20   H     H_    0.182103 0.781743 0.732470 0.158687
C38   C     C_R   0.351675 0.844438 0.815396 0.018833
H21   H     H_    0.369949 0.927711 0.864514 0.119722
C39   C     C_R   0.434544 0.820984 0.824135 -0.051273
H22   H     H_    0.517176 0.885947 0.880828 0.153911
C40   C     C_R   0.411101 0.713900 0.759658 -0.196227
H23   H     H_    0.476906 0.697786 0.768017 0.188944
C41   C     C_R   0.304039 0.628180 0.685477 0.345369
C42   C     C_R   0.219797 0.652262 0.676999 -0.052826
H24   H     H_    0.129804 0.872651 0.614327 0.130536
C43   C     C_R   0.183639 0.994267 0.570535 -0.171322
H25   H     H_    0.130236 0.024405 0.581419 0.156834
C44   C     C_R   0.251934 0.040125 0.536699 -0.029774
H26   H     H_    0.251550 0.106085 0.522454 0.175042
C45   C     C_R   0.320025 0.999985 0.521019 0.127195
C46   C     C_R   0.325415 0.920340 0.547713 -0.163433
H27   H     H_    0.380910 0.891781 0.540084 0.131121
C47   C     C_R   0.256528 0.874342 0.580422 -0.048895
H28   H     H_    0.259259 0.810794 0.597042 0.109190
C48   C     C_R   0.184038 0.909541 0.589953 -0.015612
C49   C     C_R   0.486300 0.144390 0.565676 0.740583
C50   C     C_R   0.582784 0.158506 0.568171 -0.144880
C51   C     C_R   0.579876 0.094789 0.471992 -0.059341
C52   C     C_R   0.481577 0.017951 0.380011 -0.198977
H29   H     H_    0.483621 0.973529 0.308429 0.177494
C53   C     C_R   0.389137 0.980455 0.388678 -0.006480
C54   C     C_R   0.392577 0.045415 0.484909 -0.187030
C55   C     C_R   0.724486 0.135912 0.423784 -0.144747
H30   H     H_    0.695118 0.179553 0.389824 0.132662
C56   C     C_R   0.818356 0.135923 0.430150 -0.091517
H31   H     H_    0.861303 0.178458 0.400206 0.131393
C57   C     C_R   0.859291 0.084171 0.478893 -0.109977
H32   H     H_    0.933835 0.087571 0.487077 0.153070
C58   C     C_R   0.804018 0.027882 0.516891 -0.071376
H33   H     H_    0.834687 0.985867 0.552462 0.176777
C59   C     C_R   0.710368 0.027779 0.510919 -0.081985
H34   H     H_    0.669666 0.986578 0.543395 0.133178
C60   C     C_R   0.672320 0.085239 0.467715 0.139975
C61   C     C_3   0.477766 0.378223 0.903735 0.632420
H35   H     H_    0.480207 0.334271 0.829484 0.169566
C62   C     C_3   0.372044 0.377973 0.873486 0.020707
H36   H     H_    0.326610 0.323857 0.895731 0.172306
C63   C     C_3   0.583190 0.561182 0.088660 0.130736
C64   C     C_3   0.558758 0.563101 0.918481 0.542566
C65   C     C_3   0.575816 0.498526 0.978232 -0.269620
H37   H     H_    0.628434 0.648345 0.965822 0.077805
C66   C     C_3   0.395928 0.497859 0.941475 -0.147930
C67   C     C_3   0.472812 0.549874 0.066967 0.046243
C68   C     C_3   0.456534 0.570781 0.905608 -0.498399
H38   H     H_    0.403947 0.547240 0.821779 0.272829
H39   H     H_    0.482520 0.658426 0.957231 0.223713
H40   H     H_    0.638634 0.650377 0.123063 0.063930
H41   H     H_    0.490025 0.636315 0.109074 0.152406
H42   H     H_    0.298513 0.091644 0.789627 0.178820
C69   C     C_R   0.157608 0.060680 0.806167 -0.217212
H43   H     H_    0.103131 0.020755 0.720662 0.161469
C70   C     C_R   0.116901 0.066284 0.876997 0.393405
C71   C     C_R   0.190101 0.123909 0.989850 -0.077769
C72   C     C_R   0.299871 0.162392 0.026159 -0.076020
H44   H     H_    0.355790 0.200226 0.111075 0.122769
C73   C     C_R   0.337133 0.145496 0.953421 0.062292
H45   H     H_    0.420682 0.168697 0.982109 0.197273
C74   C     C_R   0.267170 0.099089 0.844243 -0.160681
C75   C     C_R   0.172949 0.050925 0.104352 -0.180383
H46   H     H_    0.231663 0.028701 0.096569 0.162808
C76   C     C_R   0.097934 0.990305 0.122758 0.063888
C77   C     C_R   0.045852 0.041320 0.164980 0.084969
C78   C     C_R   0.048995 0.131848 0.156180 -0.201490
H47   H     H_    0.010910 0.171236 0.190587 0.125646
C79   C     C_R   0.087243 0.159855 0.091640 0.099430
C80   C     C_R   0.154019 0.119511 0.067727 0.098943
C81   C     C_R   0.873175 0.966847 0.165255 -0.284962
H48   H     H_    0.835874 0.975699 0.097207 0.176658
C82   C     C_R   0.811049 0.918919 0.203971 0.364295
C83   C     C_R   0.859739 0.902772 0.288292 -0.229864
H49   H     H_    0.812994 0.862046 0.316860 0.195502
C84   C     C_R   0.969574 0.940289 0.337709 -0.163235
H50   H     H_    0.004594 0.925244 0.400911 0.169988
C85   C     C_R   0.032423 0.993243 0.303075 -0.131352
H51   H     H_    0.117010 0.019172 0.339834 0.120363
C86   C     C_R   0.983389 0.001374 0.212804 0.067815
N17   N     N_R   0.160226 0.843799 0.970590 0.190694
O1    O     O_R   0.129699 0.867751 0.895764 -0.436578
O2    O     O_R   0.252530 0.848058 0.006287 -0.427549
N18   N     N_R   0.283129 0.519442 0.618105 0.236728
O3    O     O_R   0.356776 0.506718 0.598889 -0.320264
O4    O     O_R   0.194732 0.432106 0.583204 -0.372396
F1    F     F_    0.486351 0.213328 0.652217 -0.695258
F2    F     F_    0.039043 0.697203 0.372923 -0.733309
F3    F     F_    0.480222 0.319220 0.955217 -0.642887
N19   N     N_R   0.306142 0.328359 0.755551 0.239744
O5    O     O_R   0.211010 0.242156 0.702470 -0.449630
O6    O     O_R   0.346735 0.357003 0.700403 -0.259577
N20   N     N_R   0.631549 0.536053 0.171367 0.288313
O7    O     O_R   0.596152 0.436084 0.153132 -0.279412
O8    O     O_R   0.716020 0.615670 0.264020 -0.392261
N21   N     N_R   0.424647 0.495594 0.116420 0.271264
O9    O     O_R   0.391782 0.392008 0.083355 -0.365817
O10   O     O_R   0.413334 0.552151 0.194726 -0.370591
F4    F     F_    0.551309 0.513030 0.818721 -0.610385
N22   N     N_R   0.347485 0.694412 0.002631 0.223617
O11   O     O_R   0.435007 0.774710 0.091637 -0.370002
O12   O     O_R   0.322248 0.701322 0.916254 -0.405969
N23   N     N_R   0.002396 0.010711 0.832915 0.234256
O13   O     O_R   0.959147 0.954613 0.870659 -0.365523
O14   O     O_R   0.939986 0.003937 0.745673 -0.432388
N24   N     N_R   0.699264 0.886533 0.158345 0.222840
O15   O     O_R   0.649151 0.886385 0.070692 -0.437354
O16   O     O_R   0.648094 0.862037 0.207518 -0.380741
F5    F     F_    0.624351 0.304252 0.943642 -0.681170

loop_
_geom_bond_atom_site_label_1
_geom_bond_atom_site_label_2
_geom_bond_distance
_ccdc_geom_bond_type
C43   H25   1.079987 S    
C28   C29   1.397375 A    
C61   C65   1.566326 S    
C70   C71   1.420825 A    
C85   C86   1.402091 A    
C16   H9    1.062452 S    
N3    Ni3   1.902577 S    
C19   H11   1.080429 S    
C51   C60   1.479319 S    
C55   C56   1.399409 A    
N18   O3    1.301529 A    
N1    Ni1   1.883496 S    
C72   H44   1.081064 S    
N19   O6    1.300627 A    
N21   O9    1.297516 A    
N23   O13   1.301001 A    
C31   C36   1.374428 A    
N2    N7    1.415400 A    
C73   C74   1.388995 A    
N11   Ni3   1.901792 S    
C14   H7    1.070364 S    
C56   C57   1.396632 A    
C16   N12   1.316666 A    
C37   C38   1.395351 A    
N24   O16   1.300529 A    
C17   N13   1.342087 A    
C2    C10   1.387512 A    
C38   C39   1.393483 A    
C66   C68   1.558293 S    
C56   H31   1.080271 S    
C25   C26   1.398014 A    
C77   C78   1.392713 A    
C49   C50   1.398801 A    
C57   H32   1.081495 S    
C26   C27   1.401773 A    
C1    H1    1.073910 S    
N4    N6    1.378889 A    
N3    N5    1.378889 A    
C58   H33   1.081331 S    
C59   H34   1.083157 S    
N4    Ni4   1.887882 S    
C7    N7    1.330821 A    
C33   C42   1.482213 S    
N7    Ni4   1.901793 S    
C19   C21   1.390389 A    
N16   Ni3   1.887883 S    
N20   O7    1.298026 A    
N23   O14   1.301196 A    
C31   H18   1.084207 S    
C61   C62   1.519120 S    
N11   N14   1.415400 A    
C83   H49   1.082594 S    
C32   C33   1.402153 A    
C84   C85   1.396071 A    
C15   C23   1.371161 A    
C81   C86   1.406325 A    
C24   C76   1.487949 S    
C63   H40   1.117609 S    
C49   F1    1.360222 S    
C18   N14   1.339573 A    
C5    N22   1.422587 S    
C84   H50   1.074625 S    
C83   C84   1.392632 A    
N17   O2    1.299107 A    
C53   C54   1.420402 A    
H13   C30   1.081589 S    
H42   C74   1.078834 S    
C75   C80   1.390214 A    
C59   C60   1.405711 A    
C55   H30   1.080506 S    
N18   O4    1.300939 A    
C64   H37   1.113191 S    
C77   C86   1.476543 S    
C63   C65   1.558149 S    
C9    C79   1.482293 S    
C20   N16   1.325544 A    
N9    N15   1.378890 A    
C7    C10   1.388306 A    
C35   C36   1.402556 A    
C66   C67   1.589464 S    
C41   C42   1.419358 A    
C69   C74   1.396803 A    
C37   H20   1.083338 S    
C17   N17   1.424896 S    
C34   C35   1.399600 A    
C45   C54   1.467520 S    
N19   O5    1.300774 A    
N12   Ni4   1.887266 S    
C64   C68   1.550160 S    
C39   H22   1.082314 S    
C67   N21   1.471617 S    
C63   N20   1.474286 S    
N15   Ni4   1.902575 S    
C29   C30   1.395859 A    
C25   H14   1.081185 S    
C63   C67   1.539171 S    
C40   H23   1.082631 S    
C6    C12   1.371127 A    
C28   H16   1.082823 S    
C26   H15   1.083227 S    
C1    N1    1.326554 A    
C13   F5    1.351429 S    
C15   N11   1.318905 A    
N24   O15   1.301337 A    
C27   C28   1.405946 A    
C71   C80   1.474585 S    
N6    Ni1   1.883099 S    
C78   C79   1.409562 A    
C19   N15   1.327265 A    
N9    Ni1   1.884473 S    
C51   C52   1.376382 A    
C22   C32   1.421386 S    
C8    C9    1.399839 A    
C14   N10   1.323373 A    
C18   C23   1.399824 A    
C43   C48   1.398919 A    
C20   C22   1.372626 A    
C52   C53   1.403131 A    
C7    H5    1.075467 S    
C75   H46   1.076438 S    
C61   F3    1.371438 S    
C47   C48   1.394908 A    
C11   C66   1.470068 S    
C49   C54   1.389623 A    
N21   O10   1.301390 A    
H24   C48   1.081871 S    
C64   F4    1.385922 S    
C55   C60   1.401141 A    
C2    N2    1.322227 A    
C18   H10   1.072497 S    
C8    N8    1.339487 A    
N22   O11   1.297475 A    
C40   C41   1.409114 A    
N10   N16   1.378892 A    
C43   C44   1.396321 A    
N17   O1    1.300210 A    
C6    N6    1.323568 A    
C27   C36   1.477823 S    
C44   C45   1.399793 A    
N10   Ni2   1.883102 S    
C69   H43   1.079098 S    
C45   C46   1.403453 A    
C64   C65   1.565605 S    
C79   C80   1.420986 A    
C72   C73   1.387713 A    
C20   H12   1.080589 S    
N2    Ni2   1.882589 S    
C16   C24   1.374294 A    
C6    H4    1.072309 S    
C81   C82   1.405281 A    
C34   H19   1.082814 S    
C69   C70   1.402409 A    
C13   C21   1.380139 A    
C70   N23   1.439182 S    
C1    C9    1.397139 A    
C82   N24   1.435242 S    
C75   C76   1.383770 A    
C73   H45   1.080744 S    
C71   C72   1.403112 A    
C3    C11   1.382019 A    
C5    C11   1.375735 A    
C78   H47   1.079085 S    
C15   H8    1.068261 S    
C62   C66   1.563640 S    
C33   C34   1.374542 A    
N12   N13   1.415398 A    
C21   C65   1.460257 S    
C62   H36   1.107916 S    
C38   H21   1.082701 S    
C4    C12   1.376250 A    
C46   C47   1.390027 A    
C68   H38   1.107317 S    
C57   C58   1.396080 A    
N20   O8    1.301661 A    
C62   N19   1.477718 S    
C4    F2    1.353582 S    
C23   C50   1.462212 S    
C46   H27   1.083605 S    
C12   C35   1.423360 S    
C39   C40   1.396819 A    
N22   O12   1.296212 A    
C67   H41   1.112713 S    
C10   C53   1.476431 S    
C81   H48   1.083233 S    
C29   H17   1.082153 S    
C47   H28   1.074731 S    
C58   C59   1.397195 A    
C3    H3    1.076855 S    
C4    N4    1.321059 A    
N14   Ni1   1.882592 S    
N5    Ni2   1.884471 S    
C3    N3    1.316793 A    
C25   C30   1.398416 A    
C2    H2    1.068171 S    
N13   Ni2   1.883495 S    
C17   C24   1.418079 A    
C8    H6    1.073285 S    
C31   C32   1.398782 A    
C50   C51   1.418374 A    
C14   C22   1.368541 A    
C85   H51   1.081091 S    
C68   H39   1.107960 S    
C76   C77   1.418035 A    
N8    Ni3   1.887264 S    
N1    N8    1.415400 A    
C52   H29   1.077781 S    
C5    N5    1.322741 A    
C44   H26   1.082397 S    
C37   C42   1.407150 A    
C41   N18   1.441280 S    
C61   H35   1.112491 S    
C82   C83   1.402375 A    
C13   N9    1.299573 A    
