data_mof_unit_33197.cif
_audit_creation_date              2012-12-11T15:59:46-0500
_audit_creation_method            fapswitch 2.2
_symmetry_space_group_name_H-M    P1
_symmetry_Int_Tables_number       1
_space_group_crystal_system       triclinic
_cell_length_a                    10.754431
_cell_length_b                    10.82002
_cell_length_c                    17.100899
_cell_angle_alpha                 99.842417
_cell_angle_beta                  99.883051
_cell_angle_gamma                 60.56996
_cell_volume                      1698.69010136

loop_
_atom_site_label
_atom_site_type_symbol
_atom_type_description
_atom_site_fract_x
_atom_site_fract_y
_atom_site_fract_z
_atom_type_partial_charge
C1    C     C_R   0.355687 0.770388 0.397962 0.579190
C2    C     C_R   0.844574 0.335003 0.330051 0.009827
C3    C     C_R   0.346277 0.811727 0.155545 -0.010300
C4    C     C_R   0.369601 0.346592 0.357485 0.561239
C5    C     C_R   0.460949 0.811800 0.209270 -0.038547
C6    C     C_R   0.444069 0.838940 0.292096 -0.004664
C7    C     C_R   0.247523 0.780730 0.261348 -0.151717
C8    C     C_R   0.248941 0.781632 0.181656 -0.146471
C9    C     C_R   0.591660 0.783405 0.183644 0.013780
C10   C     C_R   0.692682 0.803383 0.239463 -0.163113
C11   C     C_R   0.662199 0.860369 0.317429 -0.131334
C12   C     C_R   0.831621 0.220848 0.195631 0.022773
C13   C     C_R   0.535256 0.884227 0.344125 0.071962
C14   C     C_R   0.340734 0.813153 0.318359 0.036998
C15   C     C_R   0.278688 0.257660 0.793824 -0.033878
C16   C     C_R   0.779402 0.375235 0.404808 0.538006
C17   C     C_R   0.392187 0.145386 0.751452 -0.054927
C18   C     C_R   0.427419 0.175353 0.684621 -0.049840
C19   C     C_R   0.198469 0.396575 0.680467 0.225034
C20   C     C_R   0.176125 0.379384 0.754829 0.219215
C21   C     C_R   0.478912 0.005229 0.775131 -0.145907
C22   C     C_R   0.578858 0.896120 0.728048 -0.098261
C23   C     C_R   0.854263 0.214610 0.279209 -0.002704
C24   C     C_R   0.614075 0.929944 0.664144 0.306768
C25   C     C_R   0.562245 0.072775 0.656780 0.318268
C26   C     C_R   0.330360 0.305517 0.649827 -0.047311
C27   C     C_1   0.818770 0.342930 0.709026 0.052986
C28   C     C_R   0.381162 0.715178 0.631347 0.542166
C29   C     C_1   0.846248 0.313965 0.776583 0.049835
C30   C     C_1   0.358029 0.764152 0.713673 -0.025879
C31   C     C_1   0.325443 0.810913 0.780662 -0.011946
C32   C     C_R   0.893262 0.309401 0.088293 0.601484
C33   C     C_R   0.319174 0.299592 0.120102 0.571227
C34   C     C_R   0.853529 0.441808 0.299608 -0.145096
C35   C     C_R   0.297366 0.885795 0.083281 0.565412
C36   C     C_R   0.887331 0.297018 0.858900 0.569998
C37   C     C_R   0.274668 0.248075 0.878066 0.559401
C38   C     C_R   0.280910 0.880907 0.857803 0.549281
C39   C     C_R   0.370359 0.345289 0.584004 0.562929
C40   C     C_R   0.773008 0.381255 0.629766 0.561193
C41   C     C_1   0.343129 0.336401 0.274142 -0.033683
C42   C     C_1   0.331721 0.326364 0.203379 -0.036396
C43   C     C_R   0.841805 0.330218 0.165799 0.012617
C44   C     C_2   0.493307 0.970975 0.421694 0.605827
C45   C     C_R   0.853153 0.438684 0.219309 -0.169836
C46   C     C_2   0.633589 0.717124 0.101921 0.599109
C47   C     C_R   0.806541 0.113645 0.146670 0.255497
C48   C     C_R   0.842173 0.988099 0.178086 -0.080402
C49   C     C_R   0.889467 0.973293 0.258750 -0.172701
C50   C     C_R   0.888575 0.087898 0.309776 -0.082036
Cl1   Cl    Cl    0.059087 0.533317 0.626279 -0.424455
Cl2   Cl    Cl    0.020319 0.517455 0.796941 -0.478221
Cl3   Cl    Cl    0.751273 0.798748 0.608876 -0.380141
Cl4   Cl    Cl    0.703021 0.115718 0.675913 -0.511167
Cl5   Cl    Cl    0.709410 0.140227 0.051167 -0.524605
Cr1   Cr    Cr6+3 0.608100 0.610860 0.522250 1.128599
Cr2   Cr    Cr6+3 0.288890 0.599990 0.488420 1.095919
Cr3   Cr    Cr6+3 0.603040 0.289190 0.489390 1.112118
Cr4   Cr    Cr6+3 0.053960 0.052250 0.967380 1.132806
Cr5   Cr    Cr6+3 0.059890 0.373160 0.992710 1.122480
Cr6   Cr    Cr6+3 0.373370 0.061690 0.991710 1.115721
H1    H     H_    0.854619 0.532524 0.337485 0.163479
H2    H     H_    0.173758 0.750905 0.277604 0.142217
H3    H     H_    0.166969 0.767310 0.140789 0.158193
H4    H     H_    0.334601 0.100354 0.491478 0.331816
H5    H     H_    0.560816 0.574678 0.096515 0.297859
H6    H     H_    0.796472 0.772335 0.222079 0.111815
H7    H     H_    0.738411 0.885650 0.357065 0.155832
H8    H     H_    0.476485 0.974463 0.829083 0.199979
H9    H     H_    0.635468 0.787952 0.744609 0.177309
H10   H     H_    0.868642 0.519558 0.199863 0.149093
H11   H     H_    0.832067 0.902457 0.139780 0.175911
H12   H     H_    0.923342 0.874619 0.283059 0.103843
H13   H     H_    0.920981 0.074867 0.372666 0.151393
O1    O     O_R   0.749810 0.499790 0.438040 -0.486562
O2    O     O_R   0.411730 0.181020 0.091530 -0.451123
O3    O     O_R   0.365010 0.944360 0.063320 -0.478204
O4    O     O_R   0.477660 0.726260 0.439290 -0.481090
O5    O     O_R   0.159380 0.906670 0.876210 -0.455601
O6    O     O_R   0.930820 0.177420 0.886730 -0.464031
O7    O     O_R   0.910360 0.395420 0.895720 -0.460245
O8    O     O_R   0.186010 0.361730 0.919870 -0.432295
O9    O     O_R   0.400000 0.173010 0.914630 -0.470136
O10   O     O_R   0.354140 0.936940 0.899340 -0.547179
O11   O     O_3   0.162410 0.162370 0.983930 -0.332967
O12   O     O_R   0.298970 0.468800 0.557390 -0.455804
O13   O     O_R   0.260150 0.743000 0.412270 -0.528262
O14   O     O_R   0.297740 0.466550 0.394720 -0.509203
O15   O     O_R   0.488080 0.253500 0.386430 -0.487187
O16   O     O_R   0.722670 0.303800 0.421940 -0.510554
O17   O     O_R   0.751130 0.502220 0.613520 -0.442211
O18   O     O_R   0.478890 0.728510 0.601960 -0.495555
O19   O     O_R   0.261470 0.745430 0.587750 -0.453937
O20   O     O_2   0.584285 0.982295 0.471440 -0.467578
O21   O     O_R   0.349059 0.045556 0.436546 -0.712530
O22   O     O_2   0.700973 0.753685 0.069246 -0.464627
O23   O     O_R   0.489400 0.255930 0.561910 -0.456300
O24   O     O_R   0.599675 0.611881 0.061651 -0.647992
O25   O     O_R   0.723890 0.306050 0.584610 -0.459202
O26   O     O_3   0.500010 0.500010 0.500020 -0.313453
O27   O     O_R   0.171100 0.914680 0.053100 -0.509536
O28   O     O_R   0.941680 0.184840 0.050710 -0.459209
O29   O     O_R   0.922080 0.403420 0.072610 -0.491169
O30   O     O_R   0.196880 0.369150 0.083850 -0.509122

loop_
_geom_bond_atom_site_label_1
_geom_bond_atom_site_label_2
_ccdc_geom_bond_type
C1    O13   A    
C16   O16   A    
C45   H10   S    
C16   O1    A    
C41   C42   T    
C19   C20   A    
C18   C26   A    
C49   H12   S    
C40   O25   A    
C7    C8    A    
C10   H6    S    
Cr3   O23   S    
C29   C36   S    
C33   C42   S    
C12   C43   A    
C50   H13   S    
C30   C31   T    
C26   C39   S    
C39   O23   A    
C27   C29   T    
C38   O5    A    
C33   O30   A    
C34   H1    S    
Cr1   O4    S    
Cr2   O12   S    
C19   C26   A    
C15   C37   S    
Cr5   O8    S    
C7    C14   A    
Cr6   O3    S    
Cr5   O29   S    
C2    C16   S    
C9    C10   A    
C36   O7    A    
C2    C34   A    
C46   O24   S    
C9    C46   S    
Cr1   O1    S    
Cr2   O19   S    
C21   C22   A    
C1    O4    A    
C18   C25   A    
C48   H11   S    
C12   C47   A    
Cr1   O17   S    
Cr6   O2    S    
C15   C20   A    
H4    O21   S    
Cr4   O27   S    
Cr3   O26   S    
C24   C25   A    
C3    C8    A    
Cr6   O9    S    
Cr4   O5    S    
C23   C50   A    
C3    C5    A    
C24   Cl3   S    
Cr2   O26   S    
C35   O3    A    
C17   C21   A    
Cr2   O13   S    
C21   H8    S    
C28   O19   A    
Cr4   O11   S    
C5    C9    A    
C6    C14   A    
C43   C45   A    
Cr5   O7    S    
C33   O2    A    
C47   C48   A    
C12   C23   A    
C3    C35   S    
C27   C40   S    
C17   C18   A    
C32   O29   A    
C28   O18   A    
C34   C45   A    
C25   Cl4   S    
Cr3   O16   S    
C7    H2    S    
Cr6   O11   S    
C8    H3    S    
C48   C49   A    
C36   O6    A    
C32   O28   A    
C37   O8    A    
Cr1   O26   S    
C11   H7    S    
C47   Cl5   S    
C4    O15   A    
C15   C17   A    
C38   O10   A    
Cr4   O28   S    
Cr3   O25   S    
C35   O27   A    
Cr6   O10   S    
Cr4   O6    S    
Cr5   O11   S    
Cr2   O14   S    
C4    O14   A    
C31   C38   S    
H5    O24   S    
C28   C30   S    
C20   Cl2   S    
C44   O21   S    
C6    C13   A    
C11   C13   A    
C5    C6    A    
C32   C43   S    
C22   C24   A    
C40   O17   A    
Cr3   O15   S    
C44   O20   D    
C10   C11   A    
C19   Cl1   S    
Cr1   O18   S    
C46   O22   D    
C49   C50   A    
C4    C41   S    
C2    C23   A    
C37   O9    A    
C1    C14   S    
C39   O12   A    
Cr5   O30   S    
C22   H9    S    
C13   C44   S    
