data_mof_unit_60656.cif
_audit_creation_date              2012-12-10T18:17:04-0500
_audit_creation_method            fapswitch 2.2
_symmetry_space_group_name_H-M    P1
_symmetry_Int_Tables_number       1
_space_group_crystal_system       triclinic
_cell_length_a                    29.186471
_cell_length_b                    29.18701
_cell_length_c                    38.753079
_cell_angle_alpha                 89.999448
_cell_angle_beta                  90.151262
_cell_angle_gamma                 90.000172
_cell_volume                      33012.3084113

loop_
_atom_site_label
_atom_site_type_symbol
_atom_type_description
_atom_site_fract_x
_atom_site_fract_y
_atom_site_fract_z
_atom_type_partial_charge
C1    C     C_R   0.500000 0.913190 0.000000 0.886149
C2    C     C_1   0.229409 0.500001 0.999860 0.014906
C3    C     C_R   0.001482 0.499801 0.894452 -0.425155
C4    C     C_R   0.000409 0.499183 0.605584 -0.434068
C5    C     C_R   0.498518 0.999799 0.605548 -0.425162
C6    C     C_R   0.999590 0.499181 0.394416 -0.434085
C7    C     C_R   0.501479 0.999800 0.394452 -0.425143
C8    C     C_R   0.506413 0.997824 0.284769 0.341937
C9    C     C_R   0.995140 0.498190 0.284710 0.328916
C10   C     C_R   0.493580 0.997829 0.715230 0.341993
C11   C     C_R   0.004851 0.498197 0.715290 0.328927
C12   C     C_R   0.006421 0.497832 0.784770 0.341957
C13   C     C_1   0.500000 0.229411 0.000000 0.019936
C14   C     C_R   0.495152 0.998193 0.784710 0.328909
C15   C     C_R   0.993563 0.497823 0.215231 0.341966
C16   C     C_R   0.504844 0.998188 0.215289 0.328944
C17   C     C_1   0.500000 0.862558 1.000000 -0.201716
C18   C     C_1   0.137441 0.500001 0.999938 -0.205026
C19   C     C_1   0.500000 0.137443 0.000000 -0.201822
C20   C     C_1   0.862559 0.500000 0.000062 -0.205032
C21   C     C_1   1.000000 0.362558 0.500000 -0.201724
C22   C     C_1   0.637441 0.000001 0.499938 -0.205013
C23   C     C_1   0.000000 0.637443 0.500000 -0.201825
C24   C     C_1   0.770591 0.500001 0.000140 0.014904
C25   C     C_1   0.362559 0.000000 0.500061 -0.205016
C26   C     C_1   0.500000 0.820380 1.000000 0.021678
C27   C     C_1   0.179619 0.500001 0.999896 0.015601
C28   C     C_1   0.500000 0.179621 0.000000 0.020857
C29   C     C_1   0.820380 0.500001 0.000104 0.015599
C30   C     C_1   1.000000 0.320380 0.500000 0.021673
C31   C     C_1   0.679619 0.000001 0.499896 0.015611
C32   C     C_1   0.000000 0.679621 0.500000 0.020853
C33   C     C_1   0.320381 0.000001 0.500104 0.015613
C34   C     C_3   0.598532 0.955277 0.186743 0.099933
C35   C     C_1   1.000000 0.270590 0.500000 0.019924
C36   C     C_3   0.635901 0.948615 0.159532 -0.301444
C37   C     C_3   0.682196 0.965863 0.172512 -0.967203
C38   C     C_3   0.099272 0.482394 0.187253 0.121433
C39   C     C_3   0.129729 0.460682 0.214891 -0.310968
C40   C     C_3   0.169199 0.492327 0.224889 -0.978600
C41   C     C_3   0.408394 0.040414 0.191258 0.102043
C42   C     C_3   0.369271 0.044825 0.165036 -0.303322
C43   C     C_3   0.324272 0.026981 0.179814 -0.969721
C44   C     C_3   0.891852 0.513591 0.187157 0.101680
C45   C     C_3   0.852867 0.510147 0.160765 -0.306588
C46   C     C_1   0.729409 0.000001 0.499860 0.014910
C47   C     C_3   0.813412 0.481178 0.174526 -0.965727
C48   C     C_3   0.591655 0.040304 0.808746 0.102079
C49   C     C_3   0.630783 0.044692 0.834965 -0.303290
C50   C     C_3   0.675761 0.026787 0.820195 -0.969730
C51   C     C_3   0.108140 0.513477 0.812827 0.101657
C52   C     C_3   0.147213 0.510118 0.839150 -0.306415
C53   C     C_3   0.186602 0.481066 0.825380 -0.965933
C54   C     C_3   0.401416 0.955384 0.813262 0.099948
C55   C     C_3   0.364045 0.948767 0.840478 -0.301454
C56   C     C_3   0.317767 0.966066 0.827502 -0.967208
C57   C     C_1   0.000000 0.729411 0.500000 0.019935
C58   C     C_3   0.900697 0.482532 0.812745 0.121438
C59   C     C_3   0.870181 0.460835 0.785137 -0.310889
C60   C     C_3   0.830766 0.492542 0.775125 -0.978587
C61   C     C_3   0.098560 0.455332 0.686741 0.099940
C62   C     C_3   0.135931 0.448693 0.659528 -0.301449
C63   C     C_3   0.182218 0.465963 0.672507 -0.967198
C64   C     C_3   0.599294 0.982429 0.687245 0.121444
C65   C     C_3   0.629748 0.960736 0.714893 -0.310975
C66   C     C_3   0.669216 0.992390 0.724881 -0.978584
C67   C     C_3   0.908377 0.540375 0.691256 0.102054
C68   C     C_1   0.270591 0.000001 0.500140 0.014913
C69   C     C_3   0.869252 0.544781 0.665035 -0.303294
C70   C     C_3   0.824260 0.526913 0.679809 -0.969723
C71   C     C_3   0.391874 0.013566 0.687176 0.101657
C72   C     C_3   0.352797 0.010242 0.660854 -0.306434
C73   C     C_3   0.313381 0.981230 0.674627 -0.965935
C74   C     C_3   0.091646 0.540301 0.308743 0.102072
C75   C     C_3   0.130775 0.544689 0.334962 -0.303294
C76   C     C_3   0.175753 0.526784 0.320191 -0.969726
C77   C     C_3   0.608142 0.013395 0.312824 0.101654
C78   C     C_3   0.647213 0.010007 0.339147 -0.306414
C79   C     C_1   0.500000 0.728411 1.000000 0.016788
C80   C     C_3   0.686578 0.980922 0.325377 -0.965938
C81   C     C_3   0.901404 0.455382 0.313272 0.099957
C82   C     C_3   0.864040 0.448772 0.340493 -0.301468
C83   C     C_3   0.817759 0.466068 0.327523 -0.967196
C84   C     C_3   0.400680 0.982608 0.312745 0.121403
C85   C     C_3   0.370119 0.960913 0.285166 -0.310893
C86   C     C_3   0.330735 0.992654 0.275145 -0.978596
C87   C     C_1   0.271588 0.500001 0.999846 0.013205
C88   C     C_1   0.500000 0.271590 0.000000 0.016861
C89   C     C_R   0.086809 0.500000 0.999992 0.880999
C90   C     C_1   0.728412 0.500000 0.000154 0.013203
C91   C     C_1   1.000000 0.228411 0.499999 0.016787
C92   C     C_1   0.771588 0.000001 0.499846 0.013208
C93   C     C_1   0.000000 0.771590 0.500000 0.016860
C94   C     C_1   0.228412 0.000000 0.500154 0.013209
C95   C     C_1   0.500000 0.678619 1.000000 0.012033
C96   C     C_1   0.321380 0.500000 0.999850 0.009757
C97   C     C_1   0.500000 0.321381 0.000000 0.012104
C98   C     C_1   0.678620 0.500000 0.000150 0.009757
C99   C     C_1   1.000000 0.178619 0.499999 0.012033
C100  C     C_R   0.500000 0.086810 0.000000 0.888052
C101  C     C_1   0.821380 0.000000 0.499851 0.009759
C102  C     C_1   0.000000 0.821381 0.500000 0.012104
C103  C     C_1   0.178620 0.000000 0.500149 0.009759
C104  C     C_1   0.500000 0.636438 1.000000 -0.195335
C105  C     C_1   0.363561 0.500000 0.999879 -0.196459
C106  C     C_1   0.500000 0.363562 0.000000 -0.195260
C107  C     C_1   0.636439 0.500000 0.000121 -0.196459
C108  C     C_1   1.000000 0.136438 0.499999 -0.195335
C109  C     C_1   0.863561 0.000000 0.499879 -0.196458
C110  C     C_1   0.000000 0.863562 0.500000 -0.195259
C111  C     C_R   0.913190 0.500000 0.000008 0.880991
C112  C     C_1   0.136439 0.000000 0.500121 -0.196457
C113  C     C_R   0.414202 0.500000 0.999959 0.880413
C114  C     C_R   0.500000 0.414203 0.000000 0.880366
C115  C     C_R   0.585798 0.500000 0.000041 0.880412
C116  C     C_R   0.500000 0.585798 1.000000 0.880340
C117  C     C_R   0.914202 1.000000 0.499959 0.880412
C118  C     C_R   0.000000 0.914203 0.500000 0.880366
C119  C     C_R   0.085798 0.000000 0.500041 0.880412
C120  C     C_R   0.000000 0.085797 0.500000 0.880340
C121  C     C_R   0.500076 0.000105 0.067994 0.934105
C122  C     C_R   1.000000 0.413190 0.500000 0.886151
C123  C     C_R   0.000045 0.499988 0.067986 0.927031
C124  C     C_R   0.499924 0.000105 0.932006 0.934128
C125  C     C_R   0.999955 0.499989 0.932014 0.927005
C126  C     C_R   0.000076 0.500105 0.567994 0.934115
C127  C     C_R   0.500045 0.999988 0.567986 0.927032
C128  C     C_R   0.999923 0.500106 0.432006 0.934130
C129  C     C_R   0.499955 0.999989 0.432015 0.926993
C130  C     C_R   0.526517 0.965418 0.123110 0.316524
C131  C     C_R   0.032258 0.475430 0.124516 0.315783
C132  C     C_R   0.475283 0.032286 0.124483 0.313976
C133  C     C_R   0.586809 0.000000 0.499992 0.880998
C134  C     C_R   0.962799 0.523273 0.122967 0.322569
C135  C     C_R   0.524750 0.032260 0.875516 0.313958
C136  C     C_R   0.037222 0.523239 0.877032 0.322671
C137  C     C_R   0.473449 0.965445 0.876890 0.316501
C138  C     C_R   0.967706 0.475475 0.875486 0.315810
C139  C     C_R   0.026534 0.465433 0.623111 0.316519
C140  C     C_R   0.532273 0.975443 0.624514 0.315778
C141  C     C_R   0.975271 0.532278 0.624483 0.313964
C142  C     C_R   0.462798 0.023265 0.622968 0.322671
C143  C     C_R   0.024747 0.532259 0.375515 0.313953
C144  C     C_R   0.000000 0.586810 0.500000 0.888053
C145  C     C_R   0.537234 0.023214 0.377032 0.322673
C146  C     C_R   0.973447 0.465443 0.376892 0.316496
C147  C     C_R   0.467685 0.975499 0.375487 0.315828
C148  C     C_R   0.529899 0.966971 0.158982 0.455290
C149  C     C_R   0.030161 0.474971 0.160476 0.437885
C150  C     C_R   0.474701 0.029961 0.160440 0.457118
C151  C     C_R   0.960643 0.521560 0.158913 0.455118
C152  C     C_R   0.525332 0.029933 0.839559 0.457106
C153  C     C_R   0.039368 0.521531 0.841086 0.455109
C154  C     C_R   0.470065 0.967002 0.841019 0.455281
C155  C     C_R   0.413190 0.000000 0.500008 0.880997
C156  C     C_R   0.969795 0.475022 0.839525 0.437882
C157  C     C_R   0.029919 0.466990 0.658982 0.455284
C158  C     C_R   0.530181 0.974986 0.660474 0.437902
C159  C     C_R   0.974691 0.529955 0.660440 0.457112
C160  C     C_R   0.460651 0.021559 0.658915 0.455083
C161  C     C_R   0.025325 0.529932 0.339557 0.457112
C162  C     C_R   0.539379 0.021501 0.341085 0.455129
C163  C     C_R   0.970058 0.467001 0.341021 0.455278
C164  C     C_R   0.469771 0.975045 0.339527 0.437877
C165  C     C_R   0.503193 0.998437 0.177698 -0.343050
C166  C     C_1   0.500000 0.770590 1.000000 0.019926
C167  C     C_R   0.994492 0.497815 0.177628 -0.340437
C168  C     C_R   0.496805 0.998439 0.822302 -0.343041
C169  C     C_R   0.005490 0.497827 0.822372 -0.340487
C170  C     C_R   0.003199 0.498445 0.677698 -0.343047
C171  C     C_R   0.494508 0.997823 0.677628 -0.340465
C172  C     C_R   0.996795 0.498438 0.322302 -0.343048
C173  C     C_R   0.505482 0.997822 0.322372 -0.340501
C174  C     C_R   0.500408 0.999181 0.105584 -0.434052
C175  C     C_R   0.998514 0.499798 0.105548 -0.425162
C176  C     C_R   0.499591 0.999182 0.894416 -0.434087
H1    H     H_    0.535682 0.925441 0.083285 0.335929
H2    H     H_    0.572931 0.963642 0.585392 0.331632
H3    H     H_    0.299105 0.996825 0.698435 0.268588
H4    H     H_    0.101573 0.558517 0.284726 0.168769
H5    H     H_    0.086826 0.503621 0.301445 0.114096
H6    H     H_    0.135097 0.581248 0.342315 0.257629
H7    H     H_    0.122370 0.524729 0.358517 0.237677
H8    H     H_    0.172217 0.490198 0.312741 0.270415
H9    H     H_    0.203203 0.529730 0.339957 0.278162
H10   H     H_    0.185847 0.547166 0.297233 0.271218
H11   H     H_    0.622113 0.026888 0.288192 0.167124
H12   H     H_    0.594640 0.978440 0.307012 0.110713
H13   H     H_    0.961998 0.572467 0.585319 0.336661
H14   H     H_    0.660175 0.044905 0.345224 0.256137
H15   H     H_    0.634306 0.994176 0.363305 0.233374
H16   H     H_    0.674480 0.945661 0.319565 0.269028
H17   H     H_    0.714182 0.978904 0.345090 0.276405
H18   H     H_    0.700881 0.996487 0.301567 0.268583
H19   H     H_    0.890585 0.437838 0.289145 0.167446
H20   H     H_    0.904690 0.492489 0.306723 0.111864
H21   H     H_    0.861125 0.411801 0.347013 0.255788
H22   H     H_    0.873348 0.467901 0.364281 0.241508
H23   H     H_    0.819755 0.503170 0.321306 0.268901
H24   H     H_    0.425955 0.036776 0.581948 0.330834
H25   H     H_    0.791495 0.461015 0.347846 0.277736
H26   H     H_    0.807088 0.446830 0.304109 0.268663
H27   H     H_    0.413940 0.015722 0.302364 0.116641
H28   H     H_    0.379859 0.989615 0.336192 0.171307
H29   H     H_    0.390934 0.953424 0.261844 0.229288
H30   H     H_    0.355885 0.928137 0.295061 0.244214
H31   H     H_    0.308941 0.999997 0.297939 0.275945
H32   H     H_    0.309315 0.975964 0.255039 0.275736
H33   H     H_    0.344252 0.025364 0.264645 0.261356
H34   H     H_    0.038037 0.572451 0.414673 0.336675
H35   H     H_    0.574069 0.036710 0.418061 0.330849
H36   H     H_    0.964270 0.425459 0.416710 0.335945
H37   H     H_    0.427034 0.963724 0.414621 0.331622
H38   H     H_    0.609319 0.937726 0.210876 0.167430
H39   H     H_    0.595288 0.992389 0.193285 0.111867
H40   H     H_    0.638777 0.911640 0.153020 0.255772
H41   H     H_    0.072924 0.463628 0.085398 0.331629
H42   H     H_    0.626626 0.967748 0.135739 0.241522
H43   H     H_    0.680239 0.002970 0.178721 0.268906
H44   H     H_    0.708464 0.960774 0.152197 0.277739
H45   H     H_    0.692834 0.946620 0.195932 0.268658
H46   H     H_    0.086089 0.515569 0.197576 0.116564
H47   H     H_    0.120150 0.489286 0.163816 0.171422
H48   H     H_    0.108858 0.453326 0.238210 0.229245
H49   H     H_    0.143871 0.427831 0.205062 0.244237
H50   H     H_    0.191045 0.499536 0.202100 0.275948
H51   H     H_    0.190541 0.475627 0.245037 0.275726
H52   H     H_    0.462021 0.072477 0.085317 0.336654
H53   H     H_    0.155772 0.525110 0.235327 0.261374
H54   H     H_    0.398484 0.058654 0.215267 0.168752
H55   H     H_    0.413175 0.003733 0.198569 0.114138
H56   H     H_    0.364990 0.081383 0.157667 0.257649
H57   H     H_    0.377654 0.024838 0.141490 0.237648
H58   H     H_    0.327768 0.990398 0.187286 0.270434
H59   H     H_    0.296828 0.029936 0.160045 0.278165
H60   H     H_    0.314196 0.047395 0.202759 0.271214
H61   H     H_    0.877805 0.527178 0.211737 0.167213
H62   H     H_    0.905310 0.478646 0.193065 0.110713
H63   H     H_    0.925962 0.536797 0.081946 0.330840
H64   H     H_    0.839975 0.545037 0.154575 0.256299
H65   H     H_    0.865837 0.494190 0.136670 0.233098
H66   H     H_    0.825442 0.445926 0.180458 0.268993
H67   H     H_    0.785877 0.479106 0.154758 0.276372
H68   H     H_    0.799037 0.496874 0.198266 0.268570
H69   H     H_    0.601582 0.058519 0.784729 0.168775
H70   H     H_    0.586835 0.003623 0.801448 0.114092
H71   H     H_    0.635105 0.081251 0.842318 0.257623
H72   H     H_    0.622378 0.024732 0.858521 0.237679
H73   H     H_    0.672226 0.990200 0.812747 0.270412
H74   H     H_    0.538033 0.072453 0.914674 0.336672
H75   H     H_    0.703211 0.029735 0.839960 0.278163
H76   H     H_    0.685855 0.047166 0.797236 0.271221
H77   H     H_    0.122102 0.526983 0.788195 0.167129
H78   H     H_    0.094664 0.478512 0.807013 0.110709
H79   H     H_    0.160147 0.545025 0.845229 0.256141
H80   H     H_    0.134317 0.494274 0.863307 0.233359
H81   H     H_    0.174534 0.445795 0.819567 0.269027
H82   H     H_    0.214208 0.479069 0.845094 0.276398
H83   H     H_    0.200895 0.496644 0.801571 0.268585
H84   H     H_    0.390604 0.937843 0.789132 0.167441
H85   H     H_    0.074058 0.536740 0.918059 0.330842
H86   H     H_    0.404701 0.992492 0.806718 0.111855
H87   H     H_    0.361129 0.911796 0.846993 0.255778
H88   H     H_    0.373347 0.967892 0.864269 0.241516
H89   H     H_    0.319764 0.003169 0.821290 0.268901
H90   H     H_    0.291497 0.961008 0.847821 0.277739
H91   H     H_    0.307102 0.946833 0.804085 0.268663
H92   H     H_    0.913927 0.515674 0.802391 0.116604
H93   H     H_    0.879849 0.489488 0.836188 0.171344
H94   H     H_    0.891024 0.453402 0.761817 0.229254
H95   H     H_    0.855981 0.428027 0.795001 0.244209
H96   H     H_    0.464264 0.925462 0.916708 0.335947
H97   H     H_    0.808953 0.499836 0.797918 0.275936
H98   H     H_    0.809374 0.475850 0.755004 0.275736
H99   H     H_    0.844251 0.525280 0.764649 0.261353
H100  H     H_    0.109359 0.437786 0.710873 0.167437
H101  H     H_    0.095296 0.492442 0.693284 0.111862
H102  H     H_    0.138824 0.411719 0.653014 0.255775
H103  H     H_    0.126643 0.467823 0.635736 0.241509
H104  H     H_    0.180243 0.503067 0.678720 0.268902
H105  H     H_    0.208487 0.460890 0.652190 0.277736
H106  H     H_    0.192868 0.446721 0.695925 0.268659
H107  H     H_    0.927052 0.463684 0.914614 0.331626
H108  H     H_    0.586106 0.015610 0.697556 0.116552
H109  H     H_    0.620175 0.989309 0.663807 0.171446
H110  H     H_    0.608873 0.953396 0.738213 0.229220
H111  H     H_    0.643893 0.927879 0.705077 0.244239
H112  H     H_    0.691065 0.999583 0.702090 0.275945
H113  H     H_    0.690556 0.975704 0.745037 0.275726
H114  H     H_    0.655787 0.025180 0.735305 0.261372
H115  H     H_    0.898461 0.558605 0.715268 0.168755
H116  H     H_    0.913173 0.503694 0.698560 0.114118
H117  H     H_    0.864957 0.581340 0.657674 0.257638
H118  H     H_    0.035704 0.425450 0.583291 0.335934
H119  H     H_    0.877644 0.524805 0.641484 0.237667
H120  H     H_    0.827768 0.490327 0.687267 0.270428
H121  H     H_    0.796813 0.529870 0.660042 0.278161
H122  H     H_    0.814179 0.547310 0.702761 0.271213
H123  H     H_    0.377926 0.027084 0.711808 0.167136
H124  H     H_    0.405318 0.978589 0.692990 0.110705
H125  H     H_    0.339897 0.045161 0.654772 0.256150
H126  H     H_    0.365677 0.994383 0.636698 0.233337
H127  H     H_    0.325415 0.945948 0.680444 0.269026
H128  H     H_    0.285773 0.979256 0.654914 0.276399
N1    N     N_R   0.510530 0.037850 0.232968 -0.134546
N2    N     N_R   0.488677 0.037676 0.732769 -0.137324
N3    N     N_R   0.000240 0.458324 0.732831 -0.139337
N4    N     N_R   0.499082 0.958156 0.732919 -0.133023
N5    N     N_R   0.999710 0.458312 0.267171 -0.139339
N6    N     N_R   0.500849 0.958159 0.267082 -0.133010
N7    N     N_R   0.989521 0.537860 0.267030 -0.134508
N8    N     N_R   0.511380 0.037663 0.267229 -0.137331
N9    N     N_R   0.988667 0.537671 0.232768 -0.137305
N10   N     N_R   0.500202 0.958319 0.232831 -0.139333
N11   N     N_R   0.999060 0.458150 0.232920 -0.133017
N12   N     N_R   0.499730 0.958316 0.767170 -0.139347
N13   N     N_R   0.000887 0.458163 0.767081 -0.133016
N14   N     N_R   0.489529 0.037863 0.767030 -0.134523
N15   N     N_R   0.011357 0.537675 0.767230 -0.137332
N16   N     N_R   0.010506 0.537863 0.732969 -0.134531
O1    O     O_R   0.535610 0.936800 0.000040 -0.598454
O2    O     O_R   0.563200 0.035610 0.500040 -0.598550
O3    O     O_R   0.964390 0.563200 0.500040 -0.599631
O4    O     O_R   0.436800 0.964390 0.500040 -0.598020
O5    O     O_R   0.035610 0.563200 0.499960 -0.599630
O6    O     O_R   0.563200 0.964390 0.499960 -0.598033
O7    O     O_R   0.964390 0.436800 0.499960 -0.598450
O8    O     O_R   0.436800 0.035610 0.499960 -0.598560
O9    O     O_R   0.535610 0.999940 0.050970 -0.600651
O10   O     O_R   0.000060 0.535610 0.050970 -0.598294
O11   O     O_R   0.464390 0.000060 0.050970 -0.604099
O12   O     O_R   0.063200 0.535610 0.000040 -0.598551
O13   O     O_R   0.999940 0.464390 0.050970 -0.598969
O14   O     O_R   0.535610 0.000060 0.949030 -0.604088
O15   O     O_R   0.000060 0.464390 0.949030 -0.598984
O16   O     O_R   0.464390 0.999940 0.949030 -0.600637
O17   O     O_R   0.999940 0.535610 0.949030 -0.598326
O18   O     O_R   0.035610 0.499940 0.550970 -0.600640
O19   O     O_R   0.500060 0.035610 0.550970 -0.598306
O20   O     O_R   0.964390 0.500060 0.550970 -0.604099
O21   O     O_R   0.499940 0.964390 0.550970 -0.598968
O22   O     O_R   0.035610 0.500060 0.449030 -0.604098
O23   O     O_R   0.464390 0.063200 0.000040 -0.599629
O24   O     O_R   0.500060 0.964390 0.449030 -0.598991
O25   O     O_R   0.964390 0.499940 0.449030 -0.600632
O26   O     O_R   0.499940 0.035610 0.449030 -0.598345
O27   O     O_R   0.436800 0.499970 0.028810 -0.591170
O28   O     O_R   0.500030 0.436800 0.028810 -0.591096
O29   O     O_R   0.563200 0.500030 0.028810 -0.591632
O30   O     O_R   0.499970 0.563200 0.028810 -0.591118
O31   O     O_R   0.436800 0.500030 0.971190 -0.591630
O32   O     O_R   0.500030 0.563200 0.971190 -0.591119
O33   O     O_R   0.563200 0.499970 0.971190 -0.591168
O34   O     O_R   0.936800 0.464390 0.000040 -0.598026
O35   O     O_R   0.499970 0.436800 0.971190 -0.591095
O36   O     O_R   0.936800 0.999970 0.528810 -0.591170
O37   O     O_R   0.000030 0.936800 0.528810 -0.591096
O38   O     O_R   0.063200 0.000030 0.528810 -0.591632
O39   O     O_R   0.999970 0.063200 0.528810 -0.591119
O40   O     O_R   0.936800 0.000030 0.471190 -0.591629
O41   O     O_R   0.000030 0.063200 0.471190 -0.591118
O42   O     O_R   0.063200 0.999970 0.471190 -0.591168
O43   O     O_R   0.999970 0.936800 0.471190 -0.591094
O44   O     O_3   0.549410 0.930444 0.106337 -0.723514
O45   O     O_R   0.535610 0.063200 0.999960 -0.599626
O46   O     O_3   0.068505 0.452612 0.109275 -0.717565
O47   O     O_3   0.450919 0.067476 0.109097 -0.723384
O48   O     O_3   0.928687 0.547442 0.106070 -0.721496
O49   O     O_3   0.549148 0.067427 0.890901 -0.723369
O50   O     O_3   0.071365 0.547364 0.893928 -0.721537
O51   O     O_3   0.450524 0.930492 0.893664 -0.723494
O52   O     O_3   0.931436 0.452692 0.890727 -0.717563
O53   O     O_3   0.049441 0.430468 0.606338 -0.723498
O54   O     O_3   0.568524 0.952633 0.609272 -0.717582
O55   O     O_3   0.950891 0.567457 0.609097 -0.723383
O56   O     O_R   0.063200 0.464390 0.999960 -0.598030
O57   O     O_3   0.428674 0.047418 0.606073 -0.721513
O58   O     O_3   0.049146 0.567427 0.390898 -0.723376
O59   O     O_3   0.571395 0.047318 0.393925 -0.721564
O60   O     O_3   0.950524 0.430490 0.393667 -0.723492
O61   O     O_3   0.431401 0.952741 0.390730 -0.717566
O62   O     O_3   0.556944 0.934839 0.175728 -0.577252
O63   O     O_3   0.063392 0.451700 0.179050 -0.576954
O64   O     O_3   0.448736 0.061523 0.178613 -0.576488
O65   O     O_3   0.925729 0.544822 0.175629 -0.575816
O66   O     O_3   0.551335 0.061462 0.821385 -0.576493
O67   O     O_R   0.464390 0.936800 0.999960 -0.598452
O68   O     O_3   0.074310 0.544751 0.824368 -0.575826
O69   O     O_3   0.442983 0.934900 0.824274 -0.577247
O70   O     O_3   0.936536 0.451792 0.820952 -0.576943
O71   O     O_3   0.056982 0.434872 0.675728 -0.577248
O72   O     O_3   0.563419 0.951726 0.679047 -0.576960
O73   O     O_3   0.948711 0.561504 0.678613 -0.576490
O74   O     O_3   0.425732 0.044810 0.675634 -0.575829
O75   O     O_3   0.051327 0.561460 0.321382 -0.576490
O76   O     O_3   0.574336 0.044694 0.324365 -0.575825
O77   O     O_3   0.942974 0.434899 0.324278 -0.577248
O78   O     O_R   0.936800 0.535610 0.999960 -0.598559
O79   O     O_3   0.436492 0.951840 0.320956 -0.576938
O80   O     O_R   0.035610 0.436800 0.500040 -0.598453
Zn1   Zn    Zn3+2 0.547570 0.000000 0.000000 0.991170
Zn2   Zn    Zn3+2 0.500000 0.500000 0.961560 0.983206
Zn3   Zn    Zn3+2 0.000000 1.000000 0.538440 0.983203
Zn4   Zn    Zn3+2 0.000000 0.000000 0.461560 0.983210
Zn5   Zn    Zn3+2 0.000000 0.547570 0.000000 1.004671
Zn6   Zn    Zn3+2 0.452430 0.000000 0.000000 0.991170
Zn7   Zn    Zn3+2 1.000000 0.452430 0.000000 1.003853
Zn8   Zn    Zn3+2 0.047570 0.500000 0.500000 0.991169
Zn9   Zn    Zn3+2 0.500000 0.047570 0.500000 1.004649
Zn10  Zn    Zn3+2 0.952430 0.500000 0.500000 0.991171
Zn11  Zn    Zn3+2 0.500000 0.952430 0.500000 1.003844
Zn12  Zn    Zn3+2 0.500000 0.500000 0.038440 0.983203

loop_
_geom_bond_atom_site_label_1
_geom_bond_atom_site_label_2
_ccdc_geom_bond_type
C60   H99   S    
H85   O50   S    
H36   O60   S    
C132  C150  A    
O33   Zn2   S    
C108  C120  S    
C34   O62   S    
O4    Zn11  S    
C135  O49   S    
C121  O9    A    
C74   H5    S    
C130  C174  A    
O16   Zn6   S    
C120  O39   A    
C130  O44   S    
C82   H22   S    
C43   H60   S    
C6    C146  A    
C63   H104  S    
C9    N5    A    
O36   Zn3   S    
C10   N2    A    
C67   H115  S    
O42   Zn4   S    
C56   H91   S    
C48   H70   S    
C104  C116  S    
C161  C172  A    
C41   H55   S    
C146  O60   S    
C34   H39   S    
C116  O32   A    
C51   O68   S    
C117  O36   A    
C160  O74   S    
C14   N12   A    
C119  O42   A    
C7    C147  A    
C88   C97   S    
C20   C29   T    
C84   H28   S    
C59   C60   S    
C148  C165  A    
C80   H16   S    
C110  C118  S    
C32   C57   S    
C127  O19   A    
C45   C47   S    
C118  O37   A    
C51   C52   S    
C74   C75   S    
C113  O31   A    
C10   C171  S    
C115  O29   A    
C24   C90   T    
C103  C112  T    
C38   H47   S    
C75   C76   S    
C20   C111  S    
C136  O50   S    
C73   H128  S    
C164  C173  A    
C142  O57   S    
C163  C172  A    
O35   Zn2   S    
C39   H48   S    
C131  C149  A    
C159  O73   S    
C14   C168  S    
C50   H76   S    
C121  O11   A    
O15   Zn7   S    
N6    N10   A    
C53   H82   S    
C18   C89   S    
H41   O46   S    
C78   H15   S    
C72   C73   S    
C43   H58   S    
C44   H62   S    
C86   H31   S    
C9    N7    A    
N1    N8    A    
C65   H111  S    
C147  C164  A    
C66   H112  S    
C37   H45   S    
C64   C65   S    
C136  C153  A    
C111  O34   A    
C48   O66   S    
C151  C167  A    
C134  C151  A    
C132  O47   S    
C71   O74   S    
C40   H50   S    
C69   C70   S    
C71   H123  S    
C49   H72   S    
C138  O52   S    
C151  O65   S    
O30   Zn12  S    
C11   N16   A    
C8    N6    A    
O67   Zn6   S    
C84   O79   S    
C54   O69   S    
C143  C161  A    
C133  O2    A    
C159  C170  A    
N3    N13   A    
C86   H33   S    
O13   Zn7   S    
N5    N11   A    
C85   H29   S    
C126  O20   A    
C85   C86   S    
C99   C108  T    
C60   H98   S    
C105  C113  S    
C36   C37   S    
C52   H79   S    
C47   H68   S    
C78   C80   S    
C135  C152  A    
C89   O12   A    
H52   O47   S    
C3    C136  A    
O14   Zn1   S    
C140  C158  A    
C15   N11   A    
C141  C159  A    
C31   C46   S    
C100  O23   A    
H24   O57   S    
C56   H90   S    
H107  O52   S    
C12   N13   A    
C15   C167  S    
C163  O77   S    
C83   H26   S    
C157  O71   S    
H74   O49   S    
C158  O72   S    
C11   N3    A    
C22   C133  S    
C55   H88   S    
O24   Zn11  S    
C60   H97   S    
C39   C40   S    
C123  O10   A    
C124  O14   A    
C68   C94   T    
C72   H126  S    
C81   H19   S    
C64   H108  S    
C122  O80   A    
C16   C165  S    
C8    N8    A    
C38   O63   S    
C2    C87   T    
O28   Zn12  S    
C154  O69   S    
C132  C174  A    
C58   O70   S    
O26   Zn9   S    
C19   C28   T    
C139  C157  A    
C2    C27   S    
H1    O44   S    
N7    N9    A    
N2    N14   A    
C62   H103  S    
C58   H92   S    
C52   C53   S    
C47   H66   S    
C126  O18   A    
C54   C55   S    
C111  O78   A    
C61   H101  S    
O29   Zn12  S    
H63   O48   S    
C128  O22   A    
O2    Zn9   S    
C123  C175  S    
C148  O62   S    
C12   C169  S    
C124  C176  S    
C1    C17   S    
C37   H44   S    
C4    C126  S    
C135  C176  A    
C81   O77   S    
C6    C128  S    
C100  O45   A    
C144  O3    A    
C43   H59   S    
C36   H40   S    
C4    C139  A    
O43   Zn4   S    
C15   N9    A    
C41   O64   S    
C5    C142  A    
O12   Zn5   S    
O17   Zn5   S    
C70   H121  S    
C34   C36   S    
C61   C62   S    
C41   H54   S    
C123  O13   A    
C49   C50   S    
C12   N15   A    
C91   C99   S    
C40   H53   S    
H2    O54   S    
C75   H6    S    
C76   H9    S    
C33   C68   S    
C25   C33   T    
C7    C145  A    
C42   H56   S    
C64   H109  S    
C96   C105  T    
C45   H65   S    
C41   C42   S    
C149  C167  A    
C109  C117  S    
C162  C173  A    
C16   N10   A    
C77   C78   S    
C124  O16   A    
C80   H17   S    
O78   Zn5   S    
C42   H57   S    
C46   C92   T    
O11   Zn6   S    
C101  C109  T    
C61   O71   S    
O21   Zn11  S    
C21   C122  S    
C24   C29   S    
C127  O21   A    
H118  O53   S    
O20   Zn10  S    
C26   C166  S    
C155  O8    A    
C66   H113  S    
C1    O67   A    
C73   H127  S    
C13   C28   S    
C129  O26   A    
C143  O58   S    
C120  O41   A    
H13   O55   S    
C74   O75   S    
H37   O61   S    
C137  O51   S    
O5    Zn8   S    
C154  C168  A    
O31   Zn2   S    
C152  C168  A    
C125  O15   A    
C53   H81   S    
C134  C175  A    
C84   C85   S    
C82   H21   S    
C34   H38   S    
C36   H42   S    
C4    C141  A    
C131  O46   S    
C58   C59   S    
O7    Zn10  S    
C67   H116  S    
C98   C107  T    
C59   H94   S    
O9    Zn1   S    
C65   H110  S    
C79   C95   S    
C62   C63   S    
O22   Zn8   S    
C157  C170  A    
C149  O63   S    
C121  C174  S    
C77   O76   S    
C5    C127  S    
C129  O24   A    
C49   H71   S    
C92   C101  S    
C161  O75   S    
C97   C106  T    
C84   H27   S    
C162  O76   S    
C48   C49   S    
C141  O55   S    
C94   C103  S    
C54   H84   S    
C69   H117  S    
C23   C144  S    
C102  C110  T    
C42   C43   S    
C37   H43   S    
C86   H32   S    
C51   H77   S    
H96   O51   S    
C44   C45   S    
O45   Zn1   S    
C39   H49   S    
C93   C102  S    
C112  C119  S    
C1    O1    A    
C19   C100  S    
O19   Zn9   S    
O32   Zn2   S    
C21   C30   T    
C150  O64   S    
C23   C32   T    
C38   H46   S    
C52   H80   S    
O27   Zn12  S    
O80   Zn8   S    
C47   H67   S    
O41   Zn4   S    
O25   Zn10  S    
C38   C39   S    
C131  C175  A    
C160  C171  A    
C137  C154  A    
C115  O33   A    
C7    C129  S    
N15   N16   A    
C139  O53   S    
C71   C72   S    
C11   C170  S    
C82   C83   S    
C153  C169  A    
C9    C172  S    
C134  O48   S    
C50   H75   S    
C53   H83   S    
C25   C155  S    
O40   Zn4   S    
C117  O40   A    
C78   H14   S    
C89   O56   A    
C83   H25   S    
C75   H7    S    
C44   H61   S    
C81   C82   S    
O39   Zn3   S    
C58   H93   S    
C48   H69   S    
C30   C35   S    
C106  C114  S    
O3    Zn10  S    
C55   H87   S    
C17   C26   T    
C122  O7    A    
C140  O54   S    
C158  C171  A    
C145  C162  A    
C156  C169  A    
C71   H124  S    
N4    N12   A    
H35   O59   S    
C113  O27   A    
O23   Zn6   S    
C69   H119  S    
O10   Zn5   S    
C70   H120  S    
C57   C93   T    
H34   O58   S    
C85   H30   S    
O34   Zn7   S    
C67   O73   S    
C22   C31   T    
C130  C148  A    
O6    Zn11  S    
C54   H86   S    
C137  C176  A    
C3    C138  A    
C8    C173  S    
C155  O4    A    
C114  O35   A    
C51   H78   S    
C150  C165  A    
C118  O43   A    
C145  O59   S    
C67   C69   S    
C64   O72   S    
O38   Zn3   S    
C10   N4    A    
C87   C96   S    
C55   C56   S    
C70   H122  S    
C59   H95   S    
C16   N1    A    
C56   H89   S    
C107  C115  S    
C50   H73   S    
C116  O30   A    
C77   H11   S    
C83   H23   S    
C14   N14   A    
C152  O66   S    
C76   H10   S    
C95   C104  T    
C63   H105  S    
C5    C140  A    
C138  C156  A    
C77   H12   S    
C125  O17   A    
O37   Zn3   S    
O56   Zn7   S    
O8    Zn9   S    
C153  O68   S    
C128  O25   A    
C147  O61   S    
C18   C27   T    
C142  C160  A    
C3    C125  S    
C133  O6    A    
C80   H18   S    
C146  C163  A    
C40   H51   S    
C44   O65   S    
C45   H64   S    
C76   H8    S    
C72   H125  S    
C81   H20   S    
C156  O70   S    
C13   C88   T    
C79   C166  T    
C73   H3    S    
C164  O79   S    
C74   H4    S    
C66   H114  S    
C65   C66   S    
C61   H100  S    
C62   H102  S    
C119  O38   A    
C6    C143  A    
C63   H106  S    
O1    Zn1   S    
C90   C98   S    
O18   Zn8   S    
C144  O5    A    
C114  O28   A    
C35   C91   T    
