data_mof_unit_66325.cif
_audit_creation_date              2012-12-10T18:24:13-0500
_audit_creation_method            fapswitch 2.2
_symmetry_space_group_name_H-M    P1
_symmetry_Int_Tables_number       1
_space_group_crystal_system       triclinic
_cell_length_a                    16.101242
_cell_length_b                    16.111479
_cell_length_c                    16.091824
_cell_angle_alpha                 95.873752
_cell_angle_beta                  84.420719
_cell_angle_gamma                 90.138242
_cell_volume                      4132.74903251

loop_
_atom_site_label
_atom_site_type_symbol
_atom_type_description
_atom_site_fract_x
_atom_site_fract_y
_atom_site_fract_z
_atom_type_partial_charge
C1    C     C_R   0.510717 0.724213 0.510757 0.507948
C2    C     C_1   0.484905 0.186612 0.484976 -0.007822
C3    C     C_1   0.515475 0.482923 0.184701 -0.001066
C4    C     C_R   0.489301 0.275787 0.489259 0.508624
C5    C     C_2   0.525325 0.471986 0.018251 0.250779
C6    C     C_2   0.478885 0.523371 0.980897 -0.048285
C7    C     C_1   0.482108 0.519773 0.890662 0.025413
C8    C     C_1   0.519763 0.478167 0.109142 -0.060573
C9    C     C_1   0.485153 0.516385 0.815231 0.036477
C10   C     C_R   0.510694 0.488210 0.274584 0.510905
C11   C     C_R   0.489280 0.511808 0.725414 0.507555
C12   C     C_1   0.111410 0.520769 0.520622 0.010138
C13   C     C_R   0.724249 0.488123 0.488159 0.512240
C14   C     C_R   0.275751 0.511860 0.511820 0.510269
C15   C     C_1   0.813544 0.483170 0.483226 0.019214
C16   C     C_2   0.978993 0.473884 0.474031 0.287565
C17   C     C_2   0.021013 0.525845 0.525629 0.287105
C18   C     C_3   0.377955 0.024401 0.367369 -0.286364
C19   C     C_3   0.622165 0.975641 0.633208 -0.286439
C20   C     C_1   0.888594 0.478973 0.479063 0.011484
C21   C     C_1   0.186458 0.516647 0.516554 0.017180
C22   C     C_1   0.515289 0.813397 0.515310 -0.008836
C23   C     C_2   0.523990 0.978833 0.523863 0.166524
C24   C     C_2   0.476260 0.021188 0.476598 0.165929
C25   C     C_1   0.481056 0.111633 0.481271 -0.020615
C26   C     C_1   0.519205 0.888382 0.519144 -0.019095
H1    H     H_    0.437577 0.569101 0.018283 0.078738
H2    H     H_    0.659945 0.924168 0.596847 0.167312
H3    H     H_    0.575879 0.949995 0.679498 0.150790
H4    H     H_    0.606438 0.382207 0.008732 0.331203
H5    H     H_    0.018921 0.616074 0.615199 0.327526
H6    H     H_    0.981071 0.383657 0.384465 0.325801
H7    H     H_    0.438644 0.918597 0.397162 0.252072
H8    H     H_    0.334988 0.982645 0.332985 0.148153
H9    H     H_    0.424173 0.050073 0.321031 0.151872
H10   H     H_    0.340208 0.075861 0.403796 0.171635
H11   H     H_    0.561606 0.081453 0.603262 0.258469
H12   H     H_    0.665088 0.017403 0.667646 0.153498
N1    N     N_2   0.420248 0.977621 0.423179 -0.521778
N2    N     N_2   0.579977 0.022403 0.577307 -0.518983
O1    O     O_3   0.500000 0.500000 0.500000 -0.444541
O2    O     O_R   0.689040 0.536050 0.444000 -0.532454
O3    O     O_R   0.315570 0.560650 0.560630 -0.538436
O4    O     O_R   0.679800 0.444450 0.536560 -0.529397
O5    O     O_R   0.315590 0.458850 0.458810 -0.523165
O6    O     O_3   0.977818 0.583791 0.583139 -0.710830
O7    O     O_3   0.022181 0.415937 0.416519 -0.708886
O8    O     O_3   0.577686 0.414018 0.970159 -0.668857
O9    O     O_R   0.458170 0.444480 0.314880 -0.532189
O10   O     O_R   0.445130 0.560630 0.690220 -0.540327
O11   O     O_R   0.559450 0.679320 0.457680 -0.532976
O12   O     O_R   0.537250 0.315570 0.537220 -0.532904
O13   O     O_R   0.458120 0.689530 0.559970 -0.532203
O14   O     O_R   0.445170 0.315580 0.445130 -0.534816
O15   O     O_R   0.559480 0.536070 0.314410 -0.533933
O16   O     O_R   0.537220 0.458810 0.680490 -0.520997
Zn1   Zn    Zn3+2 0.430930 0.430930 0.430910 0.961751
Zn2   Zn    Zn3+2 0.575680 0.561790 0.430230 0.958462
Zn3   Zn    Zn3+2 0.562480 0.430910 0.562480 0.969149
Zn4   Zn    Zn3+2 0.430910 0.576380 0.576380 0.954988

loop_
_geom_bond_atom_site_label_1
_geom_bond_atom_site_label_2
_ccdc_geom_bond_type
C12   C17   S    
C5    C8    S    
C2    C4    S    
C18   N1    S    
C6    C7    S    
C19   H2    S    
O12   Zn3   S    
C14   O5    A    
C1    O11   A    
C18   H9    S    
C6    H1    S    
O16   Zn3   S    
C16   C20   S    
C23   C24   D    
O10   Zn4   S    
O2    Zn2   S    
C13   C15   S    
O1    Zn1   S    
C1    C22   S    
O11   Zn2   S    
C17   O6    S    
C10   O15   A    
C9    C11   S    
O5    Zn1   S    
H7    N1    S    
O3    Zn4   S    
C4    O12   A    
C16   O7    S    
H4    O8    S    
C13   O2    A    
C19   H12   S    
O13   Zn4   S    
O1    Zn2   S    
C2    C25   T    
C18   H8    S    
C5    C6    D    
C5    O8    S    
C23   C26   S    
C16   C17   D    
C19   N2    S    
O4    Zn3   S    
C14   C21   S    
C23   N2    S    
C19   H3    S    
H6    O7    S    
C24   N1    S    
O9    Zn1   S    
C24   C25   S    
O1    Zn3   S    
C7    C9    T    
C3    C8    T    
C22   C26   T    
O15   Zn2   S    
C3    C10   S    
H11   N2    S    
C11   O10   A    
C14   O3    A    
C1    O13   A    
C4    O14   A    
C10   O9    A    
C18   H10   S    
C12   C21   T    
O14   Zn1   S    
C13   O4    A    
C11   O16   A    
O1    Zn4   S    
C15   C20   T    
H5    O6    S    
