data_mof_unit_39640.cif
_audit_creation_date              2012-12-10T18:57:12-0500
_audit_creation_method            fapswitch 2.2
_symmetry_space_group_name_H-M    P1
_symmetry_Int_Tables_number       1
_space_group_crystal_system       triclinic
_cell_length_a                    10.726408
_cell_length_b                    9.837645
_cell_length_c                    10.642129
_cell_angle_alpha                 89.914614
_cell_angle_beta                  90.654891
_cell_angle_gamma                 91.011381
_cell_volume                      1122.73583043

loop_
_atom_site_label
_atom_site_type_symbol
_atom_type_description
_atom_site_fract_x
_atom_site_fract_y
_atom_site_fract_z
_atom_type_partial_charge
C1    C     C_R   0.259376 0.497745 0.499794 0.870242
C2    C     C_R   0.739389 0.501050 0.492374 0.883463
C3    C     C_R   0.566698 0.073108 0.588368 -0.076550
C4    C     C_R   0.433858 0.070801 0.411252 -0.074601
C5    C     C_R   0.566806 0.929185 0.588296 -0.074931
C6    C     C_R   0.433531 0.926912 0.411475 -0.067203
C7    C     C_R   0.497116 0.500481 0.260195 0.893703
C8    C     C_R   0.497440 0.499900 0.739681 0.916977
C9    C     C_R   0.564385 0.589414 0.064104 0.088849
C10   C     C_R   0.564716 0.589070 0.936758 0.086966
C11   C     C_R   0.482838 0.504600 0.128325 -0.152111
C12   C     C_R   0.485018 0.501803 0.871298 -0.162822
C13   C     C_R   0.382183 0.438589 0.064744 0.175300
C14   C     C_R   0.385475 0.433145 0.932180 0.154292
C15   C     C_3   0.703535 0.603706 0.931448 -0.483905
C16   C     C_3   0.703007 0.603978 0.074060 -0.472925
C17   C     C_R   0.058076 0.376705 0.448936 0.190278
C18   C     C_R   0.930854 0.390968 0.425313 0.191284
C19   C     C_R   0.871122 0.502749 0.479116 -0.076309
C20   C     C_R   0.125781 0.492334 0.495342 -0.087100
C21   C     C_R   0.937828 0.612006 0.530818 -0.249358
C22   C     C_R   0.064969 0.609039 0.534144 -0.241783
H1    H     H_    0.748520 0.513018 0.890740 0.197022
H2    H     H_    0.732646 0.703217 0.115488 0.209933
H3    H     H_    0.733480 0.702801 0.890318 0.200807
H4    H     H_    0.747578 0.513380 0.116567 0.192686
H5    H     H_    0.891704 0.699041 0.570324 0.169625
H6    H     H_    0.115505 0.696214 0.572480 0.176155
H7    H     H_    0.620095 0.128563 0.658944 0.131825
H8    H     H_    0.381592 0.124318 0.339854 0.129540
H9    H     H_    0.620308 0.875552 0.658811 0.125110
H10   H     H_    0.380346 0.871494 0.340713 0.132684
N1    N     N_R   0.500000 0.857200 0.500000 -0.080938
N2    N     N_R   0.500000 0.142810 0.500000 -0.079857
O1    O     O_R   0.316770 0.614620 0.499990 -0.622011
O2    O     O_R   0.683230 0.614620 0.500010 -0.627473
O3    O     O_R   0.316800 0.385290 0.500000 -0.620729
O4    O     O_R   0.683200 0.385290 0.500000 -0.611321
O5    O     O_R   0.500000 0.614690 0.316780 -0.618686
O6    O     O_R   0.500000 0.614690 0.683220 -0.619290
O7    O     O_R   0.500020 0.385360 0.316780 -0.619601
O8    O     O_R   0.499980 0.385360 0.683220 -0.622240
Zn1   Zn    Zn3+2 0.500000 0.653120 0.500000 0.944268
Zn2   Zn    Zn3+2 0.500000 0.346880 0.500000 0.932787
C23   C     C_3   0.273453 0.377866 0.135916 -0.908269
H11   H     H_    0.184550 0.418437 0.098400 0.241605
H12   H     H_    0.273033 0.265372 0.127695 0.238544
H13   H     H_    0.275891 0.406010 0.236358 0.235818
C24   C     C_3   0.287108 0.356199 0.855430 -0.863433
H14   H     H_    0.210337 0.312261 0.911774 0.238939
H15   H     H_    0.244698 0.425562 0.785173 0.224636
H16   H     H_    0.330305 0.270056 0.805978 0.253987
C25   C     C_3   0.116562 0.238310 0.431320 -0.883652
H17   H     H_    0.162253 0.205876 0.520285 0.255384
H18   H     H_    0.048023 0.155963 0.409631 0.234424
H19   H     H_    0.184510 0.241073 0.354181 0.241751
C26   C     C_3   0.861537 0.292612 0.338277 -0.884521
H20   H     H_    0.779645 0.340650 0.292939 0.235034
H21   H     H_    0.922246 0.262015 0.259699 0.233819
H22   H     H_    0.830340 0.200981 0.391146 0.253885

loop_
_geom_bond_atom_site_label_1
_geom_bond_atom_site_label_2
_ccdc_geom_bond_type
C6    H10   S    
O4    Zn2   S    
C13   C14   A    
O1    Zn1   S    
C9    C10   A    
C2    O4    A    
C18   C26   S    
O2    Zn1   S    
C6    N1    A    
C1    O3    A    
C8    C12   S    
C24   H16   S    
O3    Zn2   S    
C15   H1    S    
C17   C18   A    
C21   H5    S    
N2    Zn2   S    
C16   H2    S    
C22   H6    S    
C23   H11   S    
C7    C11   S    
C11   C13   A    
C1    O1    A    
C26   H20   S    
O8    Zn2   S    
C10   C12   A    
C21   C22   A    
C19   C21   A    
C9    C16   S    
C12   C14   A    
C18   C19   A    
C10   C15   S    
C9    C11   A    
C16   H4    S    
O7    Zn2   S    
C4    N2    A    
C15   H3    S    
C14   C24   S    
C26   H21   S    
C25   H18   S    
C8    O8    A    
C15   C16   S    
N1    Zn1   S    
C17   C25   S    
C26   H22   S    
C17   C20   A    
C23   H12   S    
C13   C23   S    
C4    C6    A    
C24   H14   S    
C25   H19   S    
C2    O2    A    
C8    O6    A    
C3    H7    S    
C7    O5    A    
C1    C20   S    
O5    Zn1   S    
C23   H13   S    
C3    N2    A    
C5    H9    S    
C2    C19   S    
C25   H17   S    
O6    Zn1   S    
C4    H8    S    
C24   H15   S    
C7    O7    A    
C20   C22   A    
C3    C5    A    
C5    N1    A    
