data_mof_unit_7624.cif
_audit_creation_date              2012-12-10T17:04:37-0500
_audit_creation_method            fapswitch 2.2
_symmetry_space_group_name_H-M    P1
_symmetry_Int_Tables_number       1
_space_group_crystal_system       triclinic
_cell_length_a                    14.875934
_cell_length_b                    10.620414
_cell_length_c                    10.080227
_cell_angle_alpha                 89.330485
_cell_angle_beta                  89.583465
_cell_angle_gamma                 90.654086
_cell_volume                      1592.30458492

loop_
_atom_site_label
_atom_site_type_symbol
_atom_type_description
_atom_site_fract_x
_atom_site_fract_y
_atom_site_fract_z
_atom_type_partial_charge
C1    C     C_R   0.490436 0.262849 0.500910 0.818370
C2    C     C_R   0.186311 0.390753 0.539457 -0.255907
C3    C     C_R   0.231981 0.499880 0.501780 -0.008548
C4    C     C_R   0.327288 0.499798 0.500462 0.872340
C5    C     C_R   0.188183 0.609512 0.466786 -0.242998
C6    C     C_2   0.461569 0.931865 0.395235 -0.126507
C7    C     C_2   0.501586 0.871569 0.495222 -0.262130
C8    C     C_2   0.464081 0.067600 0.391561 -0.172992
C9    C     C_2   0.457137 0.134763 0.503216 -0.162045
C10   C     C_2   0.541105 0.585148 0.924051 -0.040347
C11   C     C_2   0.552624 0.571760 0.072815 -0.081829
C12   C     C_R   0.907182 0.612534 0.476002 0.064394
C13   C     C_R   0.500925 0.737887 0.499022 0.934455
C14   C     C_R   0.672693 0.499582 0.499842 0.901767
C15   C     C_R   0.814052 0.611498 0.475844 -0.209556
C16   C     C_R   0.767882 0.499454 0.500637 -0.031748
C17   C     C_R   0.811917 0.388656 0.532325 -0.247253
C18   C     C_R   0.905071 0.388418 0.535547 0.080656
C19   C     C_R   0.953293 0.500463 0.505664 0.062131
C20   C     C_2   0.409050 0.088366 0.625516 0.378065
C21   C     C_2   0.581917 0.697568 0.859418 0.535416
C22   C     C_R   0.626695 0.645200 0.132165 0.213123
C23   C     C_R   0.949906 0.277631 0.566914 -0.175717
C24   C     C_R   0.714263 0.597389 0.129595 -0.094228
C25   C     C_R   0.787318 0.674415 0.163020 -0.133669
C26   C     C_R   0.773356 0.799408 0.199215 -0.128422
C27   C     C_R   0.686350 0.847490 0.202179 -0.160937
C28   C     C_R   0.613417 0.771293 0.166653 -0.148536
C29   C     C_2   0.087584 0.151926 0.597122 0.467279
C30   C     C_2   0.094032 0.849611 0.417162 0.451432
C31   C     C_R   0.043754 0.274578 0.567936 -0.035890
C32   C     C_R   0.092776 0.387023 0.537429 0.034265
C33   C     C_R   0.046954 0.500462 0.505462 0.067662
C34   C     C_R   0.094808 0.613819 0.472754 0.029276
C35   C     C_R   0.047894 0.726786 0.445016 -0.020099
C36   C     C_R   0.954055 0.723944 0.447249 -0.186410
H1    H     H_    0.777141 0.697184 0.456455 0.147290
H2    H     H_    0.917027 0.809461 0.427760 0.183043
H3    H     H_    0.432111 0.882234 0.312242 0.155899
H4    H     H_    0.421519 0.132611 0.720206 0.077381
H5    H     H_    0.556962 0.790261 0.883157 0.005444
H6    H     H_    0.726055 0.501726 0.098321 0.132326
H7    H     H_    0.854803 0.637451 0.160237 0.154481
H8    H     H_    0.829958 0.859142 0.224367 0.157014
H9    H     H_    0.675626 0.944626 0.228853 0.142941
H10   H     H_    0.547032 0.811470 0.161517 0.119937
H11   H     H_    0.156010 0.133743 0.566380 0.081168
H12   H     H_    0.533639 0.920878 0.576393 0.142659
H13   H     H_    0.162383 0.867387 0.448581 0.080548
H14   H     H_    0.486283 0.110277 0.298289 0.158513
H15   H     H_    0.479295 0.420100 0.899447 0.148992
H16   H     H_    0.447030 0.458314 0.103199 0.160390
H17   H     H_    0.773468 0.303273 0.553920 0.132048
H18   H     H_    0.911227 0.192523 0.588476 0.189517
H19   H     H_    0.225501 0.310168 0.568645 0.117766
H20   H     H_    0.228618 0.690062 0.436283 0.122574
N1    N     N_2   0.500970 0.501330 0.852150 -0.212035
N2    N     N_2   0.500990 0.501360 0.147810 -0.211546
O1    O     O_R   0.499990 0.319060 0.613040 -0.639435
O2    O     O_2   0.647093 0.688221 0.786299 -0.552262
O3    O     O_2   0.046419 0.067279 0.654892 -0.554901
O4    O     O_2   0.054964 0.934648 0.359809 -0.573654
O5    O     O_R   0.500010 0.319100 0.386900 -0.606480
O6    O     O_R   0.367830 0.499950 0.613080 -0.611627
O7    O     O_R   0.367860 0.499990 0.386940 -0.615478
O8    O     O_R   0.499990 0.680900 0.613100 -0.592279
O9    O     O_R   0.500010 0.680940 0.386960 -0.623876
O10   O     O_R   0.632140 0.500010 0.613060 -0.551446
O11   O     O_R   0.632170 0.500050 0.386920 -0.616533
O12   O     O_2   0.352333 0.004481 0.620650 -0.563536
Zn1   Zn    Zn3+2 0.499980 0.499970 0.650990 0.982588
Zn2   Zn    Zn3+2 0.500020 0.500030 0.349010 0.947704

loop_
_geom_bond_atom_site_label_1
_geom_bond_atom_site_label_2
_ccdc_geom_bond_type
C15   C16   A    
O11   Zn2   S    
C6    C8    S    
C24   C25   A    
C6    C7    D    
H15   N1    S    
C17   H17   S    
C12   C36   A    
C11   N2    D    
C24   H6    S    
C4    O6    A    
C5    H20   S    
O8    Zn1   S    
C12   C15   A    
C2    H19   S    
C28   H10   S    
C5    C34   A    
C25   H7    S    
C22   C24   A    
C36   H2    S    
C17   C18   A    
C10   C11   S    
C26   H8    S    
C29   C31   S    
C22   C28   A    
C7    H12   S    
C23   H18   S    
N2    Zn2   S    
C26   C27   A    
N1    Zn1   S    
H16   N2    S    
C30   C35   S    
C29   H11   S    
O10   Zn1   S    
C21   H5    S    
C9    C20   S    
C1    O5    A    
C12   C19   A    
C30   H13   S    
C33   C34   A    
C29   O3    D    
C13   O8    A    
C30   O4    D    
C10   C21   S    
C19   C33   A    
C4    O7    A    
C20   H4    S    
C14   O11   A    
C14   C16   S    
C16   C17   A    
C27   H9    S    
C18   C23   A    
O7    Zn2   S    
C8    H14   S    
C7    C13   S    
C10   N1    D    
C1    C9    S    
O5    Zn2   S    
C20   O12   D    
C21   O2    D    
C2    C32   A    
C34   C35   A    
C13   O9    A    
O6    Zn1   S    
C1    O1    A    
C3    C5    A    
C14   O10   A    
C6    H3    S    
C18   C19   A    
C2    C3    A    
C11   C22   S    
O9    Zn2   S    
C25   C26   A    
C31   C32   A    
C15   H1    S    
C3    C4    S    
C35   C36   A    
C32   C33   A    
O1    Zn1   S    
C8    C9    D    
C27   C28   A    
C23   C31   A    
