data_mof_unit_14642.cif
_audit_creation_date              2012-12-10T17:48:58-0500
_audit_creation_method            fapswitch 2.2
_symmetry_space_group_name_H-M    P1
_symmetry_Int_Tables_number       1
_space_group_crystal_system       triclinic
_cell_length_a                    10.761973
_cell_length_b                    14.782165
_cell_length_c                    14.773254
_cell_angle_alpha                 64.602147
_cell_angle_beta                  104.803939
_cell_angle_gamma                 103.169489
_cell_volume                      2033.69056355

loop_
_atom_site_label
_atom_site_type_symbol
_atom_type_description
_atom_site_fract_x
_atom_site_fract_y
_atom_site_fract_z
_atom_type_partial_charge
C1    C     C_R   0.476675 0.119784 0.311899 0.820684
C2    C     C_3   0.879020 0.002123 0.499803 0.023682
C3    C     C_3   0.928477 0.904018 0.585009 0.266102
C4    C     C_3   0.965391 0.096792 0.515560 0.288315
C5    C     C_R   0.449593 0.187433 0.203452 -0.091596
C6    C     C_R   0.533492 0.810609 0.797581 -0.145010
C7    C     C_R   0.351466 0.215884 0.027732 0.157160
C8    C     C_R   0.386280 0.149863 0.128794 -0.159669
C9    C     C_R   0.478042 0.291734 0.175989 -0.244162
C10   C     C_R   0.431960 0.360032 0.077783 0.076348
C11   C     C_R   0.375237 0.321577 0.001293 0.111459
C12   C     C_R   0.260049 0.001215 0.498390 0.859225
C13   C     C_R   0.448729 0.466145 0.052875 -0.076901
C14   C     C_R   0.436131 0.533611 0.948808 0.051034
C15   C     C_R   0.379328 0.493105 0.874101 -0.163601
C16   C     C_R   0.346182 0.389600 0.900373 -0.180116
C17   C     C_R   0.477748 0.507199 0.128482 0.344994
C18   C     C_R   0.527437 0.608932 0.104329 0.165731
C19   C     C_R   0.531024 0.674988 0.002359 -0.080401
C20   C     C_R   0.481059 0.638713 0.923472 0.059790
C21   C     C_R   0.582497 0.777264 0.977645 -0.111618
C22   C     C_R   0.587773 0.843869 0.877417 0.414038
C23   C     C_R   0.523947 0.879842 0.688426 0.846179
C24   C     C_R   0.482705 0.708370 0.821927 -0.222949
C25   C     C_R   0.713190 0.285098 0.671222 -0.222265
C26   C     C_R   0.686049 0.206323 0.639878 0.607411
C27   C     C_R   0.512420 0.283054 0.512063 -0.021257
C28   C     C_R   0.538834 0.367432 0.541417 -0.003739
C29   C     C_R   0.641405 0.364951 0.623133 0.013056
C30   C     C_R   0.470748 0.454335 0.492685 0.083267
C31   C     C_R   0.510731 0.538049 0.525049 0.027841
C32   C     C_R   0.619797 0.530891 0.606118 0.107462
C33   C     C_R   0.677756 0.443694 0.655448 -0.157479
C34   C     C_R   0.740034 0.000829 0.499288 0.843681
C35   C     C_R   0.366764 0.461401 0.410554 -0.140258
C36   C     C_R   0.310449 0.549482 0.354943 -0.141857
C37   C     C_R   0.349876 0.632149 0.382450 0.153655
C38   C     C_R   0.443625 0.625599 0.471208 -0.006751
C39   C     C_R   0.294391 0.721364 0.322397 -0.272470
C40   C     C_R   0.331392 0.803533 0.350650 0.090178
C41   C     C_R   0.462852 0.707236 0.501729 0.037879
C42   C     C_3   0.034967 0.000703 0.396892 -0.038844
C43   C     C_3   0.892985 0.006876 0.395731 -0.592670
C44   C     C_3   0.075222 0.907183 0.588904 -0.040479
C45   C     C_3   0.106697 0.098792 0.509912 -0.385965
C46   C     C_3   0.122567 0.002385 0.498412 -0.061310
Cu1   Cu    Cu3+1 0.465900 0.918260 0.475680 0.965356
Cu2   Cu    Cu3+1 0.534100 0.081740 0.524320 0.986464
H1    H     H_    0.037925 0.928222 0.391868 0.167846
H2    H     H_    0.302106 0.363771 0.839687 0.174265
H3    H     H_    0.446264 0.684642 0.759676 0.165337
H4    H     H_    0.363411 0.069131 0.148829 0.176966
H5    H     H_    0.537977 0.318975 0.232321 0.210801
H6    H     H_    0.356239 0.539182 0.794138 0.139775
H7    H     H_    0.623725 0.806814 0.035846 0.195526
H8    H     H_    0.759221 0.439253 0.717569 0.175660
H9    H     H_    0.508291 0.700275 0.576792 0.162501
H10   H     H_    0.291206 0.873249 0.303024 0.141931
H11   H     H_    0.235036 0.552929 0.289319 0.152494
H12   H     H_    0.793101 0.283822 0.733717 0.178486
H13   H     H_    0.434545 0.277968 0.451310 0.149324
H14   H     H_    0.861154 0.078063 0.334099 0.217026
H15   H     H_    0.328631 0.400412 0.385465 0.141438
H16   H     H_    0.224307 0.727994 0.253314 0.158967
H17   H     H_    0.828713 0.943425 0.378708 0.213112
H18   H     H_    0.086704 0.838424 0.580331 0.105461
H19   H     H_    0.874494 0.840114 0.563979 0.105747
H20   H     H_    0.172290 0.105397 0.579088 0.229531
H21   H     H_    0.135747 0.167788 0.444418 0.157719
H22   H     H_    0.928586 0.166344 0.453278 0.084787
N1    N     N_R   0.585360 0.204570 0.560800 -0.243958
N2    N     N_R   0.414550 0.795430 0.439160 -0.188341
O1    O     O_R   0.455060 0.022100 0.338110 -0.587059
O2    O     O_R   0.512640 0.160150 0.379180 -0.587808
O3    O     O_R   0.288900 0.930980 0.479450 -0.590234
O4    O     O_R   0.346480 0.069030 0.520520 -0.577461
O5    O     O_R   0.487360 0.839850 0.620820 -0.590671
O6    O     O_R   0.544940 0.977900 0.661890 -0.568655
O7    O     O_R   0.653520 0.930970 0.479480 -0.579201
O8    O     O_R   0.711100 0.069020 0.520550 -0.586908
O9    O     O_3   0.960337 0.095814 0.610171 -0.617794
H23   H     H_    0.992549 0.165507 0.606814 0.335807
I1    I     I_    0.195779 0.894393 0.735539 -0.249429
O10   O     O_3   0.902792 0.889970 0.679219 -0.646016
H24   H     H_    0.903305 0.817099 0.723482 0.350979
O11   O     O_3   0.651034 0.939746 0.860933 -0.670192
H25   H     H_    0.714907 0.951129 0.818175 0.353975
I2    I     I_    0.594031 0.658014 0.227605 -0.319833
I3    I     I_    0.261914 0.148459 0.921257 -0.282892
I4    I     I_    0.100174 0.117604 0.261535 -0.411281
O12   O     O_3   0.448722 0.452289 0.224752 -0.731403
H26   H     H_    0.369666 0.403590 0.219431 0.324532
O13   O     O_3   0.765534 0.132649 0.692963 -0.702204
H27   H     H_    0.736831 0.078483 0.668840 0.391838
I5    I     I_    0.735950 0.642490 0.659130 -0.470116

loop_
_geom_bond_atom_site_label_1
_geom_bond_atom_site_label_2
_ccdc_geom_bond_type
O13   H27   S    
Cu2   O4    S    
C44   H18   S    
C19   C20   A    
C17   O12   S    
Cu1   O7    S    
C44   I1    S    
C4    H22   S    
O9    H23   S    
C7    C8    A    
C45   C46   S    
C7    C11   A    
C39   H16   S    
C30   C35   A    
C1    C5    S    
C1    O2    A    
C36   C37   A    
C19   C21   A    
C16   H2    S    
C30   C31   A    
C15   C16   A    
C7    I3    S    
C29   C33   A    
C18   C19   A    
C42   C46   S    
Cu2   O6    S    
C20   C24   A    
C27   H13   S    
C34   O8    A    
C4    O9    S    
C31   C32   A    
C25   H12   S    
C9    C10   A    
C8    H4    S    
C36   H11   S    
C24   H3    S    
C21   C22   A    
C26   N1    A    
C44   C46   S    
C4    C45   S    
C25   C29   A    
C3    C44   S    
C40   H10   S    
C45   H21   S    
C15   H6    S    
Cu2   O2    S    
O10   H24   S    
Cu1   O1    S    
C38   C41   A    
C12   C46   S    
O12   H26   S    
C21   H7    S    
O11   H25   S    
C25   C26   A    
C18   I2    S    
C42   I4    S    
C35   C36   A    
C2    C4    S    
C5    C9    A    
C37   C38   A    
C14   C20   A    
C34   O7    A    
C11   C16   A    
Cu1   Cu2   S    
C2    C43   S    
C43   H17   S    
C6    C24   A    
C45   H20   S    
C17   C18   A    
C23   O5    A    
C41   N2    A    
C12   O4    A    
C9    H5    S    
C42   C43   S    
Cu1   O5    S    
Cu2   N1    S    
C39   C40   A    
C27   N1    A    
C28   C29   A    
C40   N2    A    
C3    H19   S    
C10   C13   A    
C5    C8    A    
C31   C38   A    
C13   C17   A    
C1    O1    A    
C32   C33   A    
Cu2   O8    S    
C28   C30   A    
C2    C3    S    
C41   H9    S    
C37   C39   A    
C2    C34   S    
C33   H8    S    
C6    C23   S    
C22   O11   S    
C23   O6    A    
Cu1   N2    S    
C26   O13   S    
C10   C11   A    
C42   H1    S    
Cu1   O3    S    
C32   I5    S    
C12   O3    A    
C3    O10   S    
C14   C15   A    
C35   H15   S    
C13   C14   A    
C43   H14   S    
C27   C28   A    
C6    C22   A    
