data_mof_unit_67810.cif
_audit_creation_date              2013-03-05T15:41:23-0500
_audit_creation_method            fapswitch 2.2
_symmetry_space_group_name_H-M    P1
_symmetry_Int_Tables_number       1
_space_group_crystal_system       triclinic
_cell_length_a                    7.884011
_cell_length_b                    8.838625
_cell_length_c                    10.810439
_cell_angle_alpha                 91.99227
_cell_angle_beta                  85.360398
_cell_angle_gamma                 94.09982
_cell_volume                      748.604507415

loop_
_atom_site_label
_atom_site_type_symbol
_atom_site_description
_atom_site_fract_x
_atom_site_fract_y
_atom_site_fract_z
_atom_type_partial_charge
O1    O     O_R   0.389250 0.738570 0.508370 -0.558313
O2    O     O_R   0.678390 0.711620 0.486510 -0.655648
C1    C     C_R   0.544599 0.794336 0.496939 0.948012
O3    O     O_R   0.355430 0.513500 0.696140 -0.651019
O4    O     O_R   0.644580 0.486550 0.674270 -0.616920
C2    C     C_R   0.502203 0.502428 0.741511 0.865399
Zn1   Zn    Zn3+2 0.306940 0.517990 0.514600 0.978168
Zn2   Zn    Zn3+2 0.693060 0.482010 0.485400 0.953424
O5    O     O_R   0.321610 0.288380 0.513490 -0.579658
O6    O     O_R   0.610750 0.261430 0.491630 -0.611272
O7    O     O_R   0.355420 0.513450 0.325730 -0.604274
O8    O     O_R   0.644570 0.486500 0.303860 -0.648034
C3    C     C_R   0.452779 0.205593 0.509012 0.793792
C4    C     C_R   0.499851 0.507152 0.257669 0.815013
C5    C     C_3   0.382415 0.622757 0.933749 -0.529090
H1    H     H_    0.419846 0.737184 0.898255 0.149974
C6    C     C_3   0.377522 0.627602 0.075957 0.396280
H2    H     H_    0.427978 0.742609 0.108168 0.027383
H3    H     H_    0.315423 0.315448 0.903497 0.068752
H4    H     H_    0.317690 0.310218 0.107897 0.131547
C7    C     C_3   0.447889 0.345033 0.926861 0.339085
C8    C     C_3   0.685851 0.550749 0.919012 -0.391601
C9    C     C_3   0.505223 0.504958 0.877445 0.071782
H5    H     H_    0.777770 0.467732 0.882248 0.229183
C10   C     C_3   0.498734 0.511227 0.119666 0.072044
C11   C     C_3   0.445277 0.351077 0.069287 -0.441721
C12   C     C_3   0.680800 0.558479 0.061053 -0.505519
H6    H     H_    0.776553 0.483822 0.089929 0.213818
H7    H     H_    0.530762 0.270712 0.098796 0.184839
C13   C     C_2   0.560628 0.957954 0.491630 -0.497949
H8    H     H_    0.681535 0.008089 0.453709 0.146548
C14   C     C_2   0.425987 0.041982 0.527383 0.316559
N1    N     N_2   0.950330 0.457950 0.465890 0.084807
N2    N     N_2   0.049670 0.542050 0.534110 -0.137354
H9    H     H_    0.988825 0.623625 0.587530 0.147671
H10   H     H_    0.251569 0.593410 0.904227 0.218297
O9    O     O_3   0.562194 0.239109 0.872745 -0.636362
C15   C     C_3   0.505553 0.086293 0.896422 0.078221
H11   H     H_    0.423694 0.040777 0.823529 0.175040
H12   H     H_    0.429140 0.071485 0.986841 0.076802
C16   C     C_3   0.661653 0.992341 0.895905 -0.349950
H13   H     H_    0.773957 0.064758 0.923053 0.252596
H14   H     H_    0.637386 0.901972 0.965019 0.161799
C17   C     C_3   0.706565 0.920557 0.768525 -0.877066
H15   H     H_    0.604607 0.835039 0.743517 0.248658
H16   H     H_    0.827284 0.863979 0.769726 0.228718
H17   H     H_    0.722421 0.007811 0.697075 0.277127
O10   O     O_3   0.282100 0.970203 0.593275 -0.631322
C18   C     C_3   0.133663 0.050716 0.616731 0.102179
H18   H     H_    0.025616 0.965217 0.631077 0.140230
H19   H     H_    0.100597 0.113803 0.536787 0.202250
C19   C     C_3   0.141689 0.144720 0.737067 -0.391267
H20   H     H_    0.128454 0.067390 0.816782 0.190752
H21   H     H_    0.267946 0.206661 0.733671 0.232098
C20   C     C_3   0.006917 0.260373 0.755948 -0.830915
H22   H     H_    0.051633 0.364962 0.707148 0.284374
H23   H     H_    0.987045 0.290185 0.856416 0.230213
H24   H     H_    0.884041 0.217572 0.721252 0.290243
O11   O     O_3   0.028898 0.340979 0.411357 -0.548344
C21   C     C_3   0.994494 0.332318 0.286063 0.214485
H25   H     H_    0.114280 0.360463 0.231835 0.165372
H26   H     H_    0.910130 0.416156 0.257887 0.172521
C22   C     C_3   0.935640 0.170208 0.252885 -0.441250
H27   H     H_    0.041758 0.112762 0.201033 0.202452
H28   H     H_    0.894113 0.114749 0.340735 0.266613
C23   C     C_3   0.783085 0.155622 0.177932 -0.993447
H29   H     H_    0.672238 0.192584 0.238194 0.287306
H30   H     H_    0.755886 0.034620 0.150757 0.247471
H31   H     H_    0.808998 0.224016 0.093617 0.274237
O12   O     O_3   0.206412 0.591474 0.120004 -0.664429
C24   C     C_3   0.122799 0.723753 0.155879 -0.029557
H32   H     H_    0.986180 0.699426 0.142839 0.170511
H33   H     H_    0.166830 0.824683 0.099590 0.124554
C25   C     C_3   0.145188 0.753629 0.292256 -0.259796
H34   H     H_    0.112852 0.645549 0.335836 0.276225
H35   H     H_    0.279733 0.792391 0.305323 0.215830
C26   C     C_3   0.027795 0.863060 0.355541 -0.986668
H36   H     H_    0.101388 0.973795 0.359211 0.258593
H37   H     H_    0.992302 0.829403 0.452135 0.275151
H38   H     H_    0.908457 0.864814 0.307857 0.267259
H39   H     H_    0.734528 0.661585 0.882287 0.177205
H40   H     H_    0.717519 0.676447 0.092570 0.149283

loop_
_geom_bond_atom_site_label_1
_geom_bond_atom_site_label_2
_geom_bond_distance
_ccdc_geom_bond_type
C23   H30   1.109804 S    
C20   H22   1.101991 S    
C22   H28   1.099319 S    
C14   O10   1.412295 S    
C16   H13   1.108022 S    
C3    C14   1.464499 S    
C7    C11   1.537275 S    
C26   H36   1.102715 S    
C17   H15   1.106635 S    
Zn1   O7    2.046157 S    
C25   H35   1.109702 S    
C21   C22   1.514290 S    
O4    C2    1.300589 A    
C21   H26   1.096912 S    
C15   H12   1.112594 S    
C13   H8    1.078002 S    
O7    C4    1.308344 A    
C23   H31   1.108381 S    
C5    H1    1.105983 S    
Zn1   O5    2.040534 S    
N2    H9    1.029155 S    
O5    C3    1.305693 A    
C19   H21   1.099758 S    
C18   H19   1.102957 S    
C25   C26   1.496574 S    
O12   C24   1.410398 S    
C17   H17   1.104089 S    
C5    C9    1.548133 S    
C23   H29   1.108500 S    
C22   C23   1.499325 S    
O11   C21   1.401183 S    
N1    O11   1.337993 S    
C16   H14   1.108753 S    
O3    Zn1   2.031798 S    
C17   H16   1.107510 S    
N1    N2    1.296883 D    
C26   H37   1.104359 S    
C25   H34   1.084688 S    
C8    H39   1.101465 S    
C15   C16   1.532613 S    
O3    C2    1.304036 A    
C24   H33   1.116191 S    
C10   C11   1.541472 S    
C21   H25   1.088308 S    
O1    C1    1.285192 A    
C1    C13   1.445372 S    
O9    C15   1.417249 S    
C24   C25   1.510894 S    
Zn2   O8    2.031797 S    
C18   C19   1.522275 S    
C6    H2    1.119268 S    
O10   C18   1.413783 S    
O8    C4    1.308716 A    
C8    C12   1.532088 S    
C20   H23   1.109985 S    
C16   C17   1.522056 S    
C8    H5    1.109363 S    
C5    H10   1.114703 S    
C19   H20   1.112146 S    
C26   H38   1.110086 S    
C5    C6    1.533867 S    
H3    C7    1.105393 S    
O1    Zn1   2.011925 S    
C12   H40   1.111379 S    
O2    Zn2   2.040534 S    
O6    C3    1.307941 A    
O4    Zn2   2.046158 S    
C19   C20   1.523575 S    
C10   C12   1.556234 S    
C6    C10   1.562670 S    
C7    C9    1.552355 S    
O2    C1    1.321031 A    
C24   H32   1.102545 S    
C13   C14   1.361684 D    
C15   H11   1.105625 S    
H4    C11   1.098674 S    
C2    C9    1.470990 S    
Zn1   N2    2.047715 S    
Zn2   N1    2.047715 S    
C4    C10   1.494310 S    
C22   H27   1.112234 S    
C6    O12   1.411965 S    
C7    O9    1.424142 S    
C11   H7    1.086067 S    
Zn2   O6    2.011923 S    
C18   H18   1.102492 S    
C20   H24   1.103997 S    
C12   H6    1.107447 S    
C8    C9    1.549902 S    
