data_mof_unit_36728.cif
_audit_creation_date              2012-12-11T15:20:31-0500
_audit_creation_method            fapswitch 2.2
_symmetry_space_group_name_H-M    P1
_symmetry_Int_Tables_number       1
_space_group_crystal_system       triclinic
_cell_length_a                    21.571386
_cell_length_b                    7.239961
_cell_length_c                    19.941557
_cell_angle_alpha                 89.999313
_cell_angle_beta                  87.643014
_cell_angle_gamma                 89.999508
_cell_volume                      3111.75765389

loop_
_atom_site_label
_atom_site_type_symbol
_atom_type_description
_atom_site_fract_x
_atom_site_fract_y
_atom_site_fract_z
_atom_type_partial_charge
O1    O     O_R   0.688010 0.379840 0.189360 -0.540003
O2    O     O_R   0.311990 0.620160 0.810640 -0.543404
O3    O     O_R   0.811990 0.879840 0.310640 -0.539988
O4    O     O_R   0.188010 0.120160 0.689360 -0.543384
O5    O     O_R   0.808630 0.708850 0.184280 -0.523475
O6    O     O_R   0.191370 0.291150 0.815720 -0.529456
O7    O     O_R   0.691370 0.208850 0.315720 -0.523501
O8    O     O_R   0.308630 0.791150 0.684280 -0.529485
C1    C     C_R   0.830389 0.540946 0.166610 0.730331
C2    C     C_R   0.169585 0.459026 0.833359 0.733635
C3    C     C_R   0.669610 0.040946 0.333390 0.730333
C4    C     C_R   0.330415 0.959026 0.666640 0.733651
O9    O     O_R   0.688260 0.709510 0.181570 -0.532779
O10   O     O_R   0.311740 0.290490 0.818430 -0.529584
O11   O     O_R   0.811740 0.209510 0.318430 -0.532810
O12   O     O_R   0.188260 0.790490 0.681570 -0.529633
O13   O     O_R   0.690760 0.880550 0.307920 -0.528910
O14   O     O_R   0.309240 0.119450 0.692080 -0.520579
O15   O     O_R   0.809240 0.380550 0.192080 -0.528927
O16   O     O_R   0.190760 0.619450 0.807920 -0.520585
C5    C     C_R   0.669115 0.540613 0.165398 0.739310
C6    C     C_R   0.331548 0.458868 0.834032 0.741054
C7    C     C_R   0.830885 0.040611 0.334603 0.739321
C8    C     C_R   0.168454 0.958870 0.665966 0.741030
O17   O     O_3   0.750960 0.546580 0.291460 -0.376329
O18   O     O_3   0.249040 0.453420 0.708540 -0.380003
O19   O     O_3   0.749040 0.046580 0.208540 -0.376303
O20   O     O_3   0.250960 0.953420 0.791460 -0.380021
V1    V     V_3+5 0.749820 0.821150 0.242310 1.403495
V2    V     V_3+5 0.250180 0.178850 0.757690 1.398999
V3    V     V_3+5 0.750180 0.321150 0.257690 1.403401
V4    V     V_3+5 0.249820 0.678850 0.742310 1.398912
C9    C     C_R   0.057917 0.032251 0.638669 -0.113734
C10   C     C_R   0.943953 0.032165 0.360563 -0.117154
C11   C     C_R   0.442074 0.532393 0.861340 -0.113732
C12   C     C_R   0.556049 0.532000 0.139441 -0.117142
C13   C     C_R   0.117604 0.966975 0.617991 -0.227207
C14   C     C_R   0.880951 0.029129 0.383127 -0.232484
C15   C     C_R   0.382401 0.466971 0.882005 -0.227193
C16   C     C_R   0.619050 0.529137 0.116873 -0.232528
C17   C     C_R   0.129359 0.911594 0.551005 0.370659
C18   C     C_R   0.865471 0.011392 0.452026 0.378394
C19   C     C_R   0.370662 0.411446 0.948978 0.370638
C20   C     C_R   0.634532 0.511565 0.047970 0.378440
C21   C     C_R   0.083962 0.945703 0.502947 0.002373
C22   C     C_R   0.913027 0.022159 0.498846 0.014642
C23   C     C_R   0.416054 0.445545 0.997042 0.002326
C24   C     C_R   0.586972 0.522324 0.001155 0.014682
C25   C     C_R   0.022587 0.989604 0.524534 -0.008681
C26   C     C_R   0.975635 0.002274 0.476634 -0.009740
C27   C     C_R   0.477418 0.489603 0.975463 -0.008680
C28   C     C_R   0.524369 0.502272 0.023364 -0.009748
C29   C     C_R   0.008019 0.018093 0.593942 0.085995
C30   C     C_R   0.991071 0.991659 0.406725 0.084246
C31   C     C_R   0.491977 0.518251 0.906062 0.085991
C32   C     C_R   0.508938 0.491490 0.093270 0.084233
C33   C     C_R   0.098445 0.928617 0.434008 -0.270473
C34   C     C_R   0.898583 0.042460 0.567610 -0.272969
C35   C     C_R   0.401578 0.428304 0.065978 -0.270415
C36   C     C_R   0.601408 0.542788 0.932396 -0.272967
C37   C     C_R   0.052893 0.941748 0.386295 0.012913
C38   C     C_R   0.944269 0.032303 0.615271 0.016377
C39   C     C_R   0.447129 0.441421 0.113691 0.012904
C40   C     C_R   0.555724 0.532633 0.884734 0.016373
H1    H     H_    0.145491 0.896775 0.416777 0.141699
H2    H     H_    0.850558 0.057485 0.584992 0.144818
H3    H     H_    0.354539 0.396361 0.083204 0.141670
H4    H     H_    0.649430 0.557946 0.915016 0.144820
C41   C     C_1   0.382654 0.969030 0.614528 -0.176968
C42   C     C_1   0.617451 0.030812 0.385589 -0.179311
C43   C     C_1   0.117346 0.469030 0.885472 -0.176984
C44   C     C_1   0.882548 0.530812 0.114410 -0.179285
C45   C     C_1   0.426286 0.979742 0.571781 0.027315
C46   C     C_1   0.573872 0.019976 0.428392 0.027839
C47   C     C_1   0.073714 0.479742 0.928219 0.027333
C48   C     C_1   0.926128 0.519976 0.071608 0.027822
C49   C     C_1   0.478190 0.993761 0.521348 0.022580
C50   C     C_1   0.521997 0.005883 0.478855 0.022701
C51   C     C_1   0.021810 0.493761 0.978652 0.022592
C52   C     C_1   0.978002 0.505883 0.021145 0.022697
C53   C     C_2   0.050568 0.129517 0.704248 0.477179
H5    H     H_    0.075035 0.081455 0.747398 0.036131
O21   O     O_2   0.019045 0.269218 0.709777 -0.529810
C54   C     C_2   0.959033 0.098275 0.291101 0.487333
H6    H     H_    0.928600 0.066702 0.250650 0.024840
O22   O     O_2   0.004139 0.196593 0.279131 -0.520388
C55   C     C_2   0.449402 0.629772 0.795782 0.477136
H7    H     H_    0.424960 0.581697 0.752616 0.036176
O23   O     O_2   0.480878 0.769572 0.790286 -0.529848
C56   C     C_2   0.540956 0.597949 0.208920 0.487360
H8    H     H_    0.571399 0.566365 0.249362 0.024824
O24   O     O_2   0.495825 0.696150 0.220917 -0.520381
O25   O     O_3   0.187985 0.844760 0.532335 -0.577665
C57   C     C_3   0.184710 0.661011 0.507582 0.032995
H9    H     H_    0.213111 0.654877 0.459863 0.148853
H10   H     H_    0.137053 0.613567 0.496056 0.121348
C58   C     C_3   0.211677 0.525644 0.557413 -0.260978
H11   H     H_    0.257354 0.576992 0.573322 0.212622
H12   H     H_    0.179437 0.514594 0.602073 0.213902
C59   C     C_3   0.220087 0.333796 0.526629 -0.788126
H13   H     H_    0.174860 0.279671 0.510597 0.235637
H14   H     H_    0.238778 0.238078 0.564308 0.245892
H15   H     H_    0.253253 0.339135 0.482572 0.229283
O26   O     O_3   0.803316 0.998206 0.472732 -0.581281
C60   C     C_3   0.790348 0.820970 0.500652 0.012081
H16   H     H_    0.748881 0.835124 0.535179 0.157536
H17   H     H_    0.828119 0.765856 0.531390 0.129021
C61   C     C_3   0.775778 0.680090 0.446228 -0.295305
H18   H     H_    0.737012 0.732430 0.416668 0.214407
H19   H     H_    0.817387 0.660044 0.412363 0.207040
C62   C     C_3   0.757535 0.493216 0.476540 -0.766253
H20   H     H_    0.796173 0.436061 0.505323 0.237256
H21   H     H_    0.747147 0.394827 0.435784 0.252785
H22   H     H_    0.715555 0.507433 0.510299 0.223951
O27   O     O_3   0.312051 0.344465 0.967634 -0.577641
C63   C     C_3   0.315371 0.160697 0.992362 0.033102
H23   H     H_    0.287052 0.154520 0.040135 0.148791
H24   H     H_    0.363053 0.113228 0.003776 0.121324
C64   C     C_3   0.288310 0.025390 0.942576 -0.260890
H25   H     H_    0.242606 0.076780 0.926759 0.212547
H26   H     H_    0.320478 0.014355 0.897858 0.213980
C65   C     C_3   0.279938 0.833525 0.973359 -0.788148
H27   H     H_    0.325191 0.779368 0.989298 0.235616
H28   H     H_    0.261178 0.737845 0.935710 0.245846
H29   H     H_    0.246843 0.838850 0.017477 0.229296
O28   O     O_3   0.696690 0.498518 0.027259 -0.581291
C66   C     C_3   0.709695 0.321327 0.999322 0.012083
H30   H     H_    0.751218 0.335523 0.964877 0.157554
H31   H     H_    0.671976 0.266318 0.968491 0.129055
C67   C     C_3   0.724167 0.180313 0.053739 -0.295491
H32   H     H_    0.762896 0.232541 0.083377 0.214467
H33   H     H_    0.682512 0.160250 0.087535 0.206978
C68   C     C_3   0.742428 0.993478 0.023408 -0.766200
H34   H     H_    0.703833 0.936457 0.994528 0.237234
H35   H     H_    0.752726 0.894977 0.064161 0.252830
H36   H     H_    0.784465 0.007701 0.989737 0.223943
C69   C     C_2   0.071202 0.874146 0.318109 0.452421
H37   H     H_    0.118139 0.896706 0.298041 0.042847
O29   O     O_2   0.035636 0.782160 0.285679 -0.521823
C70   C     C_2   0.921115 0.008979 0.685817 0.440721
H38   H     H_    0.879281 0.080207 0.703512 0.044839
O30   O     O_2   0.945852 0.900771 0.723336 -0.525240
C71   C     C_2   0.428840 0.373640 0.181860 0.452408
H39   H     H_    0.381897 0.396055 0.201935 0.042853
O31   O     O_2   0.464431 0.281665 0.214264 -0.521831
C72   C     C_2   0.578880 0.509499 0.814182 0.440673
H40   H     H_    0.620690 0.580879 0.796501 0.044860
O32   O     O_2   0.554177 0.401287 0.776639 -0.525257

loop_
_geom_bond_atom_site_label_1
_geom_bond_atom_site_label_2
_ccdc_geom_bond_type
C34   C38   A    
C55   H7    S    
O17   V3    S    
O25   C57   S    
O19   V1    S    
O13   V1    S    
C60   H16   S    
O3    C7    A    
C62   H20   S    
C1    C44   S    
C44   C48   T    
O15   V3    S    
C53   H5    S    
C3    C42   S    
C49   C50   T    
C61   H18   S    
O1    C5    A    
C60   H17   S    
C20   O28   S    
O28   C66   S    
O9    V1    S    
C70   O30   D    
C14   C18   A    
C11   C15   A    
O4    C8    A    
C11   C55   S    
C71   H39   S    
C58   H11   S    
O1    V3    S    
C63   H23   S    
O2    V4    S    
C18   C22   A    
C33   C37   A    
O3    V1    S    
C45   C49   S    
C42   C46   T    
C19   O27   S    
C56   O24   D    
C1    O15   A    
C17   O25   S    
C2    O16   A    
O2    C6    A    
C68   H36   S    
C41   C45   T    
O14   V2    S    
C16   C20   A    
O5    V1    S    
C35   H3    S    
C2    C43   S    
O11   C7    A    
O12   C8    A    
C22   C34   A    
C10   C54   S    
O10   V2    S    
O26   C60   S    
C58   H12   S    
C34   H2    S    
C24   C36   A    
C72   O32   D    
C64   H26   S    
C9    C29   A    
C60   C61   S    
O7    V3    S    
C11   C31   A    
C27   C28   A    
O8    V4    S    
C12   C16   A    
C70   H38   S    
O18   V4    S    
C23   C27   A    
C57   C58   S    
C59   H15   S    
C9    C13   A    
C67   H33   S    
C66   H31   S    
O5    C1    A    
C12   C32   A    
C69   O29   D    
C29   C38   A    
O7    C3    A    
C21   C25   A    
O8    C4    A    
C21   C33   A    
C31   C40   A    
C59   H14   S    
C8    C13   S    
C32   C39   A    
O9    C5    A    
C62   H21   S    
C26   C30   A    
C54   H6    S    
C57   H10   S    
C61   H19   S    
O6    V2    S    
C4    C41   S    
C9    C53   S    
C10   C30   A    
C55   O23   D    
C68   H34   S    
C67   C68   S    
C65   H28   S    
C66   H30   S    
C58   C59   S    
O27   C63   S    
C72   H40   S    
O16   V4    S    
C64   C65   S    
C12   C56   S    
C71   O31   D    
C3    O13   A    
C17   C21   A    
C40   C72   S    
C10   C14   A    
C48   C52   S    
C33   H1    S    
C18   O26   S    
C53   O21   D    
C15   C19   A    
C64   H25   S    
C61   C62   S    
O11   V3    S    
C30   C37   A    
O12   V4    S    
C7    C14   S    
C69   H37   S    
C22   C26   A    
C35   C39   A    
C63   C64   S    
C36   C40   A    
O10   C6    A    
C65   H29   S    
O20   V2    S    
C67   H32   S    
C66   C67   S    
C43   C47   T    
C37   C69   S    
C56   H8    S    
C5    C16   S    
C19   C23   A    
C25   C29   A    
C6    C15   S    
C59   H13   S    
C63   H24   S    
C62   H22   S    
C27   C31   A    
C13   C17   A    
C57   H9    S    
O6    C2    A    
C23   C35   A    
C51   C52   T    
C28   C32   A    
C24   C28   A    
C36   H4    S    
C25   C26   A    
C46   C50   S    
C4    O14   A    
C68   H35   S    
C39   C71   S    
C54   O22   D    
C38   C70   S    
C65   H27   S    
C47   C51   S    
O4    V2    S    
C20   C24   A    
