data_mof_unit_43566.cif
_audit_creation_date              2012-12-11T18:11:07-0500
_audit_creation_method            fapswitch 2.2
_symmetry_space_group_name_H-M    P1
_symmetry_Int_Tables_number       1
_space_group_crystal_system       triclinic
_cell_length_a                    8.167816
_cell_length_b                    12.77683
_cell_length_c                    18.72022
_cell_angle_alpha                 99.66689
_cell_angle_beta                  90.817079
_cell_angle_gamma                 98.392254
_cell_volume                      1903.75139963

loop_
_atom_site_label
_atom_site_type_symbol
_atom_type_description
_atom_site_fract_x
_atom_site_fract_y
_atom_site_fract_z
_atom_type_partial_charge
Ba1   Ba    Ba6+2 0.852780 0.548340 0.465070 1.647965
Ba2   Ba    Ba6+2 0.337060 0.451750 0.534940 1.648230
C1    C     C_3   0.590848 0.902106 0.257820 -0.410783
C2    C     C_3   0.636952 0.818034 0.299926 0.341097
C3    C     C_3   0.462938 0.274036 0.314876 0.310205
C4    C     C_3   0.444786 0.238414 0.233101 -0.396952
C5    C     C_3   0.065462 0.250710 0.736567 0.437121
C6    C     C_3   0.066396 0.224012 0.812813 -0.366594
C7    C     C_3   0.567987 0.194351 0.745045 0.310045
C8    C     C_3   0.505386 0.106052 0.787526 -0.364116
C9    C     C_R   0.993434 0.448356 0.048624 0.011650
C10   C     C_R   0.901437 0.388957 0.095907 -0.090241
C11   C     C_R   0.764737 0.414237 0.954909 -0.103323
C12   C     C_3   0.132079 0.763518 0.267153 0.358239
C13   C     C_R   0.930520 0.454698 0.978151 0.018626
C14   C     C_R   0.707937 0.413725 0.884551 -0.102975
C15   C     C_R   0.813584 0.453157 0.833694 -0.032269
C16   C     C_R   0.975721 0.504097 0.856961 0.000917
C17   C     C_R   0.034386 0.505485 0.929653 0.023040
C18   C     C_R   0.762100 0.442953 0.760165 -0.026147
C19   C     C_R   0.871980 0.481529 0.710677 -0.293746
C20   C     C_R   0.025629 0.542193 0.733412 0.035823
C21   C     C_R   0.078284 0.554461 0.807804 -0.041162
C22   C     C_R   0.156125 0.498955 0.071830 0.022885
C23   C     C_3   0.114011 0.789194 0.191255 -0.366872
C24   C     C_R   0.216306 0.497371 0.143882 -0.001192
C25   C     C_R   0.113883 0.445938 0.192649 -0.035388
C26   C     C_R   0.961034 0.387016 0.165676 -0.024019
C27   C     C_R   0.229457 0.615533 0.834965 -0.024286
C28   C     C_R   0.288274 0.615788 0.905277 -0.090373
C29   C     C_R   0.196475 0.557006 0.952996 0.010655
C30   C     C_R   0.259246 0.551190 0.023677 0.017551
C31   C     C_R   0.424446 0.592915 0.047240 -0.104543
C32   C     C_R   0.379486 0.546542 0.166916 -0.037912
C33   C     C_R   0.482731 0.590552 0.116952 -0.095322
C34   C     C_3   0.238829 0.785772 0.620916 0.306541
C35   C     C_R   0.434735 0.550190 0.239287 -0.003827
C36   C     C_R   0.326970 0.508151 0.288293 -0.297899
C37   C     C_R   0.168432 0.454487 0.266441 0.039654
C38   C     C_R   0.770436 0.183103 0.528018 -0.295735
C39   C     C_R   0.431421 0.811356 0.473357 -0.294435
C40   C     C_R   0.404905 0.985981 0.447976 -0.096302
C41   C     C_R   0.340143 0.878307 0.444124 -0.010632
C42   C     C_R   0.576132 0.852618 0.515751 0.071457
C43   C     C_R   0.639370 0.965414 0.526111 -0.053419
C44   C     C_R   0.555474 0.030694 0.487122 -0.067707
C45   C     C_3   0.303037 0.905041 0.642114 -0.382046
C46   C     C_R   0.620731 0.140337 0.490346 0.046673
C47   C     C_R   0.857179 0.120861 0.564368 -0.002312
C48   C     C_R   0.783545 0.016840 0.570921 0.094767
C49   C     C_3   0.963406 0.213684 0.380778 0.275283
C50   C     C_3   0.959157 0.092766 0.365642 -0.344647
C51   C     C_3   0.728665 0.693339 0.679691 0.353738
C52   C     C_3   0.731936 0.724039 0.762048 -0.372877
H1    H     H_    0.730282 0.857129 0.343633 0.077859
H2    H     H_    0.427623 0.916548 0.669206 0.125270
H3    H     H_    0.310911 0.944422 0.593712 0.102119
H4    H     H_    0.218008 0.944201 0.679730 0.177154
H5    H     H_    0.840044 0.232300 0.395808 0.003624
H6    H     H_    0.054364 0.247250 0.426282 0.079836
H7    H     H_    0.869114 0.056536 0.320372 0.115807
H8    H     H_    0.921679 0.058013 0.414332 0.081832
H9    H     H_    0.083764 0.073462 0.350714 0.139776
H10   H     H_    0.855623 0.687623 0.661890 0.009806
H11   H     H_    0.647040 0.615210 0.663395 0.060102
H12   H     H_    0.544045 0.967247 0.295183 0.101744
H13   H     H_    0.816573 0.800644 0.779733 0.143882
H14   H     H_    0.775360 0.661688 0.788640 0.048712
H15   H     H_    0.605580 0.734183 0.780310 0.123064
H16   H     H_    0.523447 0.785190 0.325601 -0.050579
H17   H     H_    0.492931 0.864540 0.215837 0.114533
H18   H     H_    0.342607 0.294502 0.335062 0.019091
H19   H     H_    0.559185 0.346308 0.326501 0.059381
H20   H     H_    0.346850 0.167332 0.219571 0.127783
H21   H     H_    0.410165 0.304303 0.206988 0.055872
H22   H     H_    0.563888 0.217231 0.211526 0.118684
H23   H     H_    0.700427 0.936659 0.230463 0.130011
H24   H     H_    0.148655 0.723110 0.150658 0.074184
H25   H     H_    0.144736 0.329220 0.737149 0.079534
H26   H     H_    0.936637 0.257439 0.720620 -0.110006
H27   H     H_    0.194701 0.221002 0.831744 0.142267
H28   H     H_    0.014955 0.285989 0.850796 0.065944
H29   H     H_    0.989257 0.145163 0.813523 0.136632
H30   H     H_    0.691896 0.231232 0.769034 -0.018625
H31   H     H_    0.577222 0.159132 0.687000 0.043225
H32   H     H_    0.584662 0.041904 0.778977 0.111990
H33   H     H_    0.375876 0.071226 0.770026 0.148413
H34   H     H_    0.045763 0.688983 0.270359 0.097181
H35   H     H_    0.508740 0.139783 0.846317 0.102139
H36   H     H_    0.832137 0.471126 0.654240 0.067071
H37   H     H_    0.580021 0.380472 0.870656 0.103889
H38   H     H_    0.884101 0.338922 0.198163 0.093911
H39   H     H_    0.306138 0.662920 0.802023 0.100781
H40   H     H_    0.610699 0.623861 0.130764 0.112554
H41   H     H_    0.369429 0.513971 0.344029 0.073975
H42   H     H_    0.674021 0.383327 0.990316 0.071339
H43   H     H_    0.782901 0.340776 0.080115 0.056637
H44   H     H_    0.406265 0.664709 0.920956 0.059641
H45   H     H_    0.261158 0.749651 0.275967 -0.068835
H46   H     H_    0.514059 0.626506 0.012439 0.073058
H47   H     H_    0.333858 0.033849 0.421094 0.099358
H48   H     H_    0.822958 0.265646 0.527094 0.060632
H49   H     H_    0.383406 0.726587 0.466665 0.064084
H50   H     H_    0.983856 0.798624 0.179536 0.150060
H51   H     H_    0.195995 0.864897 0.186596 0.110472
H52   H     H_    0.338426 0.744340 0.595632 0.015669
H53   H     H_    0.132554 0.774912 0.581686 0.079314
O1    O     O_2   0.873090 0.425890 0.325140 -0.466919
O2    O     O_3   0.667116 0.774229 0.650797 -0.604384
O3    O     O_3   0.093665 0.849709 0.318003 -0.602650
O4    O     O_2   0.316610 0.574140 0.674900 -0.457228
O5    O     O_3   0.067290 0.565720 0.585630 -0.504151
O6    O     O_3   0.530210 0.372990 0.631200 -0.459734
O7    O     O_3   0.189303 0.745570 0.683328 -0.632168
O8    O     O_3   0.611340 0.366290 0.463630 -0.480054
O9    O     O_3   0.108550 0.314140 0.595200 -0.488770
O10   O     O_2   0.201689 0.125277 0.553612 -0.463175
O11   O     O_3   0.127906 0.169944 0.688973 -0.552754
O12   O     O_3   0.122420 0.434370 0.414380 -0.497639
O13   O     O_3   0.578370 0.633800 0.536380 -0.488903
O14   O     O_2   0.341510 0.231850 0.465510 -0.469929
O15   O     O_3   0.508734 0.190029 0.346570 -0.650479
O16   O     O_2   0.434044 0.468416 0.756064 -0.489903
O17   O     O_3   0.455974 0.268485 0.751629 -0.580297
O18   O     O_3   0.659500 0.627100 0.368810 -0.478585
O19   O     O_2   0.777608 0.546413 0.243663 -0.494046
O20   O     O_3   0.005128 0.254249 0.317615 -0.640934
O21   O     O_3   0.706177 0.740228 0.252348 -0.601755
O22   O     O_2   0.848200 0.768190 0.534530 -0.457214
O23   O     O_3   0.081160 0.685950 0.404810 -0.489940
O24   O     O_2   0.000451 0.879112 0.451009 -0.477484
P1    P     P_3+3 0.041040 0.394770 0.336330 0.969480
P2    P     P_3+3 0.672880 0.754030 0.556100 1.013922
P3    P     P_3+3 0.130099 0.823963 0.405351 0.947863
P4    P     P_3+3 0.148670 0.605320 0.663680 0.972041
P5    P     P_3+3 0.071782 0.179029 0.599825 1.010080
P6    P     P_3+3 0.644321 0.613310 0.274976 0.946618
P7    P     P_3+3 0.524017 0.230297 0.440829 0.936363
P8    P     P_3+3 0.548731 0.387572 0.725348 0.948788
I1    I     I_    0.861764 0.977198 0.670765 -0.530020

loop_
_geom_bond_atom_site_label_1
_geom_bond_atom_site_label_2
_ccdc_geom_bond_type
O19   P6    D    
O13   P2    S    
C32   C35   A    
O17   P8    S    
Ba1   P1    S    
C17   C29   A    
C15   C18   A    
C2    H16   S    
C23   H51   S    
C5    C6    S    
C43   C44   A    
C13   C17   A    
Ba2   O5    S    
C24   C25   A    
C35   C36   A    
C10   C26   A    
C6    H28   S    
C21   C27   A    
C18   P8    S    
C22   C24   A    
C16   C17   A    
C3    H18   S    
Ba1   O22   S    
C50   H7    S    
Ba1   O5    S    
C40   C44   A    
C36   C37   A    
C32   C33   A    
C51   H10   S    
C48   I1    S    
C33   H40   S    
C52   H14   S    
C37   P1    S    
C38   C47   A    
C6    H29   S    
O16   P8    D    
C9    C22   A    
C7    O17   S    
C34   C45   S    
C12   O3    S    
Ba1   Ba2   S    
Ba1   O12   S    
O20   P1    S    
C7    H31   S    
C9    C13   A    
C24   C32   A    
C29   C30   A    
C8    H35   S    
C25   C37   A    
C14   C15   A    
C36   H41   S    
O7    P4    S    
O6    P8    S    
C51   H11   S    
C7    C8    S    
O24   P3    D    
C34   O7    S    
C35   P6    S    
C19   C20   A    
C34   H53   S    
C39   C41   A    
C5    O11   S    
O23   P3    S    
Ba2   O9    S    
Ba1   P2    S    
C4    H20   S    
C19   H36   S    
Ba2   O4    S    
C44   C46   A    
C8    H33   S    
C2    O21   S    
C11   H42   S    
O2    P2    S    
C23   H24   S    
C4    H21   S    
O15   P7    S    
Ba1   O23   S    
Ba2   O13   S    
C52   H13   S    
C7    H30   S    
O18   P6    S    
C51   C52   S    
C34   H52   S    
C3    O15   S    
C6    H27   S    
Ba1   O13   S    
O14   P7    D    
C41   P3    S    
C1    H17   S    
O21   P6    S    
C22   C30   A    
C27   C28   A    
C45   H3    S    
Ba2   O8    S    
C16   C21   A    
O8    P7    S    
C28   C29   A    
Ba2   O12   S    
C15   C16   A    
C26   H38   S    
C10   H43   S    
O22   P2    D    
C47   P5    S    
C11   C13   A    
C2    H1    S    
C39   C42   A    
O3    P3    S    
C1    H12   S    
C49   H5    S    
C40   C41   A    
O5    P4    S    
C1    C2    S    
C1    H23   S    
C40   H47   S    
O11   P5    S    
C42   C43   A    
C5    H25   S    
Ba2   O14   S    
C51   O2    S    
C42   P2    S    
C38   C46   A    
C8    H32   S    
Ba1   O18   S    
C50   H9    S    
O12   P1    S    
C9    C10   A    
C23   H50   S    
C4    H22   S    
O9    P5    S    
C28   H44   S    
Ba2   P4    S    
C46   P7    S    
C20   P4    S    
C31   H46   S    
C49   O20   S    
C30   C31   A    
C12   H34   S    
C49   C50   S    
C50   H8    S    
C45   H4    S    
C27   H39   S    
C31   C33   A    
C12   H45   S    
C3    C4    S    
C52   H15   S    
C43   C48   A    
Ba2   O6    S    
C12   C23   S    
C3    H19   S    
O4    P4    D    
O1    P1    D    
Ba1   O1    S    
C38   H48   S    
C39   H49   S    
C18   C19   A    
C14   H37   S    
C47   C48   A    
C11   C14   A    
C25   C26   A    
C20   C21   A    
C45   H2    S    
C49   H6    S    
Ba1   O8    S    
O10   P5    D    
C5    H26   S    
