data_mof_unit_46429.cif
_audit_creation_date              2012-12-11T14:05:41-0500
_audit_creation_method            fapswitch 2.2
_symmetry_space_group_name_H-M    P1
_symmetry_Int_Tables_number       1
_space_group_crystal_system       triclinic
_cell_length_a                    17.785784
_cell_length_b                    17.774966
_cell_length_c                    17.781885
_cell_angle_alpha                 89.986524
_cell_angle_beta                  89.91002
_cell_angle_gamma                 89.922956
_cell_volume                      5621.58329041

loop_
_atom_site_label
_atom_site_type_symbol
_atom_type_description
_atom_site_fract_x
_atom_site_fract_y
_atom_site_fract_z
_atom_type_partial_charge
C1    C     C_R   0.693699 0.791252 0.210115 -0.261592
C2    C     C_R   0.295918 0.798902 0.209780 -0.247030
C3    C     C_R   0.910957 0.819713 0.623829 -0.138579
C4    C     C_R   0.092817 0.379187 0.820075 -0.114591
C5    C     C_R   0.907183 0.620813 0.179924 -0.114591
C6    C     C_R   0.093659 0.819170 0.618850 -0.107677
C7    C     C_R   0.906341 0.180830 0.381150 -0.107676
C8    C     C_R   0.820211 0.904708 0.621272 -0.072954
C9    C     C_R   0.179789 0.095292 0.378727 -0.072953
C10   C     C_R   0.617678 0.907293 0.182891 -0.148695
C11   C     C_R   0.382322 0.092707 0.817109 -0.148696
C12   C     C_R   0.183004 0.904199 0.383792 -0.123141
C13   C     C_R   0.199385 0.289531 0.800869 -0.241855
C14   C     C_R   0.816995 0.095801 0.616208 -0.123141
C15   C     C_R   0.391661 0.900477 0.816502 -0.070981
C16   C     C_R   0.608339 0.099523 0.183498 -0.070981
C17   C     C_R   0.182930 0.093333 0.617127 -0.146731
C18   C     C_R   0.817070 0.906667 0.382873 -0.146731
C19   C     C_R   0.379543 0.096321 0.179904 -0.087164
C20   C     C_R   0.620457 0.903679 0.820096 -0.087164
C21   C     C_R   0.819218 0.092932 0.380847 -0.109600
C22   C     C_R   0.180782 0.907067 0.619153 -0.109600
C23   C     C_R   0.624006 0.088860 0.819750 -0.112224
C24   C     C_R   0.800615 0.710469 0.199131 -0.241856
C25   C     C_R   0.375994 0.911140 0.180250 -0.112224
C26   C     C_3   0.783538 0.802185 0.057963 -0.252145
C27   C     C_3   0.216462 0.197816 0.942036 -0.252141
C28   C     C_3   0.183005 0.816546 0.077672 -0.231719
C29   C     C_3   0.816995 0.183454 0.922328 -0.231717
C30   C     C_3   0.361701 0.391849 0.181801 -0.288007
C31   C     C_3   0.638299 0.608151 0.818199 -0.288008
C32   C     C_3   0.609348 0.357114 0.195259 -0.271821
C33   C     C_3   0.390651 0.642886 0.804741 -0.271822
C34   C     C_3   0.057600 0.782492 0.796188 -0.251160
C35   C     C_R   0.307045 0.789645 0.789949 -0.258542
C36   C     C_3   0.942400 0.217507 0.203811 -0.251161
C37   C     C_3   0.056285 0.201202 0.782171 -0.254266
C38   C     C_3   0.943715 0.798798 0.217829 -0.254266
C39   C     C_3   0.181078 0.393350 0.360071 -0.268524
C40   C     C_3   0.818922 0.606650 0.639929 -0.268529
C41   C     C_3   0.182029 0.637875 0.391611 -0.290277
C42   C     C_3   0.817971 0.362124 0.608389 -0.290277
C43   C     C_3   0.638289 0.182558 0.608611 -0.292534
C44   C     C_3   0.361711 0.817442 0.391388 -0.292534
C45   C     C_3   0.781662 0.057394 0.204016 -0.256829
C46   C     C_R   0.692955 0.210354 0.210051 -0.258542
C47   C     C_3   0.218338 0.942606 0.795983 -0.256829
C48   C     C_3   0.183418 0.077918 0.182185 -0.231278
C49   C     C_3   0.816582 0.922082 0.817815 -0.231280
C50   C     C_3   0.389845 0.196631 0.642500 -0.260775
C51   C     C_3   0.610155 0.803369 0.357501 -0.260772
C52   C     C_R   0.779368 0.679066 0.779291 -0.256084
C53   C     C_R   0.220632 0.320934 0.220709 -0.256084
C54   C     C_R   0.209891 0.208922 0.693657 -0.241316
C55   C     C_R   0.790108 0.791078 0.306343 -0.241317
C56   C     C_R   0.220590 0.779101 0.320596 -0.252351
C57   C     C_R   0.306301 0.208748 0.789885 -0.261592
C58   C     C_R   0.779410 0.220899 0.679404 -0.252351
C59   C     C_R   0.798739 0.200780 0.292714 -0.245095
C60   C     C_R   0.201260 0.799220 0.707285 -0.245095
C61   C     C_R   0.799095 0.790089 0.704221 -0.246736
C62   C     C_R   0.200904 0.209911 0.295779 -0.246736
C63   C     C_R   0.649097 0.833730 0.840588 0.176785
C64   C     C_R   0.350902 0.166269 0.159411 0.176785
C65   C     C_R   0.170814 0.635556 0.832880 0.160094
C66   C     C_R   0.829186 0.364444 0.167120 0.160094
C67   C     C_R   0.364939 0.166778 0.828776 0.144622
C68   C     C_R   0.201143 0.703607 0.209897 -0.251803
C69   C     C_R   0.635061 0.833222 0.171224 0.144623
C70   C     C_R   0.839974 0.351311 0.834067 0.175124
C71   C     C_R   0.160026 0.648689 0.165933 0.175124
C72   C     C_R   0.635447 0.170647 0.167113 0.140611
C73   C     C_R   0.364553 0.829353 0.832886 0.140611
C74   C     C_R   0.169543 0.363156 0.169832 0.116168
C75   C     C_R   0.830456 0.636844 0.830168 0.116168
C76   C     C_R   0.350690 0.840261 0.165760 0.174082
C77   C     C_R   0.649310 0.159739 0.834240 0.174082
C78   C     C_R   0.839602 0.651922 0.159747 0.149171
C79   C     C_R   0.798857 0.296392 0.790103 -0.251803
C80   C     C_R   0.160398 0.348078 0.840252 0.149171
C81   C     C_R   0.830381 0.169894 0.636979 0.116762
C82   C     C_R   0.169619 0.830106 0.363021 0.116763
C83   C     C_R   0.829052 0.832689 0.365225 0.163771
C84   C     C_R   0.170947 0.167311 0.634775 0.163771
C85   C     C_R   0.159800 0.165671 0.350611 0.178375
C86   C     C_R   0.840200 0.834329 0.649389 0.178375
C87   C     C_R   0.162206 0.838236 0.648319 0.141971
C88   C     C_R   0.837794 0.161763 0.351681 0.141970
C89   C     C_R   0.740564 0.746355 0.165616 0.472894
C90   C     C_R   0.295890 0.210144 0.200567 -0.250166
C91   C     C_R   0.259436 0.253645 0.834384 0.472893
C92   C     C_R   0.245317 0.754478 0.170321 0.450628
C93   C     C_R   0.754683 0.245522 0.829679 0.450628
C94   C     C_R   0.286300 0.288110 0.190519 0.488800
C95   C     C_R   0.713700 0.711890 0.809481 0.488800
C96   C     C_R   0.714757 0.285177 0.193147 0.480602
C97   C     C_R   0.285243 0.714823 0.806853 0.480602
C98   C     C_R   0.167020 0.739577 0.743593 0.462348
C99   C     C_R   0.832980 0.260423 0.256406 0.462348
C100  C     C_R   0.165747 0.254380 0.740406 0.462479
C101  C     C_R   0.704110 0.789856 0.799433 -0.250167
C102  C     C_R   0.834253 0.745620 0.259593 0.462480
C103  C     C_R   0.190694 0.288026 0.286419 0.482775
C104  C     C_R   0.809306 0.711974 0.713581 0.482775
C105  C     C_R   0.190709 0.713385 0.287848 0.484722
C106  C     C_R   0.809291 0.286615 0.712152 0.484723
C107  C     C_R   0.713744 0.190930 0.712259 0.489200
C108  C     C_R   0.286256 0.809070 0.287741 0.489199
C109  C     C_R   0.738815 0.166747 0.256858 0.474015
C110  C     C_R   0.261185 0.833253 0.743142 0.474015
C111  C     C_R   0.245115 0.170511 0.244760 0.449147
C112  C     C_R   0.789556 0.306399 0.209568 -0.239938
C113  C     C_R   0.754885 0.829489 0.755240 0.449149
C114  C     C_R   0.284822 0.192674 0.714840 0.476278
C115  C     C_R   0.715178 0.807326 0.285160 0.476278
C116  C     C_R   0.624195 0.819713 0.911690 -0.135817
C117  C     C_R   0.375805 0.180287 0.088310 -0.135817
C118  C     C_R   0.182803 0.617649 0.906832 -0.128367
C119  C     C_R   0.817197 0.382351 0.093168 -0.128367
C120  C     C_R   0.392072 0.183498 0.899806 -0.064876
C121  C     C_R   0.607928 0.816501 0.100194 -0.064876
C122  C     C_R   0.820034 0.379441 0.904353 -0.083617
C123  C     C_R   0.210444 0.693601 0.790432 -0.239938
C124  C     C_R   0.179966 0.620559 0.095646 -0.083618
C125  C     C_R   0.617719 0.182798 0.093137 -0.125549
C126  C     C_R   0.382281 0.817202 0.906863 -0.125549
C127  C     C_R   0.183044 0.384061 0.095854 -0.134703
C128  C     C_R   0.816956 0.615938 0.904146 -0.134703
C129  C     C_R   0.379111 0.820153 0.095616 -0.091326
C130  C     C_R   0.620888 0.179847 0.904384 -0.091326
C131  C     C_R   0.820290 0.622066 0.091367 -0.102067
C132  C     C_R   0.179709 0.377934 0.908633 -0.102066
C133  C     C_R   0.904717 0.616510 0.817021 -0.137370
C134  C     C_R   0.704082 0.201098 0.790220 -0.247030
C135  C     C_R   0.095283 0.383490 0.182979 -0.137370
C136  C     C_R   0.904567 0.183020 0.616443 -0.146096
C137  C     C_R   0.095433 0.816980 0.383557 -0.146095
C138  C     C_R   0.900436 0.391348 0.183477 -0.078021
C139  C     C_R   0.099563 0.608652 0.816523 -0.078021
C140  C     C_R   0.900421 0.816394 0.391876 -0.061238
C141  C     C_R   0.099579 0.183606 0.608124 -0.061239
C142  C     C_R   0.089192 0.623463 0.180424 -0.132984
C143  C     C_R   0.910808 0.376537 0.819576 -0.132984
C144  C     C_R   0.089043 0.180287 0.376171 -0.138579
H1    H     H_    0.630662 0.769421 0.945030 0.177941
H2    H     H_    0.375624 0.766022 0.938796 0.161874
H3    H     H_    0.386614 0.761905 0.376302 0.128619
H4    H     H_    0.316834 0.810395 0.434407 0.146855
H5    H     H_    0.406914 0.851820 0.417039 0.167616
H6    H     H_    0.841256 0.063195 0.221489 0.138786
H7    H     H_    0.773284 0.082559 0.147275 0.136690
H8    H     H_    0.769545 0.996345 0.199518 0.165545
H9    H     H_    0.226716 0.917441 0.852724 0.136689
H10   H     H_    0.158744 0.936805 0.778511 0.138786
H11   H     H_    0.230455 0.003655 0.800482 0.165545
H12   H     H_    0.200553 0.100556 0.126363 0.125664
H13   H     H_    0.236452 0.384310 0.067126 0.163532
H14   H     H_    0.127446 0.100745 0.198676 0.128570
H15   H     H_    0.177760 0.016028 0.176511 0.159054
H16   H     H_    0.872554 0.899255 0.801324 0.128570
H17   H     H_    0.799447 0.899444 0.873636 0.125665
H18   H     H_    0.822240 0.983972 0.823488 0.159054
H19   H     H_    0.427496 0.213322 0.689502 0.143302
H20   H     H_    0.368278 0.247384 0.612731 0.128684
H21   H     H_    0.424181 0.164052 0.601776 0.166095
H22   H     H_    0.631724 0.752617 0.387272 0.128684
H23   H     H_    0.572506 0.786675 0.310499 0.143300
H24   H     H_    0.763548 0.615690 0.932874 0.163532
H25   H     H_    0.575818 0.835948 0.398224 0.166094
H26   H     H_    0.377819 0.765122 0.069805 0.126338
H27   H     H_    0.622181 0.234878 0.930195 0.126338
H28   H     H_    0.766286 0.621375 0.063793 0.153506
H29   H     H_    0.233714 0.378625 0.936206 0.153506
H30   H     H_    0.934440 0.617534 0.764082 0.168869
H31   H     H_    0.065560 0.382466 0.235918 0.168869
H32   H     H_    0.934166 0.235960 0.617325 0.170898
H33   H     H_    0.369338 0.230579 0.054970 0.177941
H34   H     H_    0.065834 0.764040 0.382674 0.170898
H35   H     H_    0.925906 0.397268 0.238362 0.139671
H36   H     H_    0.074094 0.602731 0.761638 0.139671
H37   H     H_    0.926140 0.761500 0.397581 0.139193
H38   H     H_    0.073859 0.238500 0.602418 0.139193
H39   H     H_    0.057184 0.628809 0.231560 0.173167
H40   H     H_    0.942816 0.371191 0.768440 0.173167
H41   H     H_    0.056935 0.231368 0.370695 0.173845
H42   H     H_    0.943064 0.768632 0.629305 0.173845
H43   H     H_    0.067611 0.382130 0.765020 0.150440
H44   H     H_    0.233761 0.624375 0.938931 0.163058
H45   H     H_    0.932389 0.617869 0.234979 0.150440
H46   H     H_    0.068133 0.764236 0.615656 0.148611
H47   H     H_    0.931867 0.235764 0.384344 0.148611
H48   H     H_    0.765464 0.931175 0.623245 0.128411
H49   H     H_    0.234536 0.068825 0.376755 0.128411
H50   H     H_    0.625208 0.940008 0.233476 0.171690
H51   H     H_    0.374791 0.059992 0.766524 0.171690
H52   H     H_    0.236194 0.933265 0.383492 0.159805
H53   H     H_    0.763806 0.066735 0.616508 0.159805
H54   H     H_    0.398128 0.925737 0.761529 0.136827
H55   H     H_    0.766239 0.375624 0.061069 0.163057
H56   H     H_    0.601872 0.074263 0.238471 0.136827
H57   H     H_    0.234070 0.061415 0.623804 0.168738
H58   H     H_    0.765930 0.938585 0.376196 0.168738
H59   H     H_    0.378729 0.071355 0.235313 0.123934
H60   H     H_    0.621271 0.928645 0.764687 0.123934
H61   H     H_    0.764779 0.066350 0.383519 0.150402
H62   H     H_    0.235221 0.933650 0.616481 0.150402
H63   H     H_    0.629737 0.056430 0.768888 0.166670
H64   H     H_    0.370263 0.943570 0.231112 0.166670
H65   H     H_    0.843314 0.785404 0.064437 0.137242
H66   H     H_    0.397985 0.238681 0.924722 0.132231
H67   H     H_    0.773700 0.858356 0.083946 0.131257
H68   H     H_    0.772380 0.807570 0.996844 0.165920
H69   H     H_    0.226300 0.141644 0.916053 0.131256
H70   H     H_    0.156686 0.214596 0.935562 0.137241
H71   H     H_    0.227620 0.192430 0.003156 0.165919
H72   H     H_    0.199626 0.872526 0.100210 0.132021
H73   H     H_    0.127182 0.799736 0.100528 0.129078
H74   H     H_    0.177280 0.822093 0.015795 0.157527
H75   H     H_    0.872818 0.200263 0.899472 0.129077
H76   H     H_    0.800374 0.127474 0.899790 0.132021
H77   H     H_    0.602015 0.761319 0.075278 0.132231
H78   H     H_    0.822720 0.177907 0.984205 0.157527
H79   H     H_    0.386609 0.376864 0.237275 0.128206
H80   H     H_    0.316764 0.434822 0.188899 0.146975
H81   H     H_    0.406876 0.417541 0.147273 0.166340
H82   H     H_    0.683236 0.565178 0.811100 0.146976
H83   H     H_    0.613391 0.623137 0.762725 0.128206
H84   H     H_    0.593123 0.582459 0.852727 0.166340
H85   H     H_    0.629871 0.386983 0.246301 0.129209
H86   H     H_    0.571468 0.310033 0.211387 0.145496
H87   H     H_    0.575567 0.397753 0.162085 0.167896
H88   H     H_    0.765042 0.378151 0.930274 0.124575
H89   H     H_    0.428532 0.689967 0.788613 0.145496
H90   H     H_    0.370128 0.613016 0.753699 0.129209
H91   H     H_    0.424433 0.602247 0.837914 0.167896
H92   H     H_    0.063367 0.842112 0.778544 0.137497
H93   H     H_    0.082651 0.774160 0.852953 0.134667
H94   H     H_    0.996593 0.770287 0.800694 0.168611
H95   H     H_    0.917348 0.225839 0.147047 0.134668
H96   H     H_    0.936633 0.157887 0.221456 0.137498
H97   H     H_    0.003407 0.229713 0.199306 0.168611
H98   H     H_    0.060871 0.218749 0.841885 0.138029
H99   H     H_    0.234958 0.621848 0.069725 0.124575
H100  H     H_    0.082174 0.144679 0.774055 0.131768
H101  H     H_    0.995539 0.196151 0.769017 0.170589
H102  H     H_    0.917826 0.855321 0.225945 0.131768
H103  H     H_    0.939129 0.781251 0.158115 0.138029
H104  H     H_    0.004460 0.803849 0.230983 0.170589
H105  H     H_    0.185361 0.435905 0.314447 0.152164
H106  H     H_    0.237782 0.380408 0.383282 0.127157
H107  H     H_    0.147264 0.418715 0.406016 0.166502
H108  H     H_    0.762219 0.619593 0.616716 0.127159
H109  H     H_    0.814638 0.564095 0.685553 0.152164
H110  H     H_    0.624375 0.233978 0.061204 0.161874
H111  H     H_    0.852737 0.581285 0.593985 0.166503
H112  H     H_    0.189043 0.682736 0.434585 0.147718
H113  H     H_    0.237527 0.612896 0.376549 0.127220
H114  H     H_    0.147568 0.592658 0.417293 0.166471
H115  H     H_    0.762472 0.387103 0.623450 0.127219
H116  H     H_    0.810958 0.317263 0.565415 0.147719
H117  H     H_    0.852432 0.407342 0.582707 0.166471
H118  H     H_    0.683166 0.189604 0.565593 0.146856
H119  H     H_    0.613387 0.238095 0.623697 0.128619
H120  H     H_    0.593085 0.148180 0.582961 0.167616
N1    N     N_R   0.584840 0.879720 0.932190 -0.058057
N2    N     N_R   0.415160 0.879720 0.932190 -0.055731
N3    N     N_R   0.120280 0.415160 0.067810 -0.050939
N4    N     N_R   0.879720 0.584840 0.932190 -0.050939
N5    N     N_R   0.415160 0.879720 0.067810 -0.058290
N6    N     N_R   0.584840 0.120280 0.932190 -0.058290
N7    N     N_R   0.879720 0.584840 0.067810 -0.058723
N8    N     N_R   0.120280 0.415160 0.932190 -0.058723
N9    N     N_R   0.932190 0.584840 0.879720 -0.049600
N10   N     N_R   0.067810 0.415160 0.120280 -0.049600
N11   N     N_R   0.932190 0.120280 0.584840 -0.050840
N12   N     N_R   0.415160 0.120280 0.067810 -0.058057
N13   N     N_R   0.067810 0.879720 0.415160 -0.050840
N14   N     N_R   0.932190 0.415160 0.120280 -0.058196
N15   N     N_R   0.067810 0.584840 0.879720 -0.058196
N16   N     N_R   0.932190 0.879720 0.415160 -0.058466
N17   N     N_R   0.067810 0.120280 0.584840 -0.058466
N18   N     N_R   0.067810 0.584840 0.120280 -0.057265
N19   N     N_R   0.932190 0.415160 0.879720 -0.057265
N20   N     N_R   0.067810 0.120280 0.415160 -0.058927
N21   N     N_R   0.932190 0.879720 0.584840 -0.058927
N22   N     N_R   0.067810 0.415160 0.879720 -0.059303
N23   N     N_R   0.120280 0.584840 0.932190 -0.057831
N24   N     N_R   0.932190 0.584840 0.120280 -0.059303
N25   N     N_R   0.067810 0.879720 0.584840 -0.057763
N26   N     N_R   0.932190 0.120280 0.415160 -0.057763
N27   N     N_R   0.879720 0.932190 0.584840 -0.057810
N28   N     N_R   0.120280 0.067810 0.415160 -0.057810
N29   N     N_R   0.584840 0.932190 0.120280 -0.055319
N30   N     N_R   0.415160 0.067810 0.879720 -0.055318
N31   N     N_R   0.120280 0.932190 0.415160 -0.051085
N32   N     N_R   0.879720 0.067810 0.584840 -0.051085
N33   N     N_R   0.415160 0.932190 0.879720 -0.058209
N34   N     N_R   0.879720 0.415160 0.067810 -0.057831
N35   N     N_R   0.584840 0.067810 0.120280 -0.058209
N36   N     N_R   0.120280 0.067810 0.584840 -0.057570
N37   N     N_R   0.879720 0.932190 0.415160 -0.057569
N38   N     N_R   0.415160 0.067810 0.120280 -0.058389
N39   N     N_R   0.584840 0.932190 0.879720 -0.058389
N40   N     N_R   0.879720 0.067810 0.415160 -0.057549
N41   N     N_R   0.120280 0.932190 0.584840 -0.057549
N42   N     N_R   0.584840 0.067810 0.879720 -0.059043
N43   N     N_R   0.415160 0.932190 0.120280 -0.059043
N44   N     N_R   0.415160 0.120280 0.932190 -0.057928
N45   N     N_R   0.584840 0.879720 0.067810 -0.057928
N46   N     N_R   0.879720 0.415160 0.932190 -0.056523
N47   N     N_R   0.120280 0.584840 0.067810 -0.056523
N48   N     N_R   0.584840 0.120280 0.067810 -0.055731
Ni1   Ni    Ni4+2 0.500000 0.880920 0.000000 0.201941
Ni2   Ni    Ni4+2 0.119080 0.000000 0.500000 0.200573
Ni3   Ni    Ni4+2 0.500000 0.000000 0.119080 0.201879
Ni4   Ni    Ni4+2 0.500000 0.000000 0.880920 0.201879
Ni5   Ni    Ni4+2 0.500000 0.119080 0.000000 0.201941
Ni6   Ni    Ni4+2 0.119080 0.500000 0.000000 0.200543
Ni7   Ni    Ni4+2 0.880920 0.500000 0.000000 0.200543
Ni8   Ni    Ni4+2 0.000000 0.500000 0.880920 0.200839
Ni9   Ni    Ni4+2 0.000000 0.500000 0.119080 0.200839
Ni10  Ni    Ni4+2 0.000000 0.119080 0.500000 0.200975
Ni11  Ni    Ni4+2 0.000000 0.880920 0.500000 0.200975
Ni12  Ni    Ni4+2 0.880920 0.000000 0.500000 0.200573
O1    O     O_3   0.734996 0.746717 0.087758 -0.628055
O2    O     O_3   0.910747 0.266509 0.257950 -0.628221
O3    O     O_3   0.088002 0.255853 0.733874 -0.628232
O4    O     O_3   0.911998 0.744147 0.266126 -0.628233
O5    O     O_3   0.144254 0.327684 0.335005 -0.623617
O6    O     O_3   0.855746 0.672316 0.664995 -0.623617
O7    O     O_3   0.144066 0.665220 0.327552 -0.621943
O8    O     O_3   0.855934 0.334780 0.672448 -0.621943
O9    O     O_3   0.665507 0.144420 0.672653 -0.623768
O10   O     O_3   0.334492 0.855580 0.327347 -0.623768
O11   O     O_3   0.732680 0.088929 0.258283 -0.629158
O12   O     O_3   0.265004 0.253283 0.912242 -0.628055
O13   O     O_3   0.267320 0.911071 0.741717 -0.629158
O14   O     O_3   0.238111 0.093107 0.237472 -0.615705
O15   O     O_3   0.761889 0.906893 0.762528 -0.615705
O16   O     O_3   0.330457 0.150673 0.667834 -0.619590
O17   O     O_3   0.669543 0.849328 0.332166 -0.619591
O18   O     O_3   0.238214 0.761604 0.092940 -0.616238
O19   O     O_3   0.761786 0.238396 0.907060 -0.616238
O20   O     O_3   0.334589 0.327686 0.143863 -0.621217
O21   O     O_3   0.665411 0.672313 0.856137 -0.621217
O22   O     O_3   0.669662 0.331855 0.150322 -0.622130
O23   O     O_3   0.330338 0.668145 0.849678 -0.622130
O24   O     O_3   0.089253 0.733491 0.742050 -0.628221

loop_
_geom_bond_atom_site_label_1
_geom_bond_atom_site_label_2
_ccdc_geom_bond_type
C28   H72   S    
C11   N30   A    
C80   C132  A    
N38   Ni3   S    
C101  C113  A    
C52   C75   S    
C45   O11   S    
C41   H112  S    
C127  N3    A    
C36   H97   S    
C139  N15   A    
C11   H51   S    
C60   C98   A    
C28   O18   S    
C43   H120  S    
C130  N6    A    
C9    H49   S    
N30   N44   A    
N25   N41   A    
C73   C126  A    
C37   H101  S    
C3    N21   A    
C75   C128  A    
N39   Ni4   S    
N36   Ni2   S    
C65   C118  A    
C49   H16   S    
C67   C120  A    
C127  H13   S    
C46   C72   S    
C17   N36   A    
C37   H100  S    
N13   Ni11  S    
C12   H52   S    
C85   C144  A    
C54   C84   S    
C100  O3    S    
C62   C85   S    
C117  H33   S    
C39   O5    S    
C120  H66   S    
C29   H78   S    
C32   H86   S    
C29   O19   S    
C50   H20   S    
C51   H25   S    
C61   C104  A    
C109  O11   S    
N4    Ni7   S    
N45   Ni1   S    
C47   H9    S    
N6    Ni5   S    
C48   H14   S    
N41   Ni2   S    
C45   H7    S    
C92   O18   S    
C94   O20   S    
C7    C88   A    
C16   N35   A    
C130  H27   S    
C50   H21   S    
C19   H59   S    
C22   C87   A    
C23   C77   A    
C17   H57   S    
C118  N23   A    
C10   N29   A    
C15   C73   A    
C116  N1    A    
C119  N34   A    
C55   C83   S    
C81   C136  A    
C116  H1    S    
C23   H63   S    
C70   C79   S    
C31   O21   S    
C132  N8    A    
C43   H118  S    
C143  N19   A    
C72   C125  A    
C25   C76   A    
C143  H40   S    
C45   H8    S    
C5    H45   S    
C142  N18   A    
N14   N34   A    
C8    H48   S    
C54   C114  A    
C2    C108  A    
C68   C92   A    
C8    C86   A    
C34   H94   S    
C65   C139  A    
C10   C69   A    
C46   C96   A    
C15   N33   A    
N7    Ni7   S    
C23   N42   A    
C26   H68   S    
C1    C115  A    
C14   C81   A    
N34   Ni7   S    
C136  H32   S    
C41   O7    S    
C89   O1    S    
C140  N16   A    
C51   H23   S    
N18   N47   A    
N19   N46   A    
N7    N24   A    
C137  N13   A    
C70   C143  A    
N16   N37   A    
C4    C80   A    
C107  C134  A    
N28   Ni2   S    
N9    Ni8   S    
C7    N26   A    
N46   Ni7   S    
C30   O20   S    
N47   Ni6   S    
C22   H62   S    
C124  N47   A    
C58   C107  A    
C56   C108  A    
C42   H116  S    
C9    C85   A    
N5    N43   A    
C62   C111  A    
C27   H70   S    
C103  O5    S    
C93   O19   S    
C25   H64   S    
C49   H17   S    
C16   H56   S    
C49   O15   S    
C12   N31   A    
C21   C88   A    
C31   H84   S    
C138  N14   A    
N23   Ni6   S    
N8    Ni6   S    
C90   C111  A    
C42   H117  S    
C138  H35   S    
N17   N36   A    
C48   O14   S    
C144  H41   S    
C14   H53   S    
C105  O7    S    
C133  N9    A    
C50   O16   S    
C129  H26   S    
N2    Ni1   S    
C61   C86   S    
C59   C109  A    
C79   C106  A    
N15   N23   A    
C70   C122  A    
C74   C127  A    
C66   C138  A    
C38   H104  S    
C51   O17   S    
C19   N38   A    
C131  N7    A    
C41   H113  S    
N20   N28   A    
N15   Ni8   S    
C95   O21   S    
C66   C119  A    
C136  N11   A    
N43   Ni3   S    
C77   C134  S    
C33   H89   S    
N25   Ni11  S    
C53   C94   A    
N18   Ni9   S    
C56   C82   S    
C30   H79   S    
C98   O24   S    
N21   N27   A    
C17   C84   A    
C20   C63   A    
C91   O12   S    
C97   C123  A    
C43   H119  S    
N6    N42   A    
C39   H106  S    
N27   Ni12  S    
N1    Ni1   S    
C125  H110  S    
N35   N48   A    
C121  N45   A    
C68   C105  A    
C31   H82   S    
C126  N2    A    
C13   C91   A    
C95   C101  A    
N24   Ni9   S    
N2    N33   A    
C8    N27   A    
C28   H73   S    
C53   C74   S    
C16   C72   A    
C64   C90   S    
N3    Ni6   S    
C25   N43   A    
N10   Ni9   S    
C55   C102  A    
C113  O15   S    
C119  H55   S    
N22   Ni8   S    
N44   Ni5   S    
C10   H50   S    
C40   H108  S    
N5    Ni1   S    
C106  O8    S    
C38   H102  S    
C18   N37   A    
C44   H3    S    
C52   C95   A    
C108  O10   S    
C45   H6    S    
N12   Ni5   S    
C83   C140  A    
C29   H76   S    
C137  H34   S    
C1    C89   A    
C33   H91   S    
N29   N45   A    
C142  H39   S    
C48   H12   S    
C13   C80   S    
C3    C86   A    
C27   H71   S    
C7    H47   S    
C40   O6    S    
C90   C94   A    
C34   O24   S    
C131  H28   S    
C14   N32   A    
C20   H60   S    
C58   C81   S    
C114  O16   S    
C26   O1    S    
N31   Ni2   S    
C4    N22   A    
C64   C117  A    
N20   Ni10  S    
C97   O23   S    
N14   Ni9   S    
C19   C64   A    
C74   C135  A    
N37   Ni12  S    
C18   C83   A    
C128  N4    A    
C111  O14   S    
C18   H58   S    
C124  H99   S    
C141  N17   A    
N29   Ni3   S    
C35   C110  A    
N30   Ni4   S    
C40   H109  S    
C24   C78   S    
C107  O9    S    
N26   N40   A    
C2    C76   S    
C15   H54   S    
C32   H85   S    
C52   C104  A    
C57   C91   A    
C50   H19   S    
C32   O22   S    
N33   Ni4   S    
C104  O6    S    
C9    N28   A    
C75   C133  A    
C47   H10   S    
C122  H88   S    
C44   H5    S    
C21   N40   A    
C55   C115  A    
C84   C141  A    
C53   C103  A    
C68   C71   S    
C36   O2    S    
C24   C102  A    
C77   C130  A    
C65   C123  S    
C1    C69   S    
C56   C105  A    
C110  O13   S    
C60   C110  A    
N19   Ni8   S    
C39   H107  S    
C115  O17   S    
C27   O12   S    
C46   C109  A    
C27   H69   S    
C121  H77   S    
C5    C78   A    
N12   N38   A    
C36   H96   S    
N3    N10   A    
C31   H83   S    
C59   C99   A    
C63   C101  S    
C34   H92   S    
C24   C89   A    
N26   Ni10  S    
C126  H2    S    
C96   C112  A    
C22   N41   A    
C96   O22   S    
C4    H43   S    
C79   C93   A    
C82   C137  A    
C37   O3    S    
C99   C112  A    
N8    N22   A    
C122  N46   A    
N11   Ni10  S    
C141  H38   S    
C21   H61   S    
C34   H93   S    
C59   C88   S    
C139  H36   S    
N16   Ni11  S    
N21   Ni11  S    
C40   H111  S    
N13   N31   A    
N4    N9    A    
C144  N20   A    
C26   H67   S    
C102  O4    S    
C133  H30   S    
C42   O8    S    
C6    N25   A    
N35   Ni3   S    
C44   O10   S    
C32   H87   S    
C30   H81   S    
C54   C100  A    
C57   C67   S    
C117  N12   A    
C60   C87   S    
C11   C67   A    
C47   O13   S    
C98   C123  A    
C48   H15   S    
C20   N39   A    
C71   C124  A    
C93   C134  A    
C118  H44   S    
C30   H80   S    
C6    C87   A    
C58   C106  A    
C135  H31   S    
C78   C131  A    
C42   H115  S    
C76   C129  A    
C39   H105  S    
C69   C121  A    
C6    H46   S    
C120  N44   A    
C12   C82   A    
N40   Ni12  S    
C125  N48   A    
C2    C92   A    
C49   H18   S    
C71   C142  A    
C99   O2    S    
C33   O23   S    
C61   C113  A    
C43   O9    S    
C63   C116  A    
C3    H42   S    
C62   C103  A    
C35   C73   S    
C28   H74   S    
C37   H98   S    
N17   Ni10  S    
N1    N39   A    
C57   C114  A    
C140  H37   S    
C135  N10   A    
N42   Ni4   S    
C13   C100  A    
C47   H11   S    
C36   H95   S    
C38   H103  S    
C44   H4    S    
C26   H65   S    
C132  H29   S    
C41   H114  S    
C38   O4    S    
C129  N5    A    
N11   N32   A    
C29   H75   S    
C5    N24   A    
N32   Ni12  S    
C128  H24   S    
N48   Ni5   S    
C51   H22   S    
C66   C112  S    
C35   C97   A    
C33   H90   S    
