data_mof_unit_38389.cif
_audit_creation_date              2012-12-10T18:43:10-0500
_audit_creation_method            fapswitch 2.2
_symmetry_space_group_name_H-M    P1
_symmetry_Int_Tables_number       1
_space_group_crystal_system       triclinic
_cell_length_a                    10.606062
_cell_length_b                    9.923152
_cell_length_c                    10.730372
_cell_angle_alpha                 89.941956
_cell_angle_beta                  91.405772
_cell_angle_gamma                 90.012427
_cell_volume                      1128.98356725

loop_
_atom_site_label
_atom_site_type_symbol
_atom_type_description
_atom_site_fract_x
_atom_site_fract_y
_atom_site_fract_z
_atom_type_partial_charge
C1    C     C_R   0.260745 0.499939 0.499828 0.971808
C2    C     C_R   0.931926 0.491231 0.388803 0.320292
C3    C     C_R   0.871635 0.499821 0.503019 -0.402739
C4    C     C_R   0.128434 0.499882 0.502605 -0.406496
C5    C     C_R   0.938064 0.508374 0.618204 0.470429
C6    C     C_R   0.068091 0.508406 0.618004 0.424815
C7    C     C_R   0.581306 0.071818 0.576448 0.324257
C8    C     C_R   0.418737 0.071893 0.423526 0.318565
C9    C     C_R   0.582155 0.928380 0.575539 0.329276
C10   C     C_R   0.417889 0.928469 0.424429 0.323000
C11   C     C_R   0.739230 0.499943 0.500543 0.973847
C12   C     C_R   0.491992 0.499767 0.262661 0.847754
C13   C     C_R   0.508237 0.499604 0.737287 0.720164
C14   C     C_2   0.495266 0.388766 0.933061 -0.096637
C15   C     C_2   0.504140 0.388762 0.067010 -0.077892
C16   C     C_2   0.533791 0.496539 0.869350 0.390941
C17   C     C_2   0.467190 0.497243 0.130437 0.410124
C18   C     C_R   0.062026 0.491435 0.388582 0.368064
Cl1   Cl    Cl    0.141669 0.482266 0.245607 -0.399502
Cl2   Cl    Cl    0.844413 0.481097 0.246187 -0.435538
Cl3   Cl    Cl    0.685858 0.158927 0.677582 -0.446828
Cl4   Cl    Cl    0.314273 0.159007 0.322273 -0.418653
Cl5   Cl    Cl    0.691036 0.842026 0.672336 -0.458345
Cl6   Cl    Cl    0.309151 0.842204 0.327502 -0.440601
H1    H     H_    0.452949 0.301323 0.887685 0.164225
H2    H     H_    0.544694 0.300458 0.112618 0.168204
H3    H     H_    0.629539 0.664166 0.865549 0.391234
H4    H     H_    0.374771 0.667081 0.133361 0.397702
H5    H     H_    0.787993 0.511555 0.722309 0.327118
H6    H     H_    0.223703 0.512522 0.721755 0.320860
N1    N     N_R   0.500000 0.857200 0.500000 -0.195405
N2    N     N_R   0.500000 0.142810 0.500000 -0.198683
O1    O     O_R   0.316770 0.614620 0.499990 -0.564528
O2    O     O_3   0.401268 0.600442 0.070775 -0.660650
O3    O     O_3   0.880678 0.516272 0.732607 -0.605679
O4    O     O_3   0.131503 0.516339 0.732250 -0.624199
O5    O     O_R   0.683230 0.614620 0.500010 -0.562436
O6    O     O_R   0.316800 0.385290 0.500000 -0.563888
O7    O     O_R   0.683200 0.385290 0.500000 -0.559193
O8    O     O_R   0.500000 0.614630 0.319080 -0.575693
O9    O     O_R   0.500000 0.614630 0.680920 -0.584804
O10   O     O_R   0.500030 0.385300 0.319080 -0.598410
O11   O     O_R   0.499970 0.385300 0.680920 -0.609840
O12   O     O_3   0.601945 0.598320 0.928500 -0.658685
Zn1   Zn    Zn3+2 0.500000 0.653120 0.500000 1.097559
Zn2   Zn    Zn3+2 0.500000 0.346880 0.500000 1.085085

loop_
_geom_bond_atom_site_label_1
_geom_bond_atom_site_label_2
_ccdc_geom_bond_type
C12   C17   S    
C12   O8    A    
C8    Cl4   S    
C11   O5    A    
O5    Zn1   S    
C2    C18   A    
O1    Zn1   S    
C16   O12   S    
H6    O4    S    
C1    C4    S    
C4    C18   A    
C13   O9    A    
C2    C3    A    
H4    O2    S    
O9    Zn1   S    
C11   O7    A    
C5    C6    A    
C1    O6    A    
O7    Zn2   S    
C5    O3    S    
C8    C10   A    
C6    O4    S    
C10   N1    A    
C14   H1    S    
N1    Zn1   S    
O8    Zn1   S    
O11   Zn2   S    
C14   C16   D    
O6    Zn2   S    
C3    C11   S    
C17   O2    S    
C9    N1    A    
C1    O1    A    
C8    N2    A    
C7    C9    A    
C13   O11   A    
C4    C6    A    
C18   Cl1   S    
O10   Zn2   S    
C13   C16   S    
C15   C17   D    
C2    Cl2   S    
H5    O3    S    
C14   C15   S    
C9    Cl5   S    
C15   H2    S    
C12   O10   A    
C7    N2    A    
C10   Cl6   S    
C7    Cl3   S    
N2    Zn2   S    
H3    O12   S    
C3    C5    A    
