data_mof_unit_35516.cif
_audit_creation_date              2013-03-05T16:48:40-0500
_audit_creation_method            fapswitch 2.2
_symmetry_space_group_name_H-M    P1
_symmetry_Int_Tables_number       1
_space_group_crystal_system       triclinic
_cell_length_a                    27.47692
_cell_length_b                    8.932946
_cell_length_c                    8.104796
_cell_angle_alpha                 90.002849
_cell_angle_beta                  90.011909
_cell_angle_gamma                 91.788003
_cell_volume                      1988.35228688

loop_
_atom_site_label
_atom_site_type_symbol
_atom_site_description
_atom_site_fract_x
_atom_site_fract_y
_atom_site_fract_z
_atom_type_partial_charge
O1    O     O_R   0.500000 0.285350 0.636850 -0.613008
O2    O     O_R   0.500000 0.714650 0.363150 -0.613340
O3    O     O_R   0.500000 0.714650 0.636850 -0.612958
O4    O     O_R   0.500000 0.285350 0.363150 -0.613258
C1    C     C_R   0.499866 0.217973 0.499997 0.944564
C2    C     C_R   0.500135 0.782027 0.500002 0.944530
O5    O     O_R   0.428760 0.500000 0.636860 -0.620584
O6    O     O_R   0.571240 0.500000 0.363140 -0.622188
O7    O     O_R   0.571240 0.500000 0.636860 -0.620553
O8    O     O_R   0.428760 0.500000 0.363140 -0.622333
C3    C     C_R   0.405509 0.495497 0.499715 0.866176
C4    C     C_R   0.594486 0.504528 0.499755 0.866070
Zn1   Zn    Zn3+2 0.500000 0.500000 0.682780 0.993914
Zn2   Zn    Zn3+2 0.500000 0.500000 0.317220 0.992262
C5    C     C_R   0.170633 0.327777 0.487620 0.501466
C6    C     C_R   0.829323 0.672773 0.487552 0.501482
C7    C     C_R   0.182369 0.586898 0.420099 0.532795
C8    C     C_R   0.817584 0.413648 0.420002 0.532825
O9    O     O_2   0.190420 0.198163 0.534518 -0.485800
O10   O     O_2   0.809540 0.802379 0.534484 -0.485849
O11   O     O_2   0.213526 0.705643 0.402065 -0.490248
O12   O     O_2   0.786425 0.294915 0.401871 -0.490340
N1    N     N_R   0.199991 0.452317 0.467166 -0.369986
N2    N     N_R   0.799971 0.548199 0.467199 -0.369980
C9    C     C_R   0.274139 0.479262 0.633138 -0.102077
C10   C     C_R   0.725874 0.519160 0.632966 -0.102092
C11   C     C_R   0.279011 0.416323 0.342492 -0.117430
C12   C     C_R   0.720920 0.586036 0.343411 -0.117188
C13   C     C_R   0.324726 0.495360 0.640155 -0.206041
C14   C     C_R   0.675292 0.502978 0.639907 -0.205880
C15   C     C_R   0.329295 0.433731 0.348643 -0.198052
C16   C     C_R   0.670635 0.568503 0.349455 -0.198422
C17   C     C_R   0.251374 0.441647 0.483626 0.312456
C18   C     C_R   0.748597 0.558790 0.484010 0.312171
C19   C     C_R   0.101282 0.473667 0.409507 -0.187324
C20   C     C_R   0.898666 0.526909 0.409384 -0.187303
C21   C     C_R   0.120328 0.334838 0.457877 -0.120453
C22   C     C_R   0.879622 0.665739 0.457747 -0.120485
C23   C     C_R   0.132446 0.601520 0.390828 -0.127960
C24   C     C_R   0.867502 0.399048 0.390684 -0.127931
C25   C     C_R   0.088385 0.209109 0.477356 0.514269
C26   C     C_R   0.911563 0.791482 0.477225 0.514248
C27   C     C_R   0.112966 0.739270 0.342404 0.542415
C28   C     C_R   0.886981 0.261301 0.342247 0.542316
C29   C     C_R   0.352486 0.475929 0.496748 -0.039415
C30   C     C_R   0.647496 0.524284 0.496929 -0.039303
H1    H     H_    0.349925 0.415831 0.236878 0.162486
H2    H     H_    0.649958 0.587921 0.238103 0.162457
H3    H     H_    0.341944 0.526788 0.755825 0.160467
H4    H     H_    0.658105 0.469934 0.755084 0.160501
H5    H     H_    0.261252 0.389301 0.226440 0.125359
H6    H     H_    0.738644 0.614637 0.227761 0.125638
H7    H     H_    0.252554 0.501234 0.741752 0.128859
H8    H     H_    0.747491 0.495676 0.741114 0.129079
C31   C     C_R   0.969118 0.371636 0.367147 0.008901
C32   C     C_R   0.030830 0.628943 0.367194 0.008900
C33   C     C_R   0.980232 0.643731 0.390028 0.031373
C34   C     C_R   0.019715 0.356851 0.390067 0.031367
C35   C     C_R   0.949302 0.514455 0.386161 0.070351
C36   C     C_R   0.050645 0.486125 0.386239 0.070352
C37   C     C_R   0.937522 0.247921 0.336017 -0.353237
C38   C     C_R   0.062425 0.752655 0.336115 -0.353258
C39   C     C_R   0.960390 0.781489 0.432354 -0.367125
C40   C     C_R   0.039556 0.219100 0.432439 -0.367141
H9    H     H_    0.951454 0.139108 0.308068 0.165264
H10   H     H_    0.048495 0.861465 0.308144 0.165257
H11   H     H_    0.983061 0.881108 0.446915 0.154032
H12   H     H_    0.016882 0.119490 0.446993 0.154045
C41   C     C_1   0.499953 0.065185 0.499993 -0.185638
C42   C     C_1   0.500048 0.934815 0.500002 -0.185633
N3    N     N_1   0.500000 0.500000 0.073640 -0.035844
N4    N     N_1   0.500000 0.500000 0.926360 -0.035185
O13   O     O_3   0.104580 0.073670 0.534966 -0.525463
C43   C     C_3   0.088720 0.052275 0.699690 0.140652
H13   H     H_    0.050346 0.085124 0.720069 0.100112
H14   H     H_    0.112798 0.118682 0.784475 0.148149
C44   C     C_3   0.091377 0.887342 0.744127 -0.813783
H15   H     H_    0.129325 0.849492 0.731700 0.279819
H16   H     H_    0.078715 0.869248 0.872568 0.172018
H17   H     H_    0.067057 0.819450 0.662455 0.253981
O14   O     O_3   0.895368 0.926932 0.534804 -0.525454
C45   C     C_3   0.911232 0.948362 0.699544 0.140740
H18   H     H_    0.949613 0.915572 0.719951 0.100094
H19   H     H_    0.887168 0.881926 0.784305 0.148179
C46   C     C_3   0.908550 0.113292 0.743991 -0.813773
H20   H     H_    0.870596 0.151089 0.731508 0.279794
H21   H     H_    0.921206 0.131409 0.872454 0.172006
H22   H     H_    0.932861 0.181215 0.662366 0.253975
O15   O     O_3   0.143033 0.865288 0.321357 -0.494408
C47   C     C_3   0.141467 0.912336 0.155271 0.132462
H23   H     H_    0.106520 0.967143 0.129139 0.114737
H24   H     H_    0.146291 0.816639 0.068957 0.116028
C48   C     C_3   0.182598 0.026679 0.124048 -0.709077
H25   H     H_    0.218173 0.977582 0.154001 0.277355
H26   H     H_    0.182654 0.060589 0.992237 0.192281
H27   H     H_    0.177607 0.127522 0.201389 0.256304
O16   O     O_3   0.856916 0.135271 0.321196 -0.494428
C49   C     C_3   0.858469 0.088198 0.155114 0.132701
H28   H     H_    0.893429 0.033494 0.128953 0.114663
H29   H     H_    0.853597 0.183865 0.068802 0.116059
C50   C     C_3   0.817368 0.973722 0.123927 -0.709411
H30   H     H_    0.781781 0.022694 0.153940 0.277332
H31   H     H_    0.817293 0.939813 0.992110 0.192364
H32   H     H_    0.822414 0.872897 0.201244 0.256187

loop_
_geom_bond_atom_site_label_1
_geom_bond_atom_site_label_2
_geom_bond_distance
_ccdc_geom_bond_type
C50   H30   1.110619 S    
C31   C35   1.411108 A    
Zn2   N3    1.974166 S    
C20   C35   1.411847 A    
O16   C49   1.411245 S    
C13   H3    1.083059 S    
C44   H15   1.110739 S    
C11   C17   1.395458 A    
C5    O9    1.349029 S    
C48   H25   1.110616 S    
C43   H14   1.112241 S    
C21   C25   1.412532 A    
O1    C1    1.261872 A    
C40   H12   1.076680 S    
C19   C21   1.416322 A    
C9    H7    1.082887 S    
C22   C26   1.412544 A    
C33   C35   1.412657 A    
C34   C36   1.412650 A    
C49   H28   1.111684 S    
C32   C33   1.412850 A    
C7    C23   1.402143 A    
O7    Zn1   1.992596 S    
C5    C21   1.406415 A    
C1    C41   1.364922 S    
C47   H24   1.115697 S    
C10   C18   1.399706 A    
N1    C17   1.424260 S    
C43   C44   1.520696 S    
N2    C18   1.424259 S    
C8    N2    1.364385 A    
C24   C28   1.412726 A    
O3    Zn1   1.953275 S    
C6    O10   1.349033 S    
O3    C2    1.261886 A    
C44   H16   1.107911 S    
C14   H4    1.083073 S    
C12   C18   1.395454 A    
C6    N2    1.363800 A    
C15   H1    1.083171 S    
C34   C40   1.403967 A    
C16   H2    1.083186 S    
O2    C2    1.261863 A    
C26   O14   1.383272 S    
C10   H8    1.082892 S    
C11   H5    1.083267 S    
C33   C39   1.403974 A    
C46   H21   1.107915 S    
O13   C43   1.415588 S    
C9    C13   1.394091 A    
C39   H11   1.076672 S    
C43   H13   1.115583 S    
C38   H10   1.079763 S    
C11   C15   1.386446 A    
C20   C24   1.414091 A    
C4    C30   1.461925 S    
O8    Zn2   1.992598 S    
C23   C27   1.412710 A    
C46   H20   1.110736 S    
O14   C45   1.415591 S    
C32   C36   1.411110 A    
C13   C29   1.404065 A    
C19   C36   1.411857 A    
C19   C23   1.414078 A    
C28   O16   1.385967 S    
O5    C3    1.281932 A    
C12   C16   1.386540 A    
O6    C4    1.278153 A    
C7    N1    1.364384 A    
C10   C14   1.394005 A    
C48   H27   1.109461 S    
C49   H29   1.115687 S    
C32   C38   1.406644 A    
C3    C29   1.462144 S    
O1    Zn1   1.953239 S    
C49   C50   1.520773 S    
C47   C48   1.520758 S    
C50   H31   1.110432 S    
C46   H22   1.107677 S    
C2    C42   1.364922 S    
O6    Zn2   1.992444 S    
C8    O12   1.350119 S    
C16   C30   1.404823 A    
C14   C30   1.403949 A    
O4    C1    1.261877 A    
Zn1   N4    1.974166 S    
C28   C37   1.398484 A    
C50   H32   1.109461 S    
C45   C46   1.520716 S    
C45   H19   1.112232 S    
C20   C22   1.416325 A    
N3    N4    1.193674 T    
C12   H6    1.083262 S    
C47   H23   1.111678 S    
C44   H17   1.107687 S    
C31   C37   1.406654 A    
C5    N1    1.363797 A    
C27   O15   1.385961 S    
O4    Zn2   1.953275 S    
C41   C42   1.164668 T    
O2    Zn2   1.953238 S    
O7    C4    1.281826 A    
C7    O11   1.350126 S    
O8    C3    1.278166 A    
C25   O13   1.383257 S    
C37   H9    1.079772 S    
O5    Zn1   1.992447 S    
C8    C24   1.402153 A    
C48   H26   1.110427 S    
C45   H18   1.115573 S    
C15   C29   1.404864 A    
C31   C34   1.412844 A    
C9    C17   1.399663 A    
C25   C40   1.395653 A    
O15   C47   1.411244 S    
C26   C39   1.395643 A    
C27   C38   1.398474 A    
C6    C22   1.406402 A    
