data_mof_unit_43864.cif
_audit_creation_date              2012-12-10T17:31:18-0500
_audit_creation_method            fapswitch 2.2
_symmetry_space_group_name_H-M    P1
_symmetry_Int_Tables_number       1
_space_group_crystal_system       triclinic
_cell_length_a                    19.177969
_cell_length_b                    18.455295
_cell_length_c                    12.31943
_cell_angle_alpha                 90.882239
_cell_angle_beta                  129.383829
_cell_angle_gamma                 89.735551
_cell_volume                      3369.64002223

loop_
_atom_site_label
_atom_site_type_symbol
_atom_type_description
_atom_site_fract_x
_atom_site_fract_y
_atom_site_fract_z
_atom_type_partial_charge
C1    C     C_R   0.613492 0.899454 0.654816 0.798355
C2    C     C_R   0.605204 0.106109 0.645441 0.806619
C3    C     C_R   0.113498 0.399459 0.654823 0.798328
C4    C     C_R   0.105223 0.606098 0.645463 0.806594
C5    C     C_R   0.215511 0.791133 0.011631 0.031182
C6    C     C_R   0.253261 0.234100 0.054147 0.035691
C7    C     C_R   0.715490 0.291127 0.011633 0.031108
C8    C     C_R   0.753326 0.734178 0.054271 0.035693
C9    C     C_R   0.660533 0.261831 0.040991 0.081450
C10   C     C_R   0.671446 0.733834 0.033756 0.089161
C11   C     C_R   0.160512 0.761867 0.040931 0.081379
C12   C     C_R   0.171339 0.233685 0.033503 0.089327
C13   C     C_R   0.582782 0.220769 0.935399 0.217311
C14   C     C_R   0.592568 0.760971 0.908753 0.219952
C15   C     C_R   0.082764 0.720805 0.935322 0.217337
C16   C     C_R   0.092483 0.260833 0.908491 0.219901
C17   C     C_R   0.574882 0.196638 0.819234 -0.191718
C18   C     C_R   0.597368 0.792641 0.812091 -0.189308
C19   C     C_R   0.074890 0.696667 0.819183 -0.191742
C20   C     C_R   0.097328 0.292574 0.811931 -0.189435
C21   C     C_R   0.291617 0.832920 0.115249 -0.222220
C22   C     C_R   0.322289 0.188554 0.156893 -0.214072
C23   C     C_R   0.791596 0.332924 0.115230 -0.222302
C24   C     C_R   0.822336 0.688599 0.156957 -0.213905
C25   C     C_R   0.258385 0.819167 0.272902 -0.187115
C26   C     C_R   0.242526 0.163489 0.244671 -0.195478
C27   C     C_R   0.758442 0.319116 0.272971 -0.187188
C28   C     C_R   0.742678 0.663664 0.244957 -0.195513
C29   C     C_R   0.646416 0.178542 0.707339 -0.093297
C30   C     C_R   0.685543 0.848698 0.753292 -0.079975
C31   C     C_R   0.146487 0.678507 0.707405 -0.093292
C32   C     C_R   0.185557 0.348711 0.753309 -0.079947
C33   C     C_R   0.684238 0.999700 0.288152 -0.302211
C34   C     C_R   0.184237 0.499705 0.288150 -0.302257
C35   C     C_R   0.344132 0.002331 0.626567 0.032948
C36   C     C_R   0.844132 0.502312 0.626563 0.033209
C37   C     C_R   0.310519 0.007467 0.698528 -0.261048
C38   C     C_R   0.810515 0.507426 0.698519 -0.260849
C39   C     C_R   0.385435 0.099449 0.343890 0.785323
C40   C     C_R   0.384382 0.900659 0.341827 0.791875
C41   C     C_R   0.885454 0.599467 0.343919 0.785333
C42   C     C_R   0.884385 0.400655 0.341830 0.791873
C43   C     C_R   0.369425 0.008119 0.844890 -0.136822
C44   C     C_R   0.869417 0.508080 0.844882 -0.136975
C45   C     C_R   0.463292 0.003587 0.921627 -0.001955
C46   C     C_R   0.963287 0.503575 0.921624 -0.002126
C47   C     C_R   0.494896 0.001238 0.843242 0.261424
C48   C     C_R   0.994894 0.501243 0.843241 0.261241
C49   C     C_R   0.526840 0.002302 0.072498 -0.022785
C50   C     C_R   0.026837 0.502292 0.072495 -0.022564
C51   C     C_R   0.620383 0.000932 0.141284 0.173770
C52   C     C_R   0.120380 0.500933 0.141282 0.173917
C53   C     C_R   0.649861 0.000685 0.063334 -0.269124
C54   C     C_R   0.149859 0.500694 0.063333 -0.269016
C55   C     C_R   0.588613 0.000753 0.917883 -0.156044
C56   C     C_R   0.088611 0.500764 0.917883 -0.156089
C57   C     C_R   0.502125 0.001383 0.159264 0.033235
C58   C     C_R   0.002124 0.501376 0.159264 0.033167
C59   C     C_R   0.655563 0.999335 0.367096 0.070529
C60   C     C_R   0.155563 0.499339 0.367096 0.070532
C61   C     C_R   0.685053 0.274836 0.174425 -0.211386
C62   C     C_R   0.669591 0.702959 0.135844 -0.203122
C63   C     C_R   0.184992 0.774896 0.174335 -0.211391
C64   C     C_R   0.169416 0.202731 0.135472 -0.203198
C65   C     C_R   0.311400 0.849201 0.243219 -0.069039
C66   C     C_R   0.316850 0.152779 0.250336 -0.069485
C67   C     C_R   0.811413 0.349185 0.243235 -0.069002
C68   C     C_R   0.816921 0.652848 0.250447 -0.069538
C69   C     C_R   0.692503 0.213604 0.668892 -0.280062
C70   C     C_R   0.766435 0.853982 0.775624 -0.275083
C71   C     C_R   0.192663 0.713513 0.669063 -0.279978
C72   C     C_R   0.266474 0.354042 0.775729 -0.275107
C73   C     C_R   0.228737 0.782673 0.721621 -0.227296
C74   C     C_R   0.344792 0.325591 0.895041 -0.236018
C75   C     C_R   0.728515 0.282786 0.721404 -0.227431
C76   C     C_R   0.844764 0.825541 0.894930 -0.236138
C77   C     C_R   0.229172 0.814548 0.825799 0.467373
C78   C     C_R   0.344527 0.290879 0.994642 0.463157
C79   C     C_R   0.728994 0.314632 0.825648 0.467479
C80   C     C_R   0.844538 0.790883 0.994614 0.463234
C81   C     C_R   0.696194 0.274146 0.882402 -0.042262
C82   C     C_R   0.760732 0.775513 0.965055 -0.038150
C83   C     C_R   0.196274 0.774115 0.882458 -0.042257
C84   C     C_R   0.260701 0.275475 0.965003 -0.038166
C85   C     C_R   0.639570 0.214537 0.803773 -0.027907
C86   C     C_R   0.680734 0.805659 0.842737 -0.033340
C87   C     C_R   0.139620 0.714528 0.803794 -0.028005
C88   C     C_R   0.180717 0.305629 0.842674 -0.033313
Cu1   Cu    Cu3+1 0.526340 0.000000 0.421010 0.936929
Cu2   Cu    Cu3+1 0.026340 0.500000 0.421010 0.936924
Cu3   Cu    Cu3+1 0.473640 0.000000 0.578990 0.908347
Cu4   Cu    Cu3+1 0.973640 0.500000 0.578990 0.908422
H1    H     H_    0.273762 0.829631 0.372892 0.159955
H2    H     H_    0.237979 0.137222 0.318051 0.149644
H3    H     H_    0.773849 0.329561 0.372989 0.160002
H4    H     H_    0.738170 0.637445 0.318417 0.149689
H5    H     H_    0.721378 0.000056 0.115408 0.146565
H6    H     H_    0.221376 0.500071 0.115407 0.146531
H7    H     H_    0.755915 0.998864 0.341550 0.137199
H8    H     H_    0.255914 0.498876 0.341547 0.137177
H9    H     H_    0.432570 0.001141 0.115861 0.127530
H10   H     H_    0.932569 0.501135 0.115862 0.127500
H11   H     H_    0.297965 0.002320 0.512982 0.135857
H12   H     H_    0.797967 0.502297 0.512978 0.135764
H13   H     H_    0.340165 0.013962 0.895481 0.152158
H14   H     H_    0.840144 0.513892 0.895461 0.152321
H15   H     H_    0.238770 0.012455 0.640529 0.152096
H16   H     H_    0.738765 0.512392 0.640510 0.151944
H17   H     H_    0.618224 0.000833 0.868442 0.208579
H18   H     H_    0.118222 0.500842 0.868441 0.208578
H19   H     H_    0.649743 0.250177 0.206295 0.146610
H20   H     H_    0.611140 0.707020 0.130335 0.146035
H21   H     H_    0.149648 0.750264 0.206169 0.146690
H22   H     H_    0.110896 0.206690 0.129799 0.146053
H23   H     H_    0.336894 0.852321 0.097975 0.196035
H24   H     H_    0.377614 0.175359 0.158519 0.213262
H25   H     H_    0.836832 0.352359 0.097897 0.196013
H26   H     H_    0.877616 0.675363 0.158487 0.213211
H27   H     H_    0.696296 0.189416 0.592129 0.181807
H28   H     H_    0.771068 0.885696 0.707097 0.167834
H29   H     H_    0.196481 0.689300 0.592343 0.181796
H30   H     H_    0.271130 0.385794 0.707263 0.167810
H31   H     H_    0.255377 0.812247 0.679644 0.165070
H32   H     H_    0.407699 0.334587 0.914710 0.157537
H33   H     H_    0.755094 0.312394 0.679365 0.165107
H34   H     H_    0.907652 0.834512 0.914531 0.157537
H35   H     H_    0.514811 0.167942 0.736112 0.191441
H36   H     H_    0.534179 0.806687 0.711736 0.178098
H37   H     H_    0.014813 0.667987 0.736029 0.191418
H38   H     H_    0.034154 0.306644 0.711576 0.178126
H39   H     H_    0.704526 0.998410 0.480537 0.121184
H40   H     H_    0.204526 0.498419 0.480537 0.121199
N1    N     N_R   0.566260 0.000000 0.302220 -0.181572
N2    N     N_R   0.066260 0.500000 0.302220 -0.181577
N3    N     N_R   0.434410 0.000000 0.697680 -0.215128
N4    N     N_R   0.934410 0.500000 0.697680 -0.215066
O1    O     O_R   0.608610 0.924520 0.551740 -0.577714
O2    O     O_R   0.608610 0.075480 0.551740 -0.578845
O3    O     O_R   0.108610 0.424520 0.551740 -0.577714
O4    O     O_R   0.108610 0.575480 0.551740 -0.578864
O5    O     O_R   0.564110 0.924510 0.685150 -0.601038
O6    O     O_R   0.564110 0.075490 0.685150 -0.610995
O7    O     O_R   0.064110 0.424510 0.685150 -0.601012
O8    O     O_R   0.064110 0.575490 0.685150 -0.610995
O9    O     O_R   0.435880 0.075470 0.314850 -0.589251
O10   O     O_R   0.435880 0.924530 0.314850 -0.582662
O11   O     O_R   0.935880 0.575470 0.314850 -0.589235
O12   O     O_R   0.935880 0.424530 0.314850 -0.582666
O13   O     O_R   0.391380 0.075460 0.448260 -0.597739
O14   O     O_R   0.391380 0.924540 0.448260 -0.587619
O15   O     O_R   0.891380 0.575460 0.448260 -0.597766
O16   O     O_R   0.891380 0.424540 0.448260 -0.587557
N5    N     N_2   0.515349 0.202179 0.947928 -0.423334
H41   H     H_    0.516737 0.232187 0.020216 0.271333
C89   C     C_3   0.423281 0.189894 0.820987 -0.679714
H42   H     H_    0.379033 0.180898 0.848639 0.240037
H43   H     H_    0.418051 0.140541 0.764400 0.240912
H44   H     H_    0.398424 0.237475 0.751376 0.218445
N6    N     N_2   0.506265 0.751574 0.872253 -0.447992
H45   H     H_    0.496441 0.703559 0.902644 0.246275
C90   C     C_3   0.474117 0.814633 0.899114 -0.658727
H46   H     H_    0.413067 0.800332 0.885812 0.231826
H47   H     H_    0.456195 0.857287 0.823091 0.248304
H48   H     H_    0.526184 0.835299 0.008389 0.227121
N7    N     N_2   0.015317 0.702216 0.947817 -0.423338
H49   H     H_    0.016673 0.732236 0.020062 0.271301
C91   C     C_3   0.923265 0.689882 0.820866 -0.679768
H50   H     H_    0.879007 0.680880 0.848498 0.240046
H51   H     H_    0.918081 0.640516 0.764347 0.240927
H52   H     H_    0.898385 0.737441 0.751202 0.218421
N8    N     N_2   0.006157 0.251401 0.871884 -0.447933
H53   H     H_    0.996273 0.203263 0.901875 0.246272
C92   C     C_3   0.974208 0.314300 0.899494 -0.658835
H54   H     H_    0.912807 0.300039 0.885210 0.231917
H55   H     H_    0.956915 0.357377 0.824525 0.248390
H56   H     H_    0.026151 0.334395 0.009241 0.226879
O17   O     O_3   0.254664 0.886924 0.859860 -0.646149
C93   C     C_3   0.182096 0.930334 0.826891 0.038505
H57   H     H_    0.208340 0.986401 0.864270 0.160251
H58   H     H_    0.157827 0.913747 0.884069 0.148664
C94   C     C_3   0.102603 0.932163 0.668340 -0.375792
H59   H     H_    0.127980 0.946163 0.612020 0.224758
H60   H     H_    0.069491 0.878026 0.630158 0.213858
C95   C     C_3   0.032331 0.987752 0.634282 -0.923364
H61   H     H_    0.005327 0.974360 0.689045 0.255067
H62   H     H_    0.975681 0.987288 0.519312 0.250898
H63   H     H_    0.062627 0.042972 0.667044 0.259307
O18   O     O_3   0.427405 0.273054 0.119705 -0.654128
C96   C     C_3   0.460600 0.330731 0.218596 0.049034
H64   H     H_    0.504610 0.306423 0.324634 0.178584
H65   H     H_    0.406360 0.360175 0.210144 0.127348
C97   C     C_3   0.517029 0.383716 0.206941 -0.352124
H66   H     H_    0.560222 0.352982 0.191774 0.228171
H67   H     H_    0.471535 0.418947 0.114802 0.206329
C98   C     C_3   0.577240 0.431746 0.337826 -0.949314
H68   H     H_    0.535763 0.462511 0.356584 0.260373
H69   H     H_    0.614444 0.470867 0.323298 0.252082
H70   H     H_    0.627233 0.398107 0.430390 0.252931
O19   O     O_3   0.754485 0.387009 0.859739 -0.646126
C99   C     C_3   0.681987 0.430400 0.827087 0.038413
H71   H     H_    0.708287 0.486439 0.864672 0.160137
H72   H     H_    0.657768 0.413709 0.884282 0.148839
C100  C     C_3   0.602430 0.432406 0.668586 -0.375732
H73   H     H_    0.627697 0.446858 0.612297 0.224622
H74   H     H_    0.569501 0.378218 0.630044 0.214014
C101  C     C_3   0.531987 0.487673 0.635011 -0.923283
H75   H     H_    0.505030 0.473801 0.689654 0.255015
H76   H     H_    0.475332 0.487401 0.520047 0.250909
H77   H     H_    0.562108 0.542945 0.668247 0.259343
O20   O     O_3   0.927429 0.773076 0.119677 -0.654104
C102  C     C_3   0.960677 0.830807 0.218478 0.049047
H78   H     H_    0.004861 0.806561 0.324566 0.178651
H79   H     H_    0.906478 0.860198 0.210215 0.127325
C103  C     C_3   0.016874 0.883844 0.206396 -0.352371
H80   H     H_    0.059887 0.853153 0.190804 0.228187
H81   H     H_    0.971212 0.919094 0.114356 0.206313
C104  C     C_3   0.077305 0.931850 0.337266 -0.949126
H82   H     H_    0.036021 0.962557 0.356479 0.260426
H83   H     H_    0.114295 0.971024 0.322399 0.252107
H84   H     H_    0.127480 0.898202 0.429690 0.252811

loop_
_geom_bond_atom_site_label_1
_geom_bond_atom_site_label_2
_ccdc_geom_bond_type
C26   H2    S    
C74   H32   S    
C100  H73   S    
Cu3   O5    S    
C25   H1    S    
N7    H49   S    
C8    C24   A    
C89   H43   S    
C76   H34   S    
C14   C18   A    
C83   C87   A    
C101  H77   S    
C25   C63   A    
C93   C94   S    
N8    H53   S    
C42   O12   A    
C60   H40   S    
Cu3   N3    S    
C90   H46   S    
C32   C72   A    
C10   C62   A    
C94   H59   S    
C58   N2    A    
C104  H84   S    
Cu1   O9    S    
C100  H74   S    
C59   H39   S    
C18   C86   A    
C15   N7    S    
C2    C29   S    
C9    C61   A    
C80   O20   S    
C28   C68   A    
C5    C11   A    
C35   H11   S    
N6    H45   S    
C6    C12   A    
Cu2   N2    S    
Cu1   Cu3   S    
C103  H81   S    
C92   H56   S    
C77   C83   A    
C6    C22   A    
C49   C57   A    
C95   H61   S    
C48   C56   A    
C43   H13   S    
C23   C67   A    
C96   H65   S    
Cu4   O7    S    
C9    C13   A    
C22   C66   A    
C26   C64   A    
C27   C61   A    
C6    C84   A    
C18   H36   S    
C27   H3    S    
C1    O5    A    
C12   C16   A    
C70   H28   S    
C99   H71   S    
C49   C51   A    
Cu4   O16   S    
C50   C52   A    
N6    C90   S    
C58   H10   S    
C30   C86   A    
C42   O16   A    
C30   C70   A    
C29   C85   A    
C21   H23   S    
C98   H70   S    
C72   H30   S    
C53   C55   A    
O19   C99   S    
N7    C91   S    
C55   H17   S    
C89   H44   S    
C34   C60   A    
C57   N1    A    
Cu4   N4    S    
C11   C15   A    
C17   C85   A    
C36   N4    A    
C56   H18   S    
C90   H47   S    
C52   C54   A    
Cu2   O3    S    
C41   C68   S    
C54   C56   A    
C45   C47   A    
Cu1   O10   S    
C100  C101  S    
C46   C48   A    
Cu1   N1    S    
C28   C62   A    
C40   O14   A    
C26   C66   A    
C97   C98   S    
C93   H57   S    
C3    O7    A    
C91   H51   S    
C10   C14   A    
C94   H60   S    
C35   N3    A    
C91   H50   S    
Cu3   O13   S    
C101  H75   S    
C17   H35   S    
C44   C46   A    
C53   H5    S    
C104  H82   S    
C92   H54   S    
C69   H27   S    
C77   O17   S    
C33   C51   A    
C98   H68   S    
O18   C96   S    
C75   H33   S    
C2    O2    A    
C23   H25   S    
C37   C43   A    
C96   C97   S    
C15   C19   A    
C38   C44   A    
Cu2   O11   S    
C4    O4    A    
N8    C92   S    
C34   H8    S    
C102  H78   S    
C41   O11   A    
C45   C49   A    
C16   C20   A    
C39   O9    A    
Cu4   O15   S    
C50   C58   A    
C5    C21   A    
C3    C32   S    
C43   C45   A    
C13   N5    S    
N5    C89   S    
C92   H55   S    
C91   H52   S    
C72   C74   A    
C7    C81   A    
O17   C93   S    
C78   O18   S    
Cu1   O1    S    
C40   C65   S    
C70   C76   A    
C42   C67   S    
C2    O6    A    
C39   C66   S    
C102  H79   S    
C31   C87   A    
C3    O3    A    
Cu2   O12   S    
C61   H19   S    
C60   N2    A    
C90   H48   S    
C1    O1    A    
C35   C37   A    
C47   C55   A    
C94   C95   S    
C19   H37   S    
C7    C9    A    
C12   C64   A    
C46   C50   A    
C79   O19   S    
C21   C65   A    
C103  H80   S    
C34   C52   A    
C48   N4    A    
C8    C10   A    
C54   H6    S    
C76   C80   A    
C20   H38   S    
C103  C104  S    
C4    O8    A    
Cu3   O14   S    
C93   H58   S    
C5    C83   A    
C37   H15   S    
C41   O15   A    
C1    C30   S    
C44   H14   S    
C104  H83   S    
C57   H9    S    
C39   O13   A    
C79   C81   A    
C95   H62   S    
C95   H63   S    
C40   O10   A    
C14   N6    S    
C28   H4    S    
C33   H7    S    
C97   H66   S    
Cu3   O6    S    
C36   C38   A    
C19   C87   A    
C73   H31   S    
C82   C86   A    
C16   N8    S    
C36   H12   S    
C84   C88   A    
C99   C100  S    
C7    C23   A    
C20   C88   A    
C71   H29   S    
C22   H24   S    
C24   H26   S    
Cu2   Cu4   S    
C80   C82   A    
C59   N1    A    
C69   C75   A    
C101  H76   S    
C47   N3    A    
O20   C102  S    
C38   H16   S    
C96   H64   S    
Cu4   O8    S    
C4    C31   S    
C27   C67   A    
C24   C68   A    
C13   C17   A    
C63   H21   S    
C78   C84   A    
C8    C82   A    
C102  C103  S    
C62   H20   S    
C64   H22   S    
C33   C59   A    
Cu1   O2    S    
C74   C78   A    
C71   C73   A    
C89   H42   S    
C25   C65   A    
C73   C77   A    
C29   C69   A    
Cu2   O4    S    
C51   C53   A    
N5    H41   S    
C11   C63   A    
C75   C79   A    
C99   H72   S    
C81   C85   A    
C97   H67   S    
C31   C71   A    
C98   H69   S    
C32   C88   A    
