data_mof_unit_6733.cif
_audit_creation_date              2012-12-11T15:27:46-0500
_audit_creation_method            fapswitch 2.2
_symmetry_space_group_name_H-M    P1
_symmetry_Int_Tables_number       1
_space_group_crystal_system       triclinic
_cell_length_a                    23.265865
_cell_length_b                    7.301869
_cell_length_c                    15.141701
_cell_angle_alpha                 89.580839
_cell_angle_beta                  108.293704
_cell_angle_gamma                 90.501244
_cell_volume                      2442.20951396

loop_
_atom_site_label
_atom_site_type_symbol
_atom_type_description
_atom_site_fract_x
_atom_site_fract_y
_atom_site_fract_z
_atom_type_partial_charge
O1    O     O_R   0.711000 0.648610 0.341170 -0.535972
O2    O     O_R   0.289000 0.351390 0.658830 -0.535973
O3    O     O_R   0.789000 0.148610 0.158830 -0.535456
O4    O     O_R   0.211000 0.851390 0.841170 -0.535455
O5    O     O_R   0.829650 0.322030 0.336650 -0.536897
O6    O     O_R   0.170350 0.677970 0.663350 -0.536897
O7    O     O_R   0.670350 0.822030 0.163350 -0.537613
O8    O     O_R   0.329650 0.177970 0.836650 -0.537613
C1    C     C_R   0.854279 0.486065 0.356776 0.717893
C2    C     C_R   0.145721 0.513935 0.643224 0.717893
C3    C     C_R   0.645717 0.985525 0.143226 0.717317
C4    C     C_R   0.354283 0.014475 0.856774 0.717318
O9    O     O_R   0.713950 0.319280 0.352070 -0.539359
O10   O     O_R   0.286050 0.680720 0.647930 -0.539359
O11   O     O_R   0.786050 0.819280 0.147930 -0.539818
O12   O     O_R   0.213950 0.180720 0.852070 -0.539819
O13   O     O_R   0.672470 0.142870 0.174360 -0.533003
O14   O     O_R   0.327530 0.857130 0.825640 -0.533003
O15   O     O_R   0.827530 0.642870 0.325640 -0.533670
O16   O     O_R   0.172470 0.357130 0.674360 -0.533670
C5    C     C_R   0.701867 0.486559 0.375988 0.682416
C6    C     C_R   0.298133 0.513441 0.624012 0.682417
C7    C     C_R   0.798099 0.988472 0.124047 0.682264
C8    C     C_R   0.201901 0.011528 0.875953 0.682263
O17   O     O_3   0.736530 0.478650 0.191680 -0.378698
O18   O     O_3   0.263470 0.521350 0.808320 -0.378698
O19   O     O_3   0.763470 0.978650 0.308320 -0.378342
O20   O     O_3   0.236530 0.021350 0.691680 -0.378342
V1    V     V_3+5 0.752500 0.206170 0.260820 1.428409
V2    V     V_3+5 0.247500 0.793830 0.739180 1.428409
V3    V     V_3+5 0.747500 0.706170 0.239180 1.425625
V4    V     V_3+5 0.252500 0.293830 0.760820 1.425624
C9    C     C_R   0.827628 0.001546 0.052366 -0.025807
C10   C     C_R   0.172373 0.998452 0.947635 -0.025810
C11   C     C_R   0.672447 0.490020 0.447956 -0.025148
C12   C     C_R   0.327553 0.509980 0.552044 -0.025148
C13   C     C_R   0.824627 0.086650 0.896883 -0.161131
C14   C     C_R   0.175372 0.913314 0.103113 -0.161131
C15   C     C_R   0.676476 0.441036 0.607390 -0.161308
C16   C     C_R   0.323524 0.558964 0.392610 -0.161307
C17   C     C_R   0.795053 0.059232 0.962759 -0.171548
C18   C     C_R   0.204946 0.940740 0.037238 -0.171544
C19   C     C_R   0.705723 0.453680 0.540329 -0.171307
C20   C     C_R   0.294277 0.546320 0.459671 -0.171306
C21   C     C_R   0.889869 0.971667 0.076528 -0.211093
C22   C     C_R   0.110133 0.028343 0.923475 -0.211095
C23   C     C_R   0.609816 0.513172 0.422248 -0.210958
C24   C     C_R   0.390184 0.486828 0.577752 -0.210958
C25   C     C_R   0.921476 0.002654 0.011685 0.082057
C26   C     C_R   0.078524 0.997337 0.988315 0.082057
C27   C     C_R   0.578574 0.496468 0.488493 0.082373
C28   C     C_R   0.421426 0.503533 0.511507 0.082372
C29   C     C_R   0.887378 0.060540 0.920686 0.139795
C30   C     C_R   0.112621 0.939434 0.079312 0.139796
C31   C     C_R   0.613393 0.460390 0.582258 0.140253
C32   C     C_R   0.386607 0.539611 0.417742 0.140253
C33   C     C_R   0.985588 0.981375 0.034508 0.058118
C34   C     C_R   0.014412 0.018611 0.965492 0.058118
C35   C     C_R   0.514183 0.510948 0.464619 0.058358
C36   C     C_R   0.485817 0.489053 0.535381 0.058358
C37   C     C_R   0.978149 0.074983 0.875921 -0.186490
C38   C     C_R   0.021850 0.924989 0.124077 -0.186490
C39   C     C_R   0.522791 0.454349 0.627640 -0.186462
C40   C     C_R   0.477209 0.545652 0.372360 -0.186462
C41   C     C_R   0.916062 0.094822 0.854274 -0.200546
C42   C     C_R   0.083937 0.905141 0.145723 -0.200545
C43   C     C_R   0.585132 0.440912 0.650261 -0.200799
C44   C     C_R   0.414868 0.559089 0.349739 -0.200799
H1    H     H_    0.890236 0.139115 0.784710 0.123134
H2    H     H_    0.109762 0.860833 0.215284 0.123134
H3    H     H_    0.611514 0.413325 0.721942 0.123155
H4    H     H_    0.388486 0.586677 0.278058 0.123155
H5    H     H_    0.253101 0.915307 0.055780 0.105479
H6    H     H_    0.746897 0.084654 0.944215 0.105478
H7    H     H_    0.245796 0.566626 0.439784 0.104828
H8    H     H_    0.754204 0.433374 0.560216 0.104829
H9    H     H_    0.798576 0.131679 0.827600 0.112362
H10   H     H_    0.201422 0.868268 0.172394 0.112361
H11   H     H_    0.703086 0.412543 0.678830 0.112173
H12   H     H_    0.296914 0.587458 0.321170 0.112171
H13   H     H_    0.996140 0.106032 0.820174 0.125069
H14   H     H_    0.003859 0.893926 0.179821 0.125069
H15   H     H_    0.505184 0.435878 0.684849 0.124904
H16   H     H_    0.494816 0.564124 0.315151 0.124904
C45   C     C_1   0.416780 0.007633 0.918747 -0.191270
C46   C     C_1   0.583220 0.992367 0.081253 -0.191271
C47   C     C_1   0.083226 0.506330 0.581279 -0.191286
C48   C     C_1   0.916774 0.493670 0.418721 -0.191286
C49   C     C_1   0.469146 0.002727 0.969962 0.001292
C50   C     C_1   0.530854 0.997273 0.030038 0.001292
C51   C     C_1   0.030854 0.502081 0.530050 0.001388
C52   C     C_1   0.969145 0.497919 0.469950 0.001388
H17   H     H_    0.087887 0.070296 0.852738 0.097792
H18   H     H_    0.912116 0.929741 0.147269 0.097790
H19   H     H_    0.412950 0.461715 0.650459 0.097530
H20   H     H_    0.587050 0.538285 0.349541 0.097530

loop_
_geom_bond_atom_site_label_1
_geom_bond_atom_site_label_2
_ccdc_geom_bond_type
O17   V3    S    
O1    C5    A    
C24   H19   S    
C47   C51   T    
O19   V1    S    
C9    C21   A    
O3    C7    A    
C10   C18   A    
O15   V3    S    
C25   C33   A    
C33   C38   A    
O7    C3    A    
C35   C40   A    
C26   C30   A    
C4    C45   S    
C36   C39   A    
C40   C44   A    
O9    V1    S    
C14   C18   A    
C1    C48   S    
O4    C8    A    
C25   C29   A    
C3    C46   S    
O1    V3    S    
O13   V1    S    
O2    V4    S    
O3    V1    S    
C40   H16   S    
C28   C36   A    
C17   H6    S    
C1    O15   A    
C15   C31   A    
C48   C52   T    
C2    O16   A    
C7    C9    S    
O2    C6    A    
C23   H20   S    
C16   H12   S    
C10   C22   A    
C11   C19   A    
C16   C20   A    
C43   H3    S    
C44   H4    S    
C13   C29   A    
C34   C37   A    
O11   C7    A    
C38   H14   S    
C11   C23   A    
C35   C36   A    
O12   C8    A    
O10   V2    S    
C21   H18   S    
O5    V1    S    
C39   C43   A    
C2    C47   S    
O7    V3    S    
C38   C42   A    
O8    V4    S    
C46   C50   T    
C51   C52   S    
C45   C49   T    
O18   V4    S    
C23   C27   A    
C14   H10   S    
C16   C32   A    
C32   C44   A    
C13   H9    S    
C8    C10   S    
C39   H15   S    
C26   C34   A    
C20   H7    S    
O5    C1    A    
C31   C43   A    
C14   C30   A    
C21   C25   A    
O8    C4    A    
O9    C5    A    
O14   V2    S    
O6    V2    S    
C12   C20   A    
C27   C35   A    
C29   C41   A    
O16   V4    S    
C19   H8    S    
C3    O13   A    
C18   H5    S    
O6    C2    A    
C15   C19   A    
O11   V3    S    
C30   C42   A    
O12   V4    S    
C6    C12   S    
C22   C26   A    
C9    C17   A    
O10   C6    A    
O20   V2    S    
C5    C11   S    
C37   H13   S    
C33   C34   A    
C42   H2    S    
C22   H17   S    
C41   H1    S    
C12   C24   A    
C27   C31   A    
C13   C17   A    
C37   C41   A    
C24   C28   A    
C4    O14   A    
C49   C50   S    
O4    V2    S    
C28   C32   A    
C15   H11   S    
