data_mof_unit_14178.cif
_audit_creation_date              2012-12-10T16:55:04-0500
_audit_creation_method            fapswitch 2.2
_symmetry_space_group_name_H-M    P1
_symmetry_Int_Tables_number       1
_space_group_crystal_system       triclinic
_cell_length_a                    9.720102
_cell_length_b                    10.910886
_cell_length_c                    15.461427
_cell_angle_alpha                 90.059902
_cell_angle_beta                  73.339633
_cell_angle_gamma                 91.571426
_cell_volume                      1570.29445696

loop_
_atom_site_label
_atom_site_type_symbol
_atom_type_description
_atom_site_fract_x
_atom_site_fract_y
_atom_site_fract_z
_atom_type_partial_charge
C1    C     C_R   0.998747 0.265154 0.498969 0.868176
C2    C     C_R   0.675183 0.458531 0.911014 0.068414
C3    C     C_R   0.774475 0.483627 0.960817 0.094921
C4    C     C_R   0.528813 0.430363 0.957509 0.023693
C5    C     C_R   0.481226 0.442545 0.052798 -0.034098
C6    C     C_R   0.585901 0.452675 0.100973 0.371829
C7    C     C_R   0.729119 0.478429 0.054824 -0.260535
C8    C     C_R   0.429087 0.387191 0.912607 -0.217696
C9    C     C_R   0.285705 0.363943 0.959385 -0.217908
C10   C     C_R   0.234239 0.391318 0.051116 0.065072
C11   C     C_R   0.331128 0.438099 0.096869 0.029922
C12   C     C_R   0.916346 0.499233 0.672441 0.788285
C13   C     C_R   0.087658 0.372206 0.098156 0.425207
C14   C     C_R   0.035589 0.413734 0.187373 -0.292073
C15   C     C_R   0.274771 0.483723 0.184218 -0.218165
C16   C     C_2   0.892874 0.928944 0.492568 -0.261823
C17   C     C_2   0.001065 0.866674 0.507231 -0.402843
C18   C     C_2   0.879525 0.062029 0.506761 0.483429
C19   C     C_2   0.999748 0.132636 0.492517 -0.396750
C20   C     C_2   0.404062 0.414421 0.537331 0.031337
C21   C     C_2   0.565202 0.403921 0.518346 -0.071522
C22   C     C_R   0.001103 0.734641 0.500859 0.877932
C23   C     C_R   0.083322 0.494845 0.327816 0.797121
C24   C     C_R   0.869540 0.493878 0.771678 -0.053303
C25   C     C_R   0.129506 0.468850 0.230642 -0.136120
C26   C     C_R   0.919393 0.510666 0.915925 -0.122887
C27   C     C_R   0.966926 0.514537 0.821963 -0.211855
C28   C     C_R   0.724926 0.466912 0.816323 -0.231314
Cu1   Cu    Cu3+1 0.138640 0.500020 0.499980 0.958865
Cu2   Cu    Cu3+1 0.861360 0.499980 0.500020 0.951444
H1    H     H_    0.805581 0.491894 0.093233 0.189938
H2    H     H_    0.086766 0.911007 0.528744 0.142547
H3    H     H_    0.105327 0.093176 0.473471 0.115541
H4    H     H_    0.334777 0.346598 0.581400 0.090422
H5    H     H_    0.607310 0.314136 0.522274 0.185776
H6    H     H_    0.342657 0.533955 0.216813 0.216754
H7    H     H_    0.922730 0.400511 0.223141 0.174254
H8    H     H_    0.996107 0.528921 0.953555 0.154994
H9    H     H_    0.652155 0.455542 0.775734 0.148984
H10   H     H_    0.459893 0.364955 0.841827 0.134662
N1    N     N_2   0.346430 0.498660 0.500980 -0.011921
N2    N     N_2   0.652550 0.498630 0.501000 -0.260622
O1    O     O_R   0.117050 0.321960 0.499980 -0.603277
O2    O     O_R   0.882890 0.321920 0.500020 -0.528187
O3    O     O_R   0.052910 0.500040 0.629810 -0.594134
O4    O     O_R   0.818750 0.499990 0.629840 -0.587897
O5    O     O_R   0.117110 0.678080 0.499980 -0.596198
O6    O     O_R   0.882950 0.678040 0.500020 -0.583934
O7    O     O_R   0.181250 0.500010 0.370160 -0.549613
O8    O     O_R   0.947090 0.499960 0.370190 -0.565029
O9    O     O_3   0.995188 0.317572 0.055021 -0.640219
C29   C     C_3   0.948878 0.199810 0.092248 0.043820
H11   H     H_    0.851661 0.172962 0.071849 0.163917
H12   H     H_    0.915818 0.198762 0.167462 0.131362
C30   C     C_3   0.063720 0.104402 0.054980 -0.355248
H13   H     H_    0.093557 0.105427 0.979996 0.222586
H14   H     H_    0.161354 0.127266 0.076136 0.210952
C31   C     C_3   0.009303 0.975875 0.089416 -0.915795
H15   H     H_    0.980922 0.972413 0.164301 0.256165
H16   H     H_    0.094644 0.909037 0.061563 0.257202
H17   H     H_    0.913304 0.949227 0.067618 0.254641
H18   H     H_    0.806583 0.880815 0.473743 0.176483
O10   O     O_3   0.746536 0.116341 0.522884 -0.606182
C32   C     C_3   0.636255 0.052550 0.588964 0.039387
H19   H     H_    0.588265 0.118322 0.643493 0.148082
H20   H     H_    0.673205 0.974799 0.622615 0.141479
C33   C     C_3   0.519329 0.008581 0.546817 -0.351037
H21   H     H_    0.471091 0.089739 0.524926 0.216209
H22   H     H_    0.567014 0.951811 0.486522 0.211987
C34   C     C_3   0.401335 0.933413 0.613657 -0.952547
H23   H     H_    0.446095 0.849076 0.633871 0.253854
H24   H     H_    0.316706 0.906231 0.581514 0.247386
H25   H     H_    0.351849 0.988374 0.674614 0.260046
O11   O     O_3   0.436228 0.544553 0.422746 -0.490907
C35   C     C_3   0.442759 0.674803 0.425770 0.239632
H26   H     H_    0.540815 0.704830 0.443242 0.045889
H27   H     H_    0.355484 0.716279 0.478779 0.151041
C36   C     C_3   0.461392 0.730441 0.331394 -0.350830
H28   H     H_    0.550935 0.800220 0.316400 0.167351
H29   H     H_    0.492419 0.658953 0.278771 0.254549
C37   C     C_3   0.328079 0.794203 0.322991 -0.854528
H30   H     H_    0.238155 0.727294 0.329248 0.269559
H31   H     H_    0.352226 0.838907 0.255608 0.236048
H32   H     H_    0.295821 0.865914 0.375393 0.246062
H33   H     H_    0.604511 0.579798 0.522586 0.208660
H34   H     H_    0.214243 0.328104 0.922438 0.180123
H35   H     H_    0.079278 0.535421 0.788788 0.150982
O12   O     O_3   0.552696 0.428875 0.192685 -0.614162
C38   C     C_3   0.539693 0.300440 0.206756 0.054824
H36   H     H_    0.647893 0.260032 0.185552 0.133986
H37   H     H_    0.470926 0.255647 0.168442 0.137871
C39   C     C_3   0.471030 0.273275 0.306972 -0.254314
H38   H     H_    0.542442 0.309684 0.346204 0.241295
H39   H     H_    0.366552 0.319458 0.329975 0.261604
C40   C     C_3   0.444933 0.135830 0.324929 -0.988714
H40   H     H_    0.376821 0.096836 0.284391 0.261010
H41   H     H_    0.387903 0.119881 0.397311 0.255928
H42   H     H_    0.548644 0.088010 0.307886 0.262694

loop_
_geom_bond_atom_site_label_1
_geom_bond_atom_site_label_2
_ccdc_geom_bond_type
C8    C9    A    
C22   O6    A    
C30   H13   S    
C40   H40   S    
C24   C27   A    
C4    C8    A    
C37   H30   S    
C40   H42   S    
Cu1   O7    S    
C26   C27   A    
Cu1   O5    S    
Cu2   O6    S    
C5    C11   A    
C3    C7    A    
C5    C6    A    
C36   H29   S    
C18   O10   S    
C23   O7    A    
C31   H16   S    
C6    O12   S    
C18   C19   D    
N1    O11   S    
C13   O9    S    
C11   C15   A    
C1    O1    A    
C16   C17   D    
C34   H23   S    
C38   H37   S    
C9    C10   A    
C29   C30   S    
C20   H4    S    
C31   H17   S    
C22   O5    A    
Cu2   O8    S    
C13   C14   A    
Cu1   O1    S    
Cu2   O2    S    
C16   H18   S    
C37   H31   S    
C29   H12   S    
C20   N1    D    
C1    C19   S    
C7    H1    S    
O11   C35   S    
C33   H21   S    
C32   C33   S    
C12   O4    A    
C19   H3    S    
C36   H28   S    
C26   H8    S    
C23   O8    A    
C28   H9    S    
C31   H15   S    
C39   C40   S    
O9    C29   S    
Cu1   O3    S    
C33   H22   S    
C32   H20   S    
C2    C4    A    
C35   H26   S    
Cu1   Cu2   S    
C9    H34   S    
C1    O2    A    
C34   H25   S    
C39   H39   S    
N2    H33   S    
C20   C21   S    
C38   C39   S    
C27   H35   S    
C35   H27   S    
C30   H14   S    
C15   H6    S    
C37   H32   S    
C29   H11   S    
C21   N2    D    
Cu1   N1    S    
Cu2   O4    S    
C3    C26   A    
C24   C28   A    
C12   O3    A    
C10   C13   A    
C2    C28   A    
C40   H41   S    
C6    C7    A    
C21   H5    S    
C12   C24   S    
C17   C22   S    
C33   C34   S    
C32   H19   S    
C2    C3    A    
C14   H7    S    
C36   C37   S    
C39   H38   S    
C23   C25   S    
C14   C25   A    
C35   C36   S    
C15   C25   A    
C10   C11   A    
O10   C32   S    
C4    C5    A    
O12   C38   S    
C16   C18   S    
C30   C31   S    
C17   H2    S    
Cu2   N2    S    
C34   H24   S    
C8    H10   S    
C38   H36   S    
