data_mof_unit_20008.cif
_audit_creation_date              2012-12-10T19:06:30-0500
_audit_creation_method            fapswitch 2.2
_symmetry_space_group_name_H-M    P1
_symmetry_Int_Tables_number       1
_space_group_crystal_system       triclinic
_cell_length_a                    23.436529
_cell_length_b                    10.889088
_cell_length_c                    9.634038
_cell_angle_alpha                 88.083543
_cell_angle_beta                  89.216854
_cell_angle_gamma                 90.891263
_cell_volume                      2456.70970782

loop_
_atom_site_label
_atom_site_type_symbol
_atom_type_description
_atom_site_fract_x
_atom_site_fract_y
_atom_site_fract_z
_atom_type_partial_charge
C1    C     C_R   0.501411 0.262409 0.501654 0.907995
C2    C     C_R   0.970662 0.423209 0.272702 -0.236924
C3    C     C_R   0.029911 0.410819 0.277366 -0.120091
C4    C     C_R   0.060668 0.458043 0.391171 -0.037729
C5    C     C_R   0.030028 0.510936 0.501814 -0.075782
C6    C     C_R   0.059226 0.555324 0.618344 -0.112464
C7    C     C_R   0.027914 0.609233 0.726894 0.490872
C8    C     C_R   0.968369 0.613702 0.721022 -0.247679
C9    C     C_R   0.120911 0.458747 0.397190 0.557568
C10   C     C_R   0.119032 0.545776 0.621586 0.588087
C11   C     C_R   0.239127 0.612025 0.491710 -0.143804
C12   C     C_R   0.391357 0.502911 0.500499 0.931323
C13   C     C_R   0.298805 0.615416 0.483987 -0.122749
C14   C     C_R   0.328886 0.504035 0.501287 -0.166027
C15   C     C_R   0.299056 0.391035 0.518916 0.440945
C16   C     C_R   0.238981 0.391081 0.527603 -0.190956
C17   C     C_R   0.209366 0.500930 0.512797 0.272663
C18   C     C_R   0.763369 0.408245 0.509953 -0.152532
C19   C     C_R   0.703757 0.396808 0.514020 -0.151651
C20   C     C_R   0.670983 0.504826 0.497402 -0.198395
C21   C     C_R   0.698294 0.620773 0.479982 0.420744
C22   C     C_R   0.757925 0.628869 0.475070 -0.170739
C23   C     C_R   0.501055 0.736950 0.497752 0.906296
C24   C     C_R   0.790340 0.522924 0.490661 0.264849
C25   C     C_R   0.470553 0.057076 0.599788 -0.046630
C26   C     C_R   0.503401 0.128296 0.502043 -0.203403
C27   C     C_R   0.532806 0.067203 0.393823 -0.138320
C28   C     C_R   0.526094 0.939119 0.382964 0.379896
C29   C     C_R   0.499858 0.869714 0.492270 -0.180376
C30   C     C_R   0.472354 0.929860 0.597652 -0.064556
C31   C     C_3   0.476029 0.907324 0.750784 -0.311470
C32   C     C_3   0.470799 0.047262 0.758669 0.377003
C33   C     C_R   0.543464 0.556076 0.070154 0.077288
C34   C     C_R   0.608628 0.500278 0.499150 0.903530
C35   C     C_R   0.455972 0.449115 0.079081 0.560613
C36   C     C_R   0.454655 0.454209 0.931119 -0.010466
C37   C     C_R   0.544055 0.553060 0.923316 0.097876
C38   C     C_3   0.605598 0.517767 0.918340 0.256624
C39   C     C_3   0.605078 0.521375 0.076127 -0.313663
C40   C     C_R   0.879349 0.574685 0.600232 0.574678
C41   C     C_R   0.880676 0.483294 0.378641 0.558624
C42   C     C_R   0.940424 0.476351 0.380873 0.004722
C43   C     C_R   0.969927 0.519587 0.496109 -0.011530
C44   C     C_R   0.939137 0.570470 0.606279 -0.084636
Cu1   Cu    Cu3+1 0.500000 0.499980 0.640670 1.058253
Cu2   Cu    Cu3+1 0.500000 0.500020 0.359330 1.078386
H1    H     H_    0.947822 0.386546 0.185715 0.190400
H2    H     H_    0.779010 0.717418 0.458174 0.165287
H3    H     H_    0.518615 0.871706 0.780434 0.114024
H4    H     H_    0.632292 0.589593 0.862173 0.073000
H5    H     H_    0.610895 0.430502 0.129607 0.206508
H6    H     H_    0.945213 0.651448 0.807428 0.202408
H7    H     H_    0.215163 0.695726 0.477281 0.174412
H8    H     H_    0.214833 0.306482 0.545793 0.153528
H9    H     H_    0.789712 0.327962 0.523337 0.196007
N1    N     N_R   0.851472 0.530335 0.488139 -0.456232
N2    N     N_R   0.148157 0.499675 0.511777 -0.465371
N3    N     N_R   0.500360 0.500930 0.147930 -0.217569
N4    N     N_R   0.500360 0.500890 0.852020 -0.216078
O1    O     O_R   0.500000 0.319640 0.618810 -0.506663
O2    O     O_2   0.851834 0.442207 0.268624 -0.509403
O3    O     O_2   0.152563 0.423294 0.288138 -0.486441
O4    O     O_2   0.148301 0.582813 0.732739 -0.453777
O5    O     O_R   0.500010 0.319680 0.381230 -0.570930
O6    O     O_R   0.417880 0.499940 0.618820 -0.579475
O7    O     O_R   0.417880 0.499980 0.381240 -0.501328
O8    O     O_R   0.499990 0.680320 0.618770 -0.610279
O9    O     O_R   0.500000 0.680360 0.381190 -0.528740
O10   O     O_R   0.582120 0.500020 0.618760 -0.553684
O11   O     O_R   0.582120 0.500060 0.381180 -0.574495
O12   O     O_2   0.849228 0.620565 0.706507 -0.532892
C45   C     C_2   0.678184 0.271489 0.538222 0.860002
O13   O     O_2   0.627390 0.257552 0.564785 -0.584124
O14   O     O_R   0.712942 0.168272 0.534593 -0.747320
H10   H     H_    0.691084 0.088683 0.556224 0.358106
O15   O     O_3   0.666552 0.725254 0.456096 -0.536204
C46   C     C_3   0.661688 0.788353 0.580921 -0.232131
H11   H     H_    0.639111 0.731012 0.662714 0.126276
H12   H     H_    0.635787 0.871450 0.561490 0.213840
H13   H     H_    0.704152 0.819283 0.617954 0.167262
C47   C     C_2   0.578508 0.127235 0.305154 0.922725
O16   O     O_2   0.568515 0.214330 0.226897 -0.637706
O17   O     O_R   0.633039 0.076988 0.305341 -0.693298
H14   H     H_    0.660591 0.123195 0.239642 0.339312
O18   O     O_3   0.551949 0.880465 0.274256 -0.500697
C48   C     C_3   0.516737 0.892622 0.157117 -0.143576
H15   H     H_    0.536597 0.843983 0.069903 0.191085
H16   H     H_    0.512154 0.990395 0.122654 0.143480
H17   H     H_    0.473958 0.849866 0.178260 0.187717
C49   C     C_2   0.428553 0.827435 0.813798 0.916264
O19   O     O_2   0.423748 0.816458 0.940003 -0.620902
O20   O     O_R   0.390999 0.764220 0.729065 -0.749736
H18   H     H_    0.361635 0.712889 0.784342 0.348768
O21   O     O_3   0.420501 0.086688 0.829435 -0.564686
C50   C     C_3   0.367216 0.056909 0.769047 -0.134160
H19   H     H_    0.343110 0.992878 0.840963 0.172873
H20   H     H_    0.369354 0.015120 0.665947 0.168922
H21   H     H_    0.341345 0.140789 0.759122 0.221148
C51   C     C_2   0.523358 0.105656 0.820008 0.884065
O22   O     O_2   0.571046 0.081513 0.776361 -0.608834
O23   O     O_R   0.517225 0.187037 0.927725 -0.739194
H22   H     H_    0.555258 0.216303 0.963581 0.378230
O24   O     O_3   0.411600 0.392962 0.154615 -0.545565
C52   C     C_3   0.417054 0.263900 0.154142 -0.211883
H23   H     H_    0.462027 0.233048 0.152994 0.203706
H24   H     H_    0.394019 0.225513 0.065233 0.194637
H25   H     H_    0.396889 0.224017 0.250336 0.169014
C53   C     C_2   0.056518 0.340209 0.164898 0.975554
O25   O     O_2   0.083995 0.248814 0.194207 -0.507506
O26   O     O_R   0.048316 0.372858 0.025085 -0.700992
H26   H     H_    0.025360 0.450341 0.011954 0.320152
C54   C     C_2   0.403164 0.404221 0.867840 0.915141
O27   O     O_2   0.406976 0.320327 0.788218 -0.524035
O28   O     O_R   0.349676 0.449876 0.903306 -0.737611
H27   H     H_    0.317442 0.407423 0.853533 0.337619
O29   O     O_3   0.612535 0.397616 0.870681 -0.530399
C55   C     C_3   0.670908 0.367993 0.873584 -0.192810
H28   H     H_    0.687551 0.367032 0.981094 0.178113
H29   H     H_    0.696871 0.432378 0.805527 0.157179
H30   H     H_    0.675919 0.274029 0.834764 0.205614
C56   C     C_2   0.645297 0.618525 0.127196 0.847894
O30   O     O_2   0.627346 0.715287 0.169391 -0.485796
O31   O     O_R   0.703876 0.596591 0.125483 -0.749167
H31   H     H_    0.727044 0.667818 0.161631 0.355412
O32   O     O_3   0.054836 0.651479 0.843358 -0.540311
C57   C     C_3   0.057839 0.780953 0.833645 -0.203166
H32   H     H_    0.080323 0.814099 0.736539 0.160013
H33   H     H_    0.082716 0.814143 0.922461 0.207907
H34   H     H_    0.014674 0.821578 0.840329 0.143316
C58   C     C_2   0.327626 0.736056 0.453619 0.901952
O33   O     O_2   0.306263 0.830216 0.494833 -0.611017
O34   O     O_R   0.377615 0.743510 0.373125 -0.748217
H35   H     H_    0.391515 0.831388 0.355830 0.315002
O35   O     O_3   0.330338 0.283979 0.534786 -0.594595
C59   C     C_3   0.306855 0.187410 0.458419 -0.307295
H36   H     H_    0.292063 0.219245 0.354003 0.193093
H37   H     H_    0.271755 0.139896 0.518477 0.185075
H38   H     H_    0.340496 0.118697 0.441690 0.187991

loop_
_geom_bond_atom_site_label_1
_geom_bond_atom_site_label_2
_ccdc_geom_bond_type
C59   H38   S    
C22   H2    S    
Cu1   O1    S    
C33   N3    A    
C40   O12   S    
C41   C42   A    
C32   O21   S    
C50   H19   S    
C41   O2    S    
C36   N4    A    
C52   H24   S    
O28   H27   S    
C50   H21   S    
C59   H36   S    
C15   O35   S    
C46   H11   S    
C53   O25   D    
C21   O15   S    
C26   C27   A    
C33   C39   S    
C35   N3    A    
C18   C24   A    
C23   C29   S    
C28   C29   A    
Cu2   O7    S    
C35   O24   S    
C55   H29   S    
O18   C48   S    
C5    C6    A    
C48   H16   S    
C15   C16   A    
O29   C55   S    
C18   C19   A    
C23   O8    A    
O26   H26   S    
C54   O27   D    
C39   H5    S    
C11   C17   A    
C10   O4    S    
O34   H35   S    
C40   N1    A    
C36   C54   S    
C13   C58   S    
C29   C30   A    
C8    H6    S    
C40   C44   A    
C11   H7    S    
C20   C34   S    
C25   C32   S    
C5    C43   A    
C21   C22   A    
Cu2   N3    S    
C19   C45   S    
C31   H3    S    
C54   O28   S    
C52   H23   S    
C47   O17   S    
C47   O16   D    
C46   H12   S    
C38   C39   S    
C1    C26   S    
C56   O31   S    
O14   H10   S    
Cu1   O10   S    
C9    O3    S    
O23   H22   S    
O31   H31   S    
C10   N2    A    
O15   C46   S    
C45   O14   S    
C1    O1    A    
C48   H15   S    
C16   C17   A    
C57   H34   S    
C25   C26   A    
Cu1   Cu2   S    
C12   O7    A    
C33   C37   A    
Cu2   O5    S    
C35   C36   A    
C23   O9    A    
C58   O34   S    
C43   C44   A    
C41   N1    A    
Cu2   O9    S    
C37   C38   S    
C38   O29   S    
C49   O20   S    
O17   H14   S    
C27   C47   S    
C31   C49   S    
C7    O32   S    
C34   O10   A    
C56   O30   D    
C37   N4    A    
C18   H9    S    
C51   O23   S    
C12   C14   S    
Cu1   O6    S    
O32   C57   S    
C2    H1    S    
C22   C24   A    
Cu1   O8    S    
C55   H30   S    
C42   C43   A    
C3    C4    A    
C1    O5    A    
O24   C52   S    
C46   H13   S    
C25   C30   A    
C59   H37   S    
C34   O11   A    
Cu1   N4    S    
C57   H33   S    
C31   C32   S    
C8    C44   A    
C45   O13   D    
C48   H17   S    
C6    C10   A    
C50   H20   S    
C6    C7    A    
C38   H4    S    
C3    C53   S    
C24   N1    S    
C12   O6    A    
O35   C59   S    
C39   C56   S    
C32   C51   S    
C19   C20   A    
C2    C3    A    
C55   H28   S    
C11   C13   A    
C49   O19   D    
C30   C31   S    
C2    C42   A    
C57   H32   S    
O20   H18   S    
C53   O26   S    
C58   O33   D    
C9    N2    A    
C51   O22   D    
O21   C50   S    
C16   H8    S    
Cu2   O11   S    
C7    C8    A    
C4    C5    A    
C20   C21   A    
C28   O18   S    
C14   C15   A    
C4    C9    A    
C13   C14   A    
C52   H25   S    
C17   N2    S    
C27   C28   A    
