data_mof_unit_58926.cif
_audit_creation_date              2013-03-05T15:55:20-0500
_audit_creation_method            fapswitch 2.2
_symmetry_space_group_name_H-M    P1
_symmetry_Int_Tables_number       1
_space_group_crystal_system       triclinic
_cell_length_a                    27.727856
_cell_length_b                    10.665264
_cell_length_c                    9.903179
_cell_angle_alpha                 90.099933
_cell_angle_beta                  90.621855
_cell_angle_gamma                 91.951444
_cell_volume                      2926.7392591

loop_
_atom_site_label
_atom_site_type_symbol
_atom_site_description
_atom_site_fract_x
_atom_site_fract_y
_atom_site_fract_z
_atom_type_partial_charge
O1    O     O_R   0.500000 0.316780 0.614690 -0.652345
O2    O     O_R   0.500000 0.316750 0.385360 -0.640029
C1    C     C_R   0.503170 0.259673 0.500875 0.869100
O3    O     O_R   0.428760 0.500030 0.614650 -0.606792
O4    O     O_R   0.428750 0.500010 0.385320 -0.644142
C2    C     C_R   0.406075 0.498872 0.499310 0.885773
Zn1   Zn    Zn3+2 0.500000 0.500020 0.653130 0.947264
Zn2   Zn    Zn3+2 0.500000 0.499980 0.346870 0.940066
O5    O     O_R   0.500000 0.683250 0.614640 -0.616694
O6    O     O_R   0.500000 0.683220 0.385310 -0.623943
O7    O     O_R   0.571250 0.499990 0.614680 -0.642885
O8    O     O_R   0.571240 0.499970 0.385350 -0.615742
C3    C     C_R   0.493478 0.738129 0.500341 0.924416
C4    C     C_R   0.593922 0.500288 0.500713 0.872501
C5    C     C_R   0.176190 0.380238 0.506317 0.504636
O9    O     O_2   0.199766 0.271946 0.516835 -0.548194
N1    N     N_R   0.201613 0.491376 0.494142 -0.359631
C6    C     C_R   0.179308 0.603024 0.482812 0.511451
C7    C     C_R   0.277883 0.484843 0.618060 -0.098433
C8    C     C_R   0.327992 0.487288 0.619621 -0.172459
C9    C     C_R   0.327958 0.501496 0.374503 -0.213069
C10   C     C_R   0.277831 0.499319 0.373394 -0.096685
C11   C     C_R   0.252913 0.491214 0.495101 0.317912
C12   C     C_R   0.101740 0.492581 0.497086 -0.051336
C13   C     C_R   0.125730 0.378628 0.507606 -0.020934
C14   C     C_R   0.099053 0.266111 0.520382 -0.134884
C15   C     C_R   0.128935 0.605848 0.484472 -0.025683
C16   C     C_R   0.353374 0.496083 0.497783 -0.036553
H1    H     H_    0.346705 0.507859 0.279205 0.172606
H2    H     H_    0.258286 0.504184 0.278343 0.141303
H3    H     H_    0.116741 0.177544 0.530804 0.190305
C17   C     C_R   0.646614 0.500087 0.502494 -0.042830
C18   C     C_R   0.972680 0.378514 0.501499 0.046389
C19   C     C_R   0.976271 0.610397 0.504687 0.047126
C20   C     C_R   0.949253 0.494858 0.504152 0.070916
C21   C     C_R   0.944000 0.266448 0.492422 -0.214085
C22   C     C_R   0.894033 0.268522 0.491810 -0.133498
C23   C     C_R   0.870772 0.382170 0.499780 -0.022847
C24   C     C_R   0.898191 0.495699 0.506043 -0.051740
C25   C     C_R   0.874423 0.610095 0.513889 -0.021643
C26   C     C_R   0.823975 0.608777 0.514957 0.505757
N2    N     N_R   0.798316 0.497462 0.507669 -0.359577
C27   C     C_R   0.820387 0.385265 0.500349 0.505703
C28   C     C_R   0.721976 0.487286 0.383267 -0.103185
C29   C     C_R   0.671894 0.488299 0.381252 -0.208660
C30   C     C_R   0.672113 0.511345 0.625531 -0.213617
C31   C     C_R   0.722214 0.510735 0.627073 -0.099352
C32   C     C_R   0.747025 0.498490 0.506051 0.323979
O10   O     O_2   0.793561 0.277344 0.493906 -0.547481
C33   C     C_R   0.023752 0.377880 0.506760 0.046912
C34   C     C_R   0.050680 0.493304 0.499397 0.071287
C35   C     C_R   0.027165 0.609470 0.494439 0.046234
C36   C     C_R   0.049043 0.265472 0.520217 -0.214579
H4    H     H_    0.653064 0.479351 0.285154 0.164782
H5    H     H_    0.741405 0.477947 0.289713 0.137632
H6    H     H_    0.873675 0.180166 0.484763 0.192586
H7    H     H_    0.958957 0.175098 0.482344 0.139100
H8    H     H_    0.031340 0.175059 0.534063 0.138686
O11   O     O_2   0.205907 0.710766 0.470969 -0.537322
C37   C     C_R   0.105458 0.719027 0.473436 -0.131689
H9    H     H_    0.346747 0.482378 0.715923 0.182643
H10   H     H_    0.258381 0.478725 0.712138 0.140802
H11   H     H_    0.125603 0.807061 0.461258 0.193081
C38   C     C_R   0.951277 0.723296 0.516615 -0.214360
C39   C     C_R   0.901319 0.722877 0.520824 -0.135796
O12   O     O_2   0.800630 0.717579 0.522227 -0.548098
C40   C     C_R   0.055547 0.721067 0.478037 -0.213865
H12   H     H_    0.969254 0.814039 0.525982 0.138300
H13   H     H_    0.653450 0.520872 0.720316 0.169151
H14   H     H_    0.883844 0.811846 0.529387 0.189392
H15   H     H_    0.741815 0.519447 0.721984 0.138354
H16   H     H_    0.040316 0.811881 0.465299 0.139606
H17   H     H_    0.498470 0.110356 0.284924 0.170988
C41   C     C_R   0.518468 0.108630 0.753806 -0.152877
H18   H     H_    0.541575 0.192115 0.760692 0.173989
C42   C     C_R   0.505591 0.049808 0.874345 -0.204684
H19   H     H_    0.516711 0.091162 0.970130 0.158861
C43   C     C_R   0.475741 0.942452 0.871250 -0.197602
H20   H     H_    0.461997 0.903721 0.964795 0.168275
C44   C     C_R   0.463500 0.885462 0.747854 0.291955
C45   C     C_R   0.482446 0.936141 0.625889 0.032085
C46   C     C_R   0.502326 0.058255 0.628052 0.058447
C47   C     C_R   0.504048 0.124766 0.503908 -0.099825
C48   C     C_R   0.497019 0.061853 0.380951 -0.215111
H21   H     H_    0.488202 0.886322 0.283493 0.169656
C49   C     C_R   0.489054 0.934547 0.379961 -0.201953
C50   C     C_R   0.484290 0.870234 0.502057 -0.095679
H22   H     H_    0.553117 0.642545 0.130527 0.157194
C51   C     C_R   0.437097 0.334052 0.138046 -0.168027
H23   H     H_    0.434606 0.329835 0.245107 0.207715
C52   C     C_R   0.406409 0.251290 0.066839 -0.199325
H24   H     H_    0.382342 0.187324 0.120610 0.167867
C53   C     C_R   0.406408 0.251039 0.927061 -0.171549
H25   H     H_    0.382414 0.186689 0.871837 0.171460
C54   C     C_R   0.437101 0.333516 0.857673 -0.137836
H26   H     H_    0.434689 0.328168 0.750547 0.203503
C55   C     C_R   0.469056 0.417834 0.926470 0.144498
C56   C     C_R   0.469057 0.418012 0.071142 0.153166
N3    N     N_R   0.499540 0.498800 0.142780 -0.138680
C57   C     C_R   0.529256 0.578678 0.074272 -0.114817
C58   C     C_R   0.529511 0.579930 0.931788 0.151125
N4    N     N_R   0.499520 0.498720 0.857170 -0.129965
Br1   Br    Br    0.412160 0.760109 0.750580 -0.517165
N5    N     N_3   0.562432 0.668295 0.870063 -0.466657
H27   H     H_    0.562536 0.658707 0.766519 0.258730
H28   H     H_    0.550483 0.758176 0.890488 0.181141

loop_
_geom_bond_atom_site_label_1
_geom_bond_atom_site_label_2
_geom_bond_distance
_ccdc_geom_bond_type
C53   H25   1.082786 S    
C17   C29   1.404458 A    
C20   C24   1.416500 A    
C54   H26   1.063581 S    
C12   C15   1.408568 A    
N5    H28   1.045004 S    
C55   C56   1.432710 A    
H21   C49   1.083860 S    
Zn1   O7    2.016035 S    
N1    C11   1.422430 S    
C41   C42   1.393789 A    
C37   H11   1.083615 S    
C38   H12   1.076811 S    
C21   C22   1.386338 A    
Zn2   N3    2.021056 S    
C48   C49   1.368149 A    
C40   H16   1.076797 S    
C15   C37   1.394706 A    
C23   C24   1.408535 A    
O7    C4    1.297812 A    
C43   C44   1.397252 A    
C5    C13   1.398849 A    
C7    H10   1.083250 S    
C39   H14   1.083629 S    
C18   C21   1.415047 A    
C5    N1    1.364516 A    
C19   C20   1.420113 A    
C26   N2    1.364521 A    
C8    H9    1.083502 S    
O5    C3    1.289028 A    
C30   H13   1.083061 S    
C22   H6    1.083619 S    
C2    C16   1.460486 S    
C31   C32   1.396512 A    
C37   C40   1.386087 A    
Zn1   N4    2.020901 S    
C51   C52   1.390725 A    
H17   C48   1.083834 S    
C55   N4    1.376137 A    
C12   C34   1.416498 A    
C14   H3    1.083625 S    
C53   C54   1.390723 A    
O1    Zn1   1.990382 S    
C9    C10   1.389247 A    
C41   C46   1.417438 A    
O3    Zn1   2.007696 S    
N5    H27   1.030360 S    
C45   C46   1.396868 A    
C33   C36   1.415128 A    
C41   H18   1.080704 S    
C44   Br1   1.919875 S    
C34   C35   1.420234 A    
C58   N4    1.386781 A    
C12   C13   1.408684 A    
O3    C2    1.297814 A    
C21   H7    1.076692 S    
C52   H24   1.082722 S    
C43   H20   1.082753 S    
C27   O10   1.350037 S    
C8    C16   1.405093 A    
C33   C34   1.420254 A    
C18   C33   1.416759 A    
C9    H1    1.083484 S    
O1    C1    1.285501 A    
C7    C11   1.397120 A    
C22   C23   1.394774 A    
C52   C53   1.384235 A    
C47   C48   1.397854 A    
Zn2   O8    2.007693 S    
C3    C50   1.440404 S    
C19   C38   1.414996 A    
N1    C6    1.364597 A    
N2    C32   1.422505 S    
C42   H19   1.082741 S    
C31   H15   1.082883 S    
H22   C57   1.082619 S    
C35   C40   1.414909 A    
C25   C26   1.398565 A    
C9    C16   1.405290 A    
O8    C4    1.298085 A    
C29   H4    1.083020 S    
C56   N3    1.376714 A    
C58   N5    1.432000 S    
C25   C39   1.394711 A    
C1    C47   1.440215 S    
N2    C27   1.364629 A    
C14   C36   1.386433 A    
C24   C25   1.408711 A    
C28   C29   1.389003 A    
Zn1   O5    1.991677 S    
C30   C31   1.389329 A    
C10   H2    1.083261 S    
C42   C43   1.389866 A    
C49   C50   1.396472 A    
C17   C30   1.404974 A    
O2    Zn2   1.991675 S    
C6    C15   1.398340 A    
C4    C17   1.461032 S    
C44   C45   1.422576 A    
O6    C3    1.297204 A    
O4    Zn2   2.016038 S    
C36   H8    1.076697 S    
C54   C55   1.410113 A    
C26   O12   1.350041 S    
C19   C35   1.416281 A    
N3    C57   1.353268 A    
C51   C56   1.409582 A    
C38   C39   1.386182 A    
C7    C8    1.388681 A    
O2    C1    1.300319 A    
C13   C14   1.394759 A    
C23   C27   1.398637 A    
C45   C50   1.414701 A    
C28   H5    1.082907 S    
O4    C2    1.297963 A    
C57   C58   1.411217 A    
C18   C20   1.420376 A    
C28   C32   1.396694 A    
C6    O11   1.350105 S    
Zn2   O6    1.990382 S    
C46   C47   1.420901 A    
C10   C11   1.397114 A    
C51   H23   1.064166 S    
C5    O9    1.349995 S    
