data_mof_unit_39668.cif
_audit_creation_date              2012-10-26T20:22:34-0400
_audit_creation_method            fapswitch 2.2
_symmetry_space_group_name_H-M    P1
_symmetry_Int_Tables_number       1
_space_group_crystal_system       triclinic
_cell_length_a                    9.495734
_cell_length_b                    10.817728
_cell_length_c                    17.321426
_cell_angle_alpha                 90.13179
_cell_angle_beta                  87.145976
_cell_angle_gamma                 90.385082
_cell_volume                      1777.04559845

loop_
_atom_site_label
_atom_site_type_symbol
_atom_type_description
_atom_site_fract_x
_atom_site_fract_y
_atom_site_fract_z
_atom_type_partial_charge
C1    C     C_R   0.500838 0.737832 0.498396 0.585714
C2    C     C_R   0.077698 0.415224 0.457459 0.043064
C3    C     C_R   0.071210 0.584082 0.543081 0.056802
C4    C     C_R   0.928767 0.415683 0.457111 0.047040
C5    C     C_R   0.483457 0.497971 0.649906 0.594133
C6    C     C_R   0.516885 0.498439 0.349546 0.593848
C7    C     C_R   0.482650 0.490976 0.734356 -0.015982
C8    C     C_R   0.523131 0.484132 0.264468 -0.027676
C9    C     C_R   0.584504 0.415598 0.767880 0.121817
C10   C     C_R   0.409318 0.426259 0.227847 0.106867
C11   C     C_R   0.610957 0.429724 0.846459 0.123947
C12   C     C_R   0.499153 0.262157 0.501353 0.552443
C13   C     C_R   0.421402 0.398826 0.148661 0.120391
C14   C     C_R   0.528286 0.512786 0.892198 -0.026055
C15   C     C_R   0.541350 0.438407 0.104537 -0.018420
C16   C     C_R   0.421286 0.581918 0.859574 0.247890
C17   C     C_R   0.654030 0.496969 0.139960 0.244375
C18   C     C_R   0.399099 0.572010 0.780492 0.221098
C19   C     C_R   0.645083 0.520556 0.219566 0.220460
C20   C     C_2   0.549173 0.524654 0.975207 -0.043155
C21   C     C_2   0.542892 0.424917 0.020469 -0.097097
C22   C     C_3   0.594494 0.220837 0.697911 -0.258492
C23   C     C_R   0.613344 0.939142 0.461182 0.217651
C24   C     C_3   0.171882 0.490695 0.261764 -0.204878
C25   C     C_3   0.317643 0.204738 0.110762 -0.278551
C26   C     C_3   0.712450 0.236778 0.892386 -0.284218
C27   C     C_R   0.386490 0.060837 0.538645 0.205841
C28   C     C_R   0.610628 0.067039 0.463797 -0.134605
C29   C     C_R   0.389446 0.932933 0.536233 -0.114451
C30   C     C_R   0.497919 0.128374 0.501834 -0.028738
C31   C     C_R   0.502009 0.871613 0.498031 -0.014134
C32   C     C_R   0.922216 0.583959 0.543219 0.066549
Cl1   Cl    Cl    0.785221 0.603155 0.260294 -0.467571
Cl2   Cl    Cl    0.273530 0.668509 0.739063 -0.511770
Cl3   Cl    Cl    0.314528 0.682114 0.917978 -0.484631
Cl4   Cl    Cl    0.809783 0.537155 0.084881 -0.522782
Cl5   Cl    Cl    0.754335 0.869138 0.407617 -0.503608
Cl6   Cl    Cl    0.244701 0.130735 0.591636 -0.570218
Cu1   Cu    Cu3+1 0.359340 0.499980 0.500000 1.039694
Cu2   Cu    Cu3+1 0.640660 0.500020 0.500000 1.047423
H1    H     H_    0.518101 0.335366 0.996244 0.134495
H2    H     H_    0.662042 0.169149 0.654967 0.162750
H3    H     H_    0.494263 0.243608 0.671080 0.188830
H4    H     H_    0.571155 0.160679 0.748773 0.152262
H5    H     H_    0.243080 0.310051 0.261948 0.266323
H6    H     H_    0.076096 0.464457 0.297369 0.161097
H7    H     H_    0.142760 0.497350 0.200582 0.214867
H8    H     H_    0.209145 0.582479 0.281565 0.186940
H9    H     H_    0.280371 0.375589 0.061404 0.284543
H10   H     H_    0.219569 0.165039 0.088335 0.180189
H11   H     H_    0.331047 0.166806 0.169440 0.165121
H12   H     H_    0.556225 0.616409 0.000533 0.205099
H13   H     H_    0.408452 0.176037 0.072128 0.146123
H14   H     H_    0.782572 0.416146 0.917996 0.310679
H15   H     H_    0.790777 0.185180 0.855446 0.181489
H16   H     H_    0.604779 0.202801 0.880834 0.150825
H17   H     H_    0.732162 0.217173 0.953841 0.159440
H18   H     H_    0.695576 0.118810 0.434544 0.165190
H19   H     H_    0.304587 0.881141 0.565563 0.188772
H20   H     H_    0.863298 0.651078 0.577845 0.138184
H21   H     H_    0.136546 0.347339 0.423436 0.138894
H22   H     H_    0.124831 0.651424 0.577542 0.160135
H23   H     H_    0.875171 0.348456 0.422534 0.121293
H24   H     H_    0.768192 0.316357 0.737237 0.295367
N1    N     N_R   0.147930 0.499970 0.499980 -0.233537
N2    N     N_R   0.852070 0.500030 0.500020 -0.223451
N3    N     N_2   0.667203 0.332143 0.720595 -0.482526
N4    N     N_2   0.280161 0.398634 0.269987 -0.503189
N5    N     N_2   0.307238 0.338110 0.113301 -0.509844
N6    N     N_2   0.728279 0.368076 0.877327 -0.503200
O1    O     O_R   0.381260 0.680340 0.500000 -0.522494
O2    O     O_R   0.618740 0.319660 0.500000 -0.532269
O3    O     O_R   0.618830 0.680370 0.500010 -0.452424
O4    O     O_R   0.381170 0.319630 0.499990 -0.456425
O5    O     O_R   0.367440 0.500000 0.613600 -0.455749
O6    O     O_R   0.632560 0.500000 0.386400 -0.451942
O7    O     O_R   0.605010 0.500030 0.613600 -0.490525
O8    O     O_R   0.394990 0.499970 0.386400 -0.491347

loop_
_geom_bond_atom_site_label_1
_geom_bond_atom_site_label_2
_ccdc_geom_bond_type
C12   O4    A    
C27   C29   A    
C2    N1    A    
C26   H15   S    
C25   H11   S    
C11   N6    S    
C4    H23   S    
C1    O1    A    
C25   H13   S    
C16   Cl3   S    
C11   C14   A    
C6    O8    A    
C27   Cl6   S    
C1    C31   S    
Cu2   O3    S    
C7    C9    A    
Cu1   O4    S    
C25   H10   S    
C22   H4    S    
C29   H19   S    
C17   Cl4   S    
Cu1   O5    S    
C2    H21   S    
C12   O2    A    
Cu2   N2    S    
C27   C30   A    
Cu1   N1    S    
C3    N1    A    
C8    C19   A    
C24   H8    S    
H24   N3    S    
C14   C20   S    
C19   Cl1   S    
Cu1   Cu2   S    
C5    C7    S    
C6    C8    S    
C23   Cl5   S    
Cu2   O6    S    
C23   C31   A    
C5    O5    A    
C2    C4    A    
C9    N3    S    
C18   Cl2   S    
C22   H3    S    
H14   N6    S    
C7    C18   A    
H5    N4    S    
C23   C28   A    
C9    C11   A    
C21   H1    S    
C16   C18   A    
C10   N4    S    
C13   C15   A    
C26   N6    S    
C14   C16   A    
C25   N5    S    
C32   H20   S    
C5    O7    A    
C32   N2    A    
C3    H22   S    
C15   C17   A    
Cu2   O2    S    
C12   C30   S    
C24   H7    S    
C8    C10   A    
C10   C13   A    
C26   H16   S    
C6    O6    A    
C28   H18   S    
C1    O3    A    
C28   C30   A    
C24   H6    S    
C20   H12   S    
C4    N2    A    
C22   H2    S    
C13   N5    S    
C17   C19   A    
C3    C32   A    
C26   H17   S    
C22   N3    S    
C24   N4    S    
C15   C21   S    
C20   C21   D    
C29   C31   A    
Cu1   O1    S    
Cu2   O7    S    
H9    N5    S    
Cu1   O8    S    
