data_mof_unit_21767.cif
_audit_creation_date              2012-12-10T16:47:16-0500
_audit_creation_method            fapswitch 2.2
_symmetry_space_group_name_H-M    P1
_symmetry_Int_Tables_number       1
_space_group_crystal_system       triclinic
_cell_length_a                    12.124526
_cell_length_b                    12.255481
_cell_length_c                    7.806583
_cell_angle_alpha                 89.999953
_cell_angle_beta                  94.357086
_cell_angle_gamma                 90.000045
_cell_volume                      1156.64252346

loop_
_atom_site_label
_atom_site_type_symbol
_atom_type_description
_atom_site_fract_x
_atom_site_fract_y
_atom_site_fract_z
_atom_type_partial_charge
C1    C     C_R   0.354305 0.851714 0.455933 0.905039
C2    C     C_2   0.737597 0.782254 0.566503 -0.241913
C3    C     C_2   0.737597 0.217746 0.566503 -0.241911
C4    C     C_2   0.262403 0.782254 0.433497 -0.241912
C5    C     C_2   0.762403 0.717746 0.433497 -0.241913
C6    C     C_2   0.237597 0.282254 0.566503 -0.241912
C7    C     C_2   0.237597 0.717746 0.566503 -0.241912
C8    C     C_2   0.762403 0.282254 0.433497 -0.241910
C9    C     C_1   0.690029 0.699161 0.278226 0.217024
C10   C     C_1   0.309971 0.300839 0.721774 0.217022
C11   C     C_1   0.309971 0.699161 0.721774 0.217026
C12   C     C_R   0.645695 0.148286 0.544067 0.905039
C13   C     C_1   0.690028 0.300839 0.278226 0.217021
C14   C     C_1   0.190029 0.199161 0.278226 0.217025
C15   C     C_1   0.809971 0.800839 0.721774 0.217028
C16   C     C_1   0.809972 0.199161 0.721774 0.217019
C17   C     C_1   0.190028 0.800839 0.278226 0.217022
C18   C     C_R   0.645695 0.851714 0.544068 0.905039
C19   C     C_R   0.354305 0.148286 0.455932 0.905040
C20   C     C_R   0.854305 0.351714 0.455933 0.905040
C21   C     C_R   0.145695 0.648286 0.544067 0.905039
C22   C     C_R   0.145695 0.351714 0.544068 0.905039
C23   C     C_R   0.854305 0.648286 0.455932 0.905039
C24   C     C_2   0.262403 0.217746 0.433497 -0.241911
H1    H     H_    0.686430 0.068443 0.039658 0.190623
H2    H     H_    0.686442 0.931575 0.039695 0.190622
H3    H     H_    0.313568 0.931563 0.960338 0.190625
H4    H     H_    0.313561 0.068429 0.960313 0.190623
H5    H     H_    0.186439 0.568428 0.039688 0.190624
H6    H     H_    0.186431 0.431560 0.039663 0.190625
H7    H     H_    0.813564 0.431564 0.960324 0.190624
H8    H     H_    0.813564 0.568433 0.960331 0.190625
N1    N     N_2   0.541470 0.000000 0.055820 -0.000504
N2    N     N_1   0.867230 0.815793 0.845049 -0.185989
N3    N     N_1   0.867231 0.184206 0.845047 -0.185992
N4    N     N_1   0.132769 0.815794 0.154952 -0.185990
N5    N     N_3   0.644107 0.000000 0.989258 -0.307709
N6    N     N_3   0.355893 0.000001 0.010743 -0.307713
N7    N     N_3   0.144107 0.499999 0.989257 -0.307712
N8    N     N_3   0.855893 0.499998 0.010743 -0.307712
N9    N     N_2   0.458530 0.000000 0.944180 -0.000504
N10   N     N_2   0.041470 0.500000 0.055820 -0.000505
N11   N     N_2   0.958530 0.500000 0.944180 -0.000503
N12   N     N_1   0.632770 0.684207 0.154952 -0.185989
N13   N     N_1   0.367230 0.315793 0.845048 -0.185990
N14   N     N_1   0.367230 0.684206 0.845048 -0.185990
N15   N     N_1   0.632769 0.315794 0.154953 -0.185993
N16   N     N_1   0.132770 0.184207 0.154952 -0.185991
O1    O     O_R   0.375700 0.885870 0.609240 -0.622174
O2    O     O_R   0.597720 0.114130 0.675960 -0.604644
O3    O     O_R   0.597720 0.885870 0.675960 -0.604637
O4    O     O_R   0.402280 0.114130 0.324040 -0.604638
O5    O     O_R   0.902280 0.385870 0.324040 -0.604641
O6    O     O_R   0.097720 0.614130 0.675960 -0.604638
O7    O     O_R   0.097720 0.385870 0.675960 -0.604643
O8    O     O_R   0.902280 0.614130 0.324040 -0.604642
O9    O     O_R   0.624300 0.114130 0.390760 -0.622174
O10   O     O_R   0.624300 0.885870 0.390760 -0.622176
O11   O     O_R   0.375700 0.114130 0.609240 -0.622175
O12   O     O_R   0.875700 0.385870 0.609240 -0.622174
O13   O     O_R   0.124300 0.614130 0.390760 -0.622175
O14   O     O_R   0.124300 0.385870 0.390760 -0.622174
O15   O     O_R   0.875700 0.614130 0.609240 -0.622174
O16   O     O_R   0.402280 0.885870 0.324040 -0.604643
Zn1   Zn    Zn3+2 0.482250 0.000000 0.690430 0.992277
Zn2   Zn    Zn3+2 0.517750 0.000000 0.309570 0.992277
Zn3   Zn    Zn3+2 0.982250 0.500000 0.690430 0.992278
Zn4   Zn    Zn3+2 0.017750 0.500000 0.309570 0.992276

loop_
_geom_bond_atom_site_label_1
_geom_bond_atom_site_label_2
_ccdc_geom_bond_type
C6    C10   S    
O7    Zn3   S    
H2    N5    S    
C5    C9    S    
C22   O7    A    
O6    Zn3   S    
C17   N4    T    
H4    N6    S    
C22   O14   A    
C15   N2    T    
C21   O13   A    
C5    C23   S    
O14   Zn4   S    
O9    Zn2   S    
C1    C4    S    
C6    C24   D    
N1    Zn2   S    
H5    N7    S    
C10   N13   T    
C23   O15   A    
C19   C24   S    
N1    N9    D    
C23   O8    A    
C8    C20   S    
O11   Zn1   S    
N10   Zn4   S    
C2    C15   S    
O13   Zn4   S    
C8    C13   S    
O1    Zn1   S    
C4    C7    D    
C4    C17   S    
O10   Zn2   S    
C18   O3    A    
C7    C11   S    
N7    N10   S    
H8    N8    S    
C16   N3    T    
N9    Zn1   S    
C21   O6    A    
O2    Zn1   S    
O15   Zn3   S    
C2    C5    D    
C2    C18   S    
N10   N11   D    
C12   O9    A    
H3    N6    S    
C6    C22   S    
C1    O16   A    
O4    Zn2   S    
H7    N8    S    
N6    N9    S    
N11   Zn3   S    
C3    C8    D    
O3    Zn1   S    
O8    Zn4   S    
C14   C24   S    
H6    N7    S    
C13   N15   T    
O5    Zn4   S    
C20   O5    A    
C9    N12   T    
C14   N16   T    
C3    C12   S    
C19   O11   A    
C20   O12   A    
C7    C21   S    
C1    O1    A    
C19   O4    A    
C18   O10   A    
N8    N11   S    
N1    N5    S    
C3    C16   S    
O12   Zn3   S    
H1    N5    S    
C12   O2    A    
C11   N14   T    
O16   Zn2   S    
