data_mof_unit_47757.cif
_audit_creation_date              2012-12-11T15:09:11-0500
_audit_creation_method            fapswitch 2.2
_symmetry_space_group_name_H-M    P1
_symmetry_Int_Tables_number       1
_space_group_crystal_system       triclinic
_cell_length_a                    25.991188
_cell_length_b                    27.558265
_cell_length_c                    8.446583
_cell_angle_alpha                 89.984878
_cell_angle_beta                  96.800622
_cell_angle_gamma                 89.975792
_cell_volume                      6007.48364164

loop_
_atom_site_label
_atom_site_type_symbol
_atom_type_description
_atom_site_fract_x
_atom_site_fract_y
_atom_site_fract_z
_atom_type_partial_charge
Ba1   Ba    Ba6+2 0.999910 0.465960 0.844870 1.690413
Ba2   Ba    Ba6+2 0.999910 0.534040 0.344870 1.688869
Ba3   Ba    Ba6+2 0.499910 0.965960 0.844870 1.690423
Ba4   Ba    Ba6+2 0.499910 0.034040 0.344870 1.688857
C1    C     C_3   0.042319 0.240481 0.628394 -0.294505
C2    C     C_R   0.849909 0.644511 0.587842 -0.080078
C3    C     C_3   0.515900 0.211176 0.096332 0.302234
C4    C     C_R   0.915207 0.383462 0.296518 -0.253075
C5    C     C_R   0.915720 0.616831 0.795253 -0.248476
C6    C     C_R   0.415208 0.883460 0.296517 -0.253084
C7    C     C_R   0.415720 0.116832 0.795254 -0.248483
C8    C     C_3   0.218788 0.605653 0.268469 0.274493
C9    C     C_3   0.195482 0.332060 0.836498 0.320203
C10   C     C_3   0.718785 0.105655 0.268492 0.274455
C11   C     C_3   0.695480 0.832059 0.836500 0.320221
C12   C     C_R   0.347343 0.857121 0.093212 -0.076771
C13   C     C_R   0.349909 0.144511 0.587842 -0.080078
C14   C     C_R   0.835789 0.317685 0.189680 -0.008717
C15   C     C_R   0.839399 0.684987 0.681332 -0.013252
C16   C     C_R   0.335788 0.817686 0.189685 -0.008720
C17   C     C_R   0.339399 0.184988 0.681331 -0.013256
C18   C     C_R   0.864048 0.312382 0.342100 -0.094259
C19   C     C_R   0.866897 0.689955 0.835175 -0.097741
C20   C     C_R   0.364047 0.812382 0.342102 -0.094330
C21   C     C_3   0.041502 0.760368 0.127248 -0.281487
C22   C     C_R   0.366898 0.189956 0.835174 -0.097726
C23   C     C_R   0.902878 0.345873 0.396508 0.014051
C24   C     C_R   0.904141 0.655193 0.893151 0.014588
C25   C     C_R   0.402879 0.845872 0.396509 0.014041
C26   C     C_R   0.404141 0.155194 0.893151 0.014607
C27   C     C_R   0.801401 0.232996 0.141182 -0.084621
C28   C     C_R   0.805858 0.770177 0.624115 -0.095995
C29   C     C_R   0.301399 0.732997 0.141185 -0.084617
C30   C     C_R   0.305860 0.270177 0.624096 -0.095991
C31   C     C_R   0.261350 0.700552 0.089858 -0.015620
C32   C     C_3   0.542326 0.740486 0.628406 -0.294539
C33   C     C_R   0.265661 0.302588 0.571003 -0.038924
C34   C     C_R   0.761353 0.200551 0.089859 -0.015642
C35   C     C_R   0.765660 0.802588 0.571017 -0.038930
C36   C     C_R   0.210959 0.717276 0.038788 0.089145
C37   C     C_R   0.215072 0.285523 0.524255 0.039070
C38   C     C_R   0.710962 0.217275 0.038784 0.089151
C39   C     C_R   0.715072 0.785523 0.524253 0.039065
C40   C     C_R   0.202650 0.767730 0.029633 -0.078658
C41   C     C_R   0.206784 0.235062 0.519474 -0.095110
C42   C     C_R   0.702653 0.267729 0.029623 -0.078654
C43   C     C_3   0.541512 0.260360 0.127244 -0.281533
C44   C     C_R   0.706785 0.735062 0.519454 -0.095103
C45   C     C_R   0.743234 0.300374 0.076147 -0.054067
C46   C     C_R   0.747355 0.702627 0.566945 -0.058108
C47   C     C_R   0.243232 0.800375 0.076157 -0.054064
C48   C     C_R   0.247354 0.202627 0.566966 -0.058116
C49   C     C_3   0.979278 0.292002 0.069630 0.349174
C50   C     C_3   0.982623 0.708966 0.564556 0.341247
C51   C     C_3   0.479291 0.791991 0.069698 0.349204
C52   C     C_3   0.482621 0.208967 0.564548 0.341240
C53   C     C_R   0.792924 0.283321 0.134835 0.038378
C54   C     C_R   0.887005 0.390053 0.146632 0.126190
C55   C     C_R   0.797162 0.719769 0.622946 0.039837
C56   C     C_R   0.292922 0.783322 0.134841 0.038388
C57   C     C_R   0.297162 0.219770 0.622946 0.039833
C58   C     C_R   0.138763 0.686660 0.839638 -0.160763
C59   C     C_R   0.139137 0.313774 0.337177 -0.161122
C60   C     C_R   0.638764 0.186660 0.839637 -0.160787
C61   C     C_R   0.639136 0.813774 0.337178 -0.161111
C62   C     C_R   0.099035 0.653716 0.790052 0.011408
C63   C     C_R   0.098240 0.345724 0.290364 0.015784
C64   C     C_R   0.599034 0.153717 0.790053 0.011407
C65   C     C_R   0.887992 0.610443 0.644710 0.132445
C66   C     C_R   0.598239 0.845723 0.290367 0.015779
C67   C     C_R   0.116236 0.609897 0.040544 0.000545
C68   C     C_R   0.116852 0.390336 0.539000 0.021544
C69   C     C_R   0.616237 0.109896 0.040543 0.000526
C70   C     C_R   0.616852 0.890336 0.539002 0.021525
C71   C     C_R   0.156611 0.643293 0.092454 0.340615
C72   C     C_R   0.159246 0.358830 0.587021 0.340124
C73   C     C_R   0.656613 0.143291 0.092451 0.340575
C74   C     C_R   0.659246 0.858830 0.587022 0.340118
C75   C     C_R   0.167722 0.682249 0.991045 -0.049922
C76   C     C_R   0.387005 0.890052 0.146633 0.126199
C77   C     C_R   0.170425 0.319700 0.484317 -0.077304
C78   C     C_R   0.667724 0.182248 0.991042 -0.049929
C79   C     C_R   0.670425 0.819699 0.484318 -0.077312
C80   C     C_R   0.086961 0.616834 0.892501 -0.361061
C81   C     C_R   0.086054 0.382240 0.394125 -0.374657
C82   C     C_R   0.586960 0.116835 0.892502 -0.361047
C83   C     C_R   0.586053 0.882239 0.394128 -0.374638
C84   C     C_3   0.952664 0.242973 0.045011 0.259081
C85   C     C_3   0.957626 0.758750 0.540469 0.261802
C86   C     C_3   0.452684 0.742960 0.045061 0.259150
C87   C     C_R   0.387992 0.110443 0.644710 0.132441
C88   C     C_3   0.457623 0.258750 0.540448 0.261831
C89   C     C_3   0.147480 0.468988 0.224458 0.335841
C90   C     C_3   0.148851 0.530101 0.730065 0.363786
C91   C     C_3   0.647479 0.968987 0.224450 0.335890
C92   C     C_3   0.648846 0.030107 0.730009 0.363831
C93   C     C_3   0.197647 0.440472 0.264124 0.221506
C94   C     C_3   0.199083 0.554533 0.800936 0.259030
C95   C     C_3   0.697645 0.940469 0.264096 0.221532
C96   C     C_3   0.699073 0.054550 0.800867 0.259014
C97   C     C_3   0.841052 0.532783 0.010043 0.618431
C98   C     C_R   0.847344 0.357121 0.093209 -0.076792
C99   C     C_3   0.840581 0.467644 0.509014 0.620283
C100  C     C_3   0.341052 0.032784 0.010043 0.618432
C101  C     C_3   0.340581 0.967644 0.509014 0.620282
C102  C     C_3   0.808139 0.556530 0.126472 -0.197604
C103  C     C_3   0.808211 0.443743 0.626566 -0.197631
C104  C     C_3   0.308139 0.056530 0.126472 -0.197611
C105  C     C_3   0.308212 0.943743 0.626567 -0.197632
C106  C     C_3   0.016244 0.289507 0.597879 0.311020
C107  C     C_3   0.015887 0.711186 0.096280 0.302179
C108  C     C_3   0.516255 0.789516 0.597943 0.311041
Cl1   Cl    Cl    0.233136 0.437625 0.096105 -0.608866
Cl2   Cl    Cl    0.982729 0.799053 0.695642 -0.647221
Cl3   Cl    Cl    0.477246 0.701620 0.197899 -0.647154
Cl4   Cl    Cl    0.482700 0.299044 0.695615 -0.647293
Cl5   Cl    Cl    0.246394 0.554442 0.664591 -0.628632
Cl6   Cl    Cl    0.733132 0.937629 0.096071 -0.608760
Cl7   Cl    Cl    0.746410 0.054406 0.664626 -0.628524
Cl8   Cl    Cl    0.810732 0.552769 0.822800 -0.772306
Cl9   Cl    Cl    0.809448 0.448216 0.322114 -0.769984
Cl10  Cl    Cl    0.310732 0.052769 0.822800 -0.772313
Cl11  Cl    Cl    0.309449 0.948216 0.322114 -0.769986
Cl12  Cl    Cl    0.977172 0.201656 0.197982 -0.647264
H1    H     H_    0.041313 0.317266 0.664061 0.058938
H2    H     H_    0.191590 0.592659 0.831618 -0.066124
H3    H     H_    0.623058 0.027079 0.825040 -0.080840
H4    H     H_    0.121817 0.449310 0.131388 0.057514
H5    H     H_    0.129817 0.552578 0.630832 0.024057
H6    H     H_    0.621813 0.949312 0.131379 0.057515
H7    H     H_    0.629815 0.052571 0.630741 0.024058
H8    H     H_    0.228429 0.588646 0.155837 -0.014200
H9    H     H_    0.206178 0.577213 0.347816 0.143279
H10   H     H_    0.254888 0.621441 0.330805 0.091422
H11   H     H_    0.234374 0.315230 0.845966 0.028766
H12   H     H_    0.165306 0.303376 0.812004 -0.013492
H13   H     H_    0.689142 0.903007 0.299302 -0.033680
H14   H     H_    0.192451 0.347426 0.956097 0.129627
H15   H     H_    0.728429 0.088646 0.155869 -0.014155
H16   H     H_    0.706174 0.077218 0.347847 0.143241
H17   H     H_    0.754884 0.121445 0.330830 0.091407
H18   H     H_    0.734371 0.815226 0.845966 0.028750
H19   H     H_    0.665303 0.803376 0.812007 -0.013498
H20   H     H_    0.692452 0.847425 0.956100 0.129624
H21   H     H_    0.691581 0.092684 0.831404 -0.066068
H22   H     H_    0.881807 0.545560 0.030925 -0.007301
H23   H     H_    0.881322 0.454706 0.527945 -0.011561
H24   H     H_    0.381807 0.045560 0.030925 -0.007300
H25   H     H_    0.381322 0.954706 0.527945 -0.011559
H26   H     H_    0.766289 0.548849 0.092376 0.158268
H27   H     H_    0.766233 0.451036 0.593318 0.157990
H28   H     H_    0.266289 0.048850 0.092376 0.158265
H29   H     H_    0.041538 0.683376 0.160121 0.068121
H30   H     H_    0.266234 0.951035 0.593317 0.157989
H31   H     H_    0.814034 0.596432 0.128859 0.078112
H32   H     H_    0.814565 0.403898 0.629481 0.077279
H33   H     H_    0.314035 0.096432 0.128861 0.078111
H34   H     H_    0.314567 0.903898 0.629484 0.077279
H35   H     H_    0.817591 0.542127 0.246443 0.159793
H36   H     H_    0.817761 0.458446 0.746094 0.160075
H37   H     H_    0.317591 0.042127 0.246444 0.159796
H38   H     H_    0.317761 0.958447 0.746094 0.160075
H39   H     H_    0.013003 0.297052 0.467700 -0.010060
H40   H     H_    0.541318 0.817266 0.664196 0.059028
H41   H     H_    0.012004 0.704164 0.965704 -0.009451
H42   H     H_    0.513032 0.797079 0.467778 -0.010188
H43   H     H_    0.512034 0.204133 0.965764 -0.009536
H44   H     H_    0.081088 0.241041 0.585559 0.061651
H45   H     H_    0.079725 0.760525 0.081008 0.074026
H46   H     H_    0.581101 0.741051 0.585611 0.061650
H47   H     H_    0.579743 0.260506 0.081057 0.074006
H48   H     H_    0.047127 0.232346 0.758097 0.145092
H49   H     H_    0.047359 0.767886 0.257286 0.146195
H50   H     H_    0.547120 0.732333 0.758093 0.145135
H51   H     H_    0.541544 0.183373 0.160248 0.068196
H52   H     H_    0.547350 0.267901 0.257268 0.146193
H53   H     H_    0.910431 0.247551 0.048453 -0.014806
H54   H     H_    0.915199 0.755289 0.541829 -0.012647
H55   H     H_    0.410454 0.747526 0.048632 -0.014854
H56   H     H_    0.415203 0.255289 0.541761 -0.012635
H57   H     H_    0.270221 0.662324 0.087376 0.076479
H58   H     H_    0.273550 0.341177 0.572735 0.135772
H59   H     H_    0.770223 0.162322 0.087383 0.076481
H60   H     H_    0.773547 0.841177 0.572762 0.135780
H61   H     H_    0.839367 0.218707 0.183323 0.112579
H62   H     H_    0.222034 0.458160 0.364695 0.117687
H63   H     H_    0.843740 0.784554 0.666354 0.119017
H64   H     H_    0.339364 0.718708 0.183327 0.112500
H65   H     H_    0.343744 0.284553 0.666315 0.119043
H66   H     H_    0.824668 0.362990 0.978748 0.082288
H67   H     H_    0.827560 0.638765 0.472805 0.084396
H68   H     H_    0.324667 0.862991 0.978753 0.082283
H69   H     H_    0.327560 0.138766 0.472806 0.084398
H70   H     H_    0.164622 0.781912 0.987722 0.090004
H71   H     H_    0.168471 0.220706 0.482470 0.093576
H72   H     H_    0.664625 0.281911 0.987706 0.090000
H73   H     H_    0.215243 0.535097 0.910755 0.128441
H74   H     H_    0.668473 0.720705 0.482435 0.093595
H75   H     H_    0.735537 0.338992 0.069530 0.112494
H76   H     H_    0.739412 0.664038 0.564627 0.110952
H77   H     H_    0.235534 0.838993 0.069543 0.112497
H78   H     H_    0.239409 0.164039 0.564663 0.110952
H79   H     H_    0.147890 0.715072 0.758851 0.113022
H80   H     H_    0.148073 0.285531 0.255511 0.098702
H81   H     H_    0.647890 0.215072 0.758849 0.113019
H82   H     H_    0.648072 0.785532 0.255511 0.098708
H83   H     H_    0.854705 0.283324 0.420171 0.091600
H84   H     H_    0.722034 0.958151 0.364673 0.117676
H85   H     H_    0.858040 0.719624 0.911525 0.089271
H86   H     H_    0.354704 0.783324 0.420175 0.091595
H87   H     H_    0.358042 0.219625 0.911523 0.089280
H88   H     H_    0.056486 0.591405 0.852181 0.082372
H89   H     H_    0.054527 0.406863 0.356358 0.080505
H90   H     H_    0.556484 0.091407 0.852185 0.082381
H91   H     H_    0.554526 0.906863 0.356361 0.080501
H92   H     H_    0.018494 0.211597 0.564129 0.186144
H93   H     H_    0.016829 0.789285 0.066271 0.181666
H94   H     H_    0.518506 0.711612 0.564077 0.186140
H95   H     H_    0.715210 0.035148 0.910757 0.128311
H96   H     H_    0.516848 0.289269 0.066182 0.181683
H97   H     H_    0.944478 0.409683 0.340091 0.061045
H98   H     H_    0.943822 0.589810 0.841191 0.060931
H99   H     H_    0.444481 0.909681 0.340087 0.061048
H100  H     H_    0.443822 0.089810 0.841192 0.060934
H101  H     H_    0.958690 0.317887 0.983296 0.033397
H102  H     H_    0.961589 0.683805 0.476723 0.036085
H103  H     H_    0.458683 0.817882 0.983428 0.033270
H104  H     H_    0.461591 0.183806 0.476722 0.036080
H105  H     H_    0.976089 0.304506 0.193199 -0.059552
H106  H     H_    0.189145 0.403012 0.299350 -0.033652
H107  H     H_    0.978440 0.696292 0.687389 -0.058603
H108  H     H_    0.476122 0.804478 0.193296 -0.059578
H109  H     H_    0.478438 0.196294 0.687376 -0.058523
H110  H     H_    0.958957 0.227806 0.927022 0.106801
H111  H     H_    0.964930 0.774011 0.423501 0.104470
H112  H     H_    0.458943 0.727816 0.927011 0.106769
H113  H     H_    0.464935 0.274016 0.423517 0.104497
H114  H     H_    0.128192 0.472470 0.333946 -0.073133
H115  H     H_    0.123069 0.527063 0.825108 -0.080768
H116  H     H_    0.628195 0.972467 0.333944 -0.073197
O1    O     O_2   0.898940 0.431940 0.867860 -0.489345
O2    O     O_3   0.035004 0.711904 0.539227 -0.584074
O3    O     O_3   0.531351 0.787698 0.042070 -0.581312
O4    O     O_3   0.535000 0.211904 0.539231 -0.584094
O5    O     O_3   0.058810 0.523750 0.066650 -0.493359
O6    O     O_3   0.058810 0.476250 0.566650 -0.508024
O7    O     O_3   0.558810 0.023750 0.066650 -0.493354
O8    O     O_3   0.558810 0.976250 0.566650 -0.508037
O9    O     O_3   0.941140 0.476130 0.123050 -0.499233
O10   O     O_3   0.941140 0.523870 0.623050 -0.499131
O11   O     O_3   0.441140 0.976130 0.123050 -0.499233
O12   O     O_2   0.898940 0.568060 0.367860 -0.490600
O13   O     O_3   0.441140 0.023870 0.623050 -0.499130
O14   O     O_3   0.982430 0.389880 0.635700 -0.493035
O15   O     O_3   0.982430 0.610120 0.135700 -0.489019
O16   O     O_3   0.482430 0.889880 0.635700 -0.493044
O17   O     O_3   0.482430 0.110120 0.135700 -0.489034
O18   O     O_2   0.897402 0.350029 0.725623 -0.498147
O19   O     O_2   0.896764 0.649972 0.221516 -0.498393
O20   O     O_2   0.397403 0.850028 0.725626 -0.498120
O21   O     O_2   0.396765 0.149974 0.221517 -0.498399
O22   O     O_3   0.835633 0.481996 0.017807 -0.582051
O23   O     O_2   0.398940 0.931940 0.867860 -0.489342
O24   O     O_3   0.835408 0.518423 0.518317 -0.581570
O25   O     O_3   0.335633 0.981996 0.017807 -0.582053
O26   O     O_3   0.335408 0.018422 0.518318 -0.581571
O27   O     O_3   0.967104 0.288502 0.651868 -0.594028
O28   O     O_3   0.967196 0.711476 0.153212 -0.599220
O29   O     O_3   0.467106 0.788501 0.651871 -0.594021
O30   O     O_3   0.467198 0.211477 0.153208 -0.599217
O31   O     O_2   0.100770 0.431440 0.821660 -0.427290
O32   O     O_2   0.100770 0.568560 0.321660 -0.441423
O33   O     O_2   0.600770 0.931440 0.821660 -0.427271
O34   O     O_2   0.398940 0.068060 0.367860 -0.490601
O35   O     O_2   0.600770 0.068560 0.321660 -0.441454
O36   O     O_3   0.017130 0.389790 0.053700 -0.496055
O37   O     O_3   0.017130 0.610210 0.553700 -0.506879
O38   O     O_3   0.517130 0.889790 0.053700 -0.496040
O39   O     O_3   0.517130 0.110210 0.553700 -0.506879
O40   O     O_2   0.098874 0.348973 0.958919 -0.495817
O41   O     O_2   0.102471 0.649333 0.461577 -0.423185
O42   O     O_2   0.598879 0.848980 0.958931 -0.495827
O43   O     O_2   0.602469 0.149335 0.461577 -0.423221
O44   O     O_3   0.180621 0.642353 0.247925 -0.631158
O45   O     O_3   0.160824 0.484390 0.672708 -0.569333
O46   O     O_3   0.191939 0.370440 0.724153 -0.610582
O47   O     O_3   0.680620 0.142355 0.247927 -0.631162
O48   O     O_3   0.691939 0.870440 0.724156 -0.610564
O49   O     O_3   0.160083 0.514712 0.169241 -0.644345
O50   O     O_3   0.660825 0.984390 0.672722 -0.569277
O51   O     O_3   0.660084 0.014712 0.169245 -0.644319
O52   O     O_3   0.031346 0.287696 0.042101 -0.581341
P1    P     P_3+3 0.893960 0.447890 0.040050 1.028961
P2    P     P_3+3 0.064213 0.655731 0.586816 0.984976
P3    P     P_3+3 0.562284 0.843158 0.088222 0.953316
P4    P     P_3+3 0.564211 0.155733 0.586817 0.984928
P5    P     P_3+3 0.936400 0.656431 0.100169 0.945807
P6    P     P_3+3 0.936250 0.343792 0.601792 0.948868
P7    P     P_3+3 0.436401 0.156432 0.100169 0.945811
P8    P     P_3+3 0.436251 0.843791 0.601794 0.948892
P9    P     P_3+3 0.893960 0.552110 0.540050 1.029859
P10   P     P_3+3 0.393960 0.947890 0.040050 1.028967
P11   P     P_3+3 0.393960 0.052110 0.540050 1.029859
P12   P     P_3+3 0.105800 0.447360 0.649510 1.071352
P13   P     P_3+3 0.105800 0.552640 0.149510 1.001721
P14   P     P_3+3 0.605800 0.947360 0.649510 1.071374
P15   P     P_3+3 0.605800 0.052640 0.149510 1.001721
P16   P     P_3+3 0.062282 0.343156 0.088223 0.953311

loop_
_geom_bond_atom_site_label_1
_geom_bond_atom_site_label_2
_ccdc_geom_bond_type
O40   P16   D    
C17   C22   A    
Ba2   O37   S    
C84   H53   S    
C46   C55   A    
C50   O2    S    
C92   O50   S    
C48   C57   A    
C28   H63   S    
C91   C95   S    
O42   P3    D    
O49   P13   S    
O11   P10   S    
C101  Cl11  S    
O27   P6    S    
C88   H56   S    
C49   H101  S    
C96   H95   S    
O15   P5    S    
C43   H52   S    
C44   C46   A    
O34   P11   D    
C106  O27   S    
C108  H40   S    
C63   C81   A    
C52   H104  S    
O45   P12   S    
C6    C76   A    
O4    P4    S    
C30   C57   A    
C13   C17   A    
C92   H3    S    
C12   C76   A    
Ba4   P11   S    
C15   C19   A    
Ba3   O13   S    
C11   H18   S    
C12   C16   A    
O22   P1    S    
C105  H30   S    
C88   Cl4   S    
C8    O44   S    
C18   C23   A    
Ba3   O8    S    
O13   P11   S    
Ba1   O14   S    
O8    P14   S    
C8    H8    S    
C51   H108  S    
C108  O29   S    
C43   H47   S    
C42   H72   S    
C31   H57   S    
O20   P8    D    
C60   H81   S    
C32   H46   S    
C27   C53   A    
C31   C36   A    
O36   P16   S    
Ba1   O5    S    
C73   C78   A    
C7    C87   A    
C90   H115  S    
C47   H77   S    
C69   C73   A    
C99   C103  S    
C28   C55   A    
C71   C75   A    
C5    C24   A    
C2    C65   A    
C102  H26   S    
Ba2   P13   S    
C39   C79   S    
C13   C87   A    
C84   Cl12  S    
C68   C81   A    
C99   H23   S    
C2    C15   A    
C65   P9    S    
C60   C64   A    
Ba2   O5    S    
C51   C86   S    
C1    H44   S    
C100  Cl10  S    
C1    C106  S    
C33   H58   S    
C102  H35   S    
C45   C53   A    
C14   C98   A    
C51   H103  S    
C20   C25   A    
C5    H98   S    
C2    H67   S    
C91   H6    S    
C107  H41   S    
C91   O51   S    
C70   C83   A    
O43   P4    D    
C35   H60   S    
C103  H27   S    
C52   O4    S    
C87   P11   S    
C8    H10   S    
C97   O22   S    
C9    H11   S    
C72   O46   S    
C73   O47   S    
C66   C83   A    
C74   O48   S    
O5    P13   S    
C90   O45   S    
O50   P14   S    
C58   C62   A    
C100  O25   S    
Ba2   O9    S    
C104  H33   S    
C41   C48   A    
C15   C55   S    
C85   H54   S    
C71   O44   S    
C44   H74   S    
C82   H90   S    
Ba4   O7    S    
C21   H49   S    
C93   H106  S    
C96   H21   S    
C27   H61   S    
C36   C75   S    
C96   Cl7   S    
C19   C24   A    
C107  H29   S    
C92   H7    S    
C11   H19   S    
C10   H16   S    
C22   C26   A    
C10   O47   S    
Ba3   Ba4   S    
C69   P15   S    
C89   C93   S    
C45   H75   S    
C97   C102  S    
Ba4   O39   S    
C3    H43   S    
O19   P5    D    
C37   C41   A    
C94   H73   S    
C14   C18   A    
C97   Cl8   S    
C3    O30   S    
O33   P14   D    
Ba1   O31   S    
O9    P1    S    
C43   H96   S    
Ba1   P1    S    
C9    H14   S    
C85   H111  S    
C89   H4    S    
C92   C96   S    
C29   C31   A    
C1    H48   S    
C29   H64   S    
C48   H78   S    
C33   C37   A    
C21   C107  S    
O35   P15   D    
C36   C40   A    
C95   H13   S    
C47   C56   A    
O29   P8    S    
O30   P7    S    
C32   H50   S    
Ba4   O17   S    
C30   C33   A    
C100  H24   S    
C21   H93   S    
Ba2   O15   S    
C103  H36   S    
C76   P10   S    
C42   C45   A    
C51   O3    S    
C5    C65   A    
O16   P8    S    
C105  H38   S    
C68   P12   S    
O1    P1    D    
C90   C94   S    
C38   C42   A    
C28   C35   A    
O24   P9    S    
Ba1   O36   S    
C101  C105  S    
C4    C54   A    
C104  H28   S    
C74   C79   A    
O37   P2    S    
C7    C26   A    
C32   C108  S    
C99   O24   S    
Ba1   P12   S    
C54   C98   A    
C16   C56   S    
Ba3   P10   S    
C17   C57   S    
C70   P14   S    
O6    P12   S    
O25   P10   S    
Ba4   O35   S    
Ba3   O7    S    
O31   P12   D    
Ba3   O33   S    
C93   H62   S    
O23   P10   D    
O32   P13   D    
C32   H94   S    
C54   P1    S    
C20   H86   S    
C3    C43   S    
O14   P6    S    
Ba2   O12   S    
C14   C53   S    
C37   C77   S    
C86   H112  S    
C11   O48   S    
C86   Cl3   S    
C6    H99   S    
C29   C56   A    
O51   P15   S    
C100  C104  S    
Ba2   O32   S    
C104  H37   S    
C85   Cl2   S    
Ba4   O11   S    
C7    H100  S    
C106  H39   S    
C80   H88   S    
C84   H110  S    
C50   H107  S    
C27   C34   A    
C89   O49   S    
C95   H84   S    
Ba3   O16   S    
Ba4   O34   S    
Ba2   O6    S    
C6    C25   A    
O7    P15   S    
O38   P3    S    
C98   H66   S    
Ba3   P14   S    
C18   H83   S    
C91   H116  S    
Ba2   P9    S    
C9    O46   S    
C94   H2    S    
C70   C74   A    
O26   P11   S    
C4    C23   A    
C83   H91   S    
O12   P9    D    
C61   C66   A    
C49   H105  S    
C41   H71   S    
C64   C82   A    
C13   H69   S    
C38   C78   S    
C68   C72   A    
C67   P13   S    
C59   C77   A    
C107  O28   S    
C34   C38   A    
Ba1   O6    S    
C25   P8    S    
C26   P7    S    
C61   C79   A    
O3    P3    S    
O39   P4    S    
Ba1   Ba2   S    
Ba4   O8    S    
C12   H68   S    
O17   P7    S    
C50   H102  S    
C16   C20   A    
C3    H51   S    
C22   H87   S    
C39   C44   A    
C103  H32   S    
O52   P16   S    
C10   H17   S    
C108  H42   S    
C23   P6    S    
C105  H34   S    
O2    P2    S    
C63   P16   S    
C58   H79   S    
C59   C63   A    
C97   H22   S    
C90   H5    S    
C59   H80   S    
C58   C75   A    
C50   C85   S    
C46   H76   S    
Ba1   O10   S    
Ba3   O38   S    
C35   C39   A    
C61   H82   S    
C19   H85   S    
C101  O26   S    
C1    H92   S    
C34   H59   S    
C49   O52   S    
O28   P5    S    
C81   H89   S    
O41   P2    D    
C89   H114  S    
C60   C78   A    
Ba1   O1    S    
C40   C47   A    
Ba3   O23   S    
C8    H9    S    
C9    H12   S    
C52   H109  S    
C93   Cl1   S    
C24   P5    S    
C94   Cl5   S    
C67   C80   A    
C21   H45   S    
C86   H55   S    
C30   H65   S    
C72   C77   A    
O10   P9    S    
C101  H25   S    
C40   H70   S    
Ba4   P15   S    
C88   H113  S    
C95   Cl6   S    
C67   C71   A    
O18   P6    D    
C64   P4    S    
C49   C84   S    
O21   P7    D    
C69   C82   A    
C66   P3    S    
C106  H1    S    
C62   C80   A    
C11   H20   S    
C62   P2    S    
C52   C88   S    
C10   H15   S    
C102  H31   S    
C4    H97   S    
C99   Cl9   S    
