data_mof_unit_7077.cif
_audit_creation_date              2012-12-10T17:51:24-0500
_audit_creation_method            fapswitch 2.2
_symmetry_space_group_name_H-M    P1
_symmetry_Int_Tables_number       1
_space_group_crystal_system       triclinic
_cell_length_a                    14.86809
_cell_length_b                    15.144481
_cell_length_c                    17.097115
_cell_angle_alpha                 108.596191
_cell_angle_beta                  73.471308
_cell_angle_gamma                 116.396591
_cell_volume                      3221.81304141

loop_
_atom_site_label
_atom_site_type_symbol
_atom_type_description
_atom_site_fract_x
_atom_site_fract_y
_atom_site_fract_z
_atom_type_partial_charge
C1    C     C_R   0.119435 0.687887 0.513552 0.814977
C2    C     C_R   0.880566 0.312778 0.487287 0.880159
C3    C     C_R   0.187520 0.796114 0.516220 -0.183756
C4    C     C_R   0.811181 0.205169 0.472212 -0.193741
C5    C     C_R   0.208402 0.969298 0.526603 0.352528
C6    C     C_R   0.779062 0.036700 0.383846 0.428535
C7    C     C_R   0.147206 0.865629 0.519702 -0.238382
C8    C     C_R   0.845440 0.135742 0.410598 -0.196501
C9    C     C_R   0.293657 0.830519 0.509445 -0.074380
C10   C     C_R   0.709014 0.171779 0.513582 -0.065193
C11   C     C_R   0.356438 0.929902 0.500758 -0.025350
C12   C     C_R   0.636479 0.081066 0.473335 -0.002432
C13   C     C_R   0.314465 0.003778 0.526647 -0.034292
C14   C     C_R   0.672180 0.011148 0.407920 -0.064535
C15   C     C_R   0.461746 0.957682 0.470803 0.064093
C16   C     C_R   0.529383 0.057696 0.495271 0.124482
C17   C     C_R   0.487137 0.130966 0.537040 -0.164658
C18   C     C_R   0.497410 0.889460 0.407941 -0.237759
C19   C     C_R   0.381560 0.106316 0.550716 -0.035788
C20   C     C_R   0.599359 0.918726 0.370581 -0.012040
C21   C     C_R   0.312229 0.358975 0.339158 -0.259837
C22   C     C_R   0.717161 0.682356 0.634001 -0.272508
C23   C     C_R   0.985821 0.497823 0.652132 0.868858
C24   C     C_R   0.012295 0.499082 0.347350 0.867361
C25   C     C_R   0.218800 0.367750 0.372723 0.158209
C26   C     C_R   0.794015 0.647056 0.615869 0.162830
C27   C     C_R   0.285235 0.485685 0.493671 0.166998
C28   C     C_R   0.713150 0.511286 0.508158 0.107467
C29   C     C_R   0.383804 0.481104 0.459615 -0.036275
C30   C     C_R   0.637177 0.550606 0.520513 -0.054051
C31   C     C_R   0.394685 0.416160 0.380701 0.124447
C32   C     C_R   0.638581 0.634234 0.587846 0.136739
C33   C     C_R   0.471128 0.535243 0.501335 0.099626
C34   C     C_R   0.558143 0.509210 0.470833 0.098885
C35   C     C_R   0.567296 0.450958 0.388695 -0.140019
C36   C     C_R   0.478701 0.620261 0.567679 -0.156801
C37   C     C_R   0.486918 0.405013 0.344656 -0.106249
C38   C     C_R   0.561379 0.670014 0.609034 -0.140527
C39   C     C_R   0.968866 0.479883 0.735828 -0.131798
C40   C     C_R   0.023708 0.507081 0.261421 -0.123544
C41   C     C_R   0.018971 0.427460 0.748495 -0.211286
C42   C     C_R   0.971300 0.554846 0.245291 -0.207371
C43   C     C_R   0.005770 0.409489 0.826704 0.429920
C44   C     C_R   0.981353 0.564920 0.164786 0.427030
C45   C     C_R   0.941993 0.446431 0.894908 -0.068837
C46   C     C_R   0.042404 0.522759 0.097759 -0.069947
C47   C     C_R   0.882241 0.489245 0.880469 -0.060167
C48   C     C_R   0.101490 0.480955 0.114642 -0.052859
C49   C     C_R   0.897474 0.506630 0.801118 -0.159435
C50   C     C_R   0.090317 0.472456 0.196347 -0.197980
C51   C     C_2   0.948399 0.453760 0.981298 -0.055990
C52   C     C_2   0.036126 0.512329 0.010671 -0.059385
Cu1   Cu    Cu3+1 0.916740 0.524770 0.521640 1.033770
Cu2   Cu    Cu3+1 0.083260 0.475230 0.478360 1.039391
H1    H     H_    0.067913 0.398754 0.696865 0.235929
H2    H     H_    0.922906 0.585872 0.295905 0.214487
H3    H     H_    0.535544 0.208513 0.558502 0.205133
H4    H     H_    0.442983 0.817630 0.379643 0.185644
H5    H     H_    0.496478 0.358624 0.282277 0.162366
H6    H     H_    0.563724 0.736003 0.659272 0.158189
H7    H     H_    0.319815 0.304642 0.280814 0.174631
H8    H     H_    0.719014 0.748171 0.684485 0.168019
H9    H     H_    0.638074 0.444132 0.355479 0.170385
H10   H     H_    0.424331 0.653737 0.585551 0.170818
H11   H     H_    0.134342 0.439322 0.209250 0.215971
H12   H     H_    0.852417 0.539860 0.790237 0.237662
H13   H     H_    0.103862 0.550965 0.969876 0.201644
H14   H     H_    0.880567 0.415708 0.022294 0.203706
H15   H     H_    0.925490 0.158036 0.384816 0.219100
H16   H     H_    0.067322 0.839112 0.516919 0.240898
N1    N     N_R   0.208390 0.438070 0.445820 -0.256496
N2    N     N_R   0.791610 0.561930 0.554180 -0.261950
O1    O     O_R   0.020090 0.662480 0.528530 -0.592043
O2    O     O_R   0.979910 0.337520 0.471470 -0.574489
O3    O     O_R   0.160710 0.620650 0.491980 -0.536567
O4    O     O_R   0.839290 0.379350 0.508020 -0.547291
O5    O     O_R   0.921540 0.523360 0.633990 -0.548690
O6    O     O_R   0.078460 0.476640 0.366010 -0.557699
O7    O     O_R   0.062170 0.481520 0.597440 -0.582996
O8    O     O_R   0.937830 0.518480 0.402560 -0.558262
C53   C     C_2   0.696426 0.407362 0.458385 0.870547
O9    O     O_2   0.620983 0.337338 0.480727 -0.602469
O10   O     O_R   0.760330 0.388991 0.383110 -0.750528
H17   H     H_    0.738507 0.314444 0.354932 0.331807
C54   C     C_2   0.257789 0.516282 0.585317 0.845883
O11   O     O_2   0.256352 0.465955 0.629484 -0.577611
O12   O     O_R   0.240135 0.605064 0.621969 -0.740067
H18   H     H_    0.225230 0.618632 0.685374 0.334727
C55   C     C_2   0.875612 0.705421 0.666528 0.907066
O13   O     O_2   0.874805 0.676345 0.725637 -0.585030
O14   O     O_R   0.945624 0.800713 0.653783 -0.743762
H19   H     H_    0.996001 0.835617 0.694226 0.351166
C56   C     C_2   0.132268 0.286252 0.332660 0.867102
O15   O     O_2   0.073913 0.304424 0.308779 -0.585499
O16   O     O_R   0.123944 0.186372 0.314749 -0.718275
H20   H     H_    0.068851 0.137518 0.280078 0.360534
C57   C     C_2   0.803697 0.517097 0.946351 0.960637
O17   O     O_2   0.751095 0.464254 0.996715 -0.548103
O18   O     O_R   0.786794 0.601685 0.948562 -0.706357
H21   H     H_    0.730760 0.612495 0.995844 0.363537
C58   C     C_2   0.175454 0.445321 0.049084 0.949976
O19   O     O_2   0.226766 0.491181 0.993872 -0.540336
O20   O     O_R   0.189723 0.361514 0.052644 -0.722046
H22   H     H_    0.242864 0.345078 0.005064 0.361963
S1    S     S_3+6 0.918918 0.634805 0.153122 0.026424
O21   O     O_2   0.963193 0.671216 0.073000 -0.277720
O22   O     O_2   0.807628 0.569232 0.154711 -0.241317
O23   O     O_3   0.931550 0.735300 0.234260 -0.510576
H23   H     H_    0.901359 0.774389 0.221221 0.423749
S2    S     S_3+6 0.068698 0.337596 0.834077 0.046053
O24   O     O_2   0.180149 0.402823 0.831920 -0.229208
O25   O     O_2   0.025781 0.298113 0.912754 -0.277698
O26   O     O_3   0.055082 0.239282 0.750940 -0.458762
H24   H     H_    0.090490 0.201709 0.759215 0.418654
C59   C     C_2   0.345895 0.187179 0.602881 0.972221
O27   O     O_2   0.277509 0.170878 0.662946 -0.538471
O28   O     O_R   0.394448 0.283765 0.585986 -0.707774
H25   H     H_    0.364226 0.332991 0.626413 0.371752
C60   C     C_2   0.620942 0.860138 0.285094 0.957506
O29   O     O_2   0.590612 0.768018 0.271304 -0.532107
O30   O     O_R   0.669474 0.909903 0.219213 -0.713173
H26   H     H_    0.677380 0.861767 0.163251 0.363993
C61   C     C_2   0.684659 0.214587 0.605360 0.852524
O31   O     O_2   0.734732 0.301524 0.637806 -0.581499
O32   O     O_R   0.606586 0.152314 0.655895 -0.735745
H27   H     H_    0.597634 0.188763 0.716849 0.353754
C62   C     C_2   0.338185 0.781241 0.540388 0.938503
O33   O     O_2   0.363450 0.713017 0.493911 -0.596925
O34   O     O_R   0.359631 0.821709 0.621966 -0.720220
H28   H     H_    0.401250 0.793094 0.636027 0.331618
S3    S     S_3+6 0.152001 0.044152 0.513866 0.072870
O35   O     O_2   0.101528 0.086742 0.597444 -0.174842
O36   O     O_2   0.229267 0.128919 0.472989 -0.267675
O37   O     O_3   0.062178 0.970393 0.453509 -0.445556
H29   H     H_    0.098976 0.943236 0.399956 0.344915
S4    S     S_3+6 0.836489 0.948139 0.331040 0.022907
O38   O     O_2   0.770739 0.846677 0.351892 -0.247354
O39   O     O_2   0.854791 0.938296 0.238143 -0.286713
O40   O     O_3   0.949244 0.990018 0.361271 -0.465865
H30   H     H_    0.988590 0.955094 0.315760 0.386162

loop_
_geom_bond_atom_site_label_1
_geom_bond_atom_site_label_2
_ccdc_geom_bond_type
C15   C18   A    
O12   H18   S    
C25   C56   S    
C58   O19   D    
C29   C33   A    
C27   C29   A    
C26   N2    A    
C2    C4    S    
O16   H20   S    
C4    C8    A    
S3    O37   S    
C7    H16   S    
C57   O17   D    
C27   N1    A    
C61   O31   D    
C39   C41   A    
C44   S1    S    
C26   C55   S    
S1    O22   D    
C8    H15   S    
C9    C62   S    
C22   C32   A    
C35   C37   A    
O26   H24   S    
C3    C7    A    
C23   C39   S    
C61   O32   S    
C22   H8    S    
C45   C51   S    
C15   C16   A    
C46   C52   S    
C33   C36   A    
O23   H23   S    
C34   C35   A    
C45   C47   A    
C27   C54   S    
S2    O24   D    
C41   H1    S    
C6    S4    S    
C42   H2    S    
Cu2   O2    S    
C11   C15   A    
C24   O8    A    
Cu2   N1    S    
C12   C16   A    
C16   C17   A    
C59   O28   S    
C25   N1    A    
C43   S2    S    
C32   C38   A    
C55   O14   S    
C5    C13   A    
C2    O2    A    
C40   C42   A    
C58   O20   S    
C41   C43   A    
C28   N2    A    
C42   C44   A    
S4    O40   S    
C57   O18   S    
C44   C46   A    
C53   O9    D    
C60   O30   S    
S1    O23   S    
C46   C48   A    
C49   H12   S    
C30   C34   A    
C54   O12   S    
C51   C52   D    
C1    O3    A    
C14   C20   A    
Cu1   O8    S    
S4    O39   D    
C10   C61   S    
O14   H19   S    
C5    C7    A    
C13   C19   A    
C17   C19   A    
C6    C8    A    
C54   O11   D    
C31   C37   A    
C1    C3    S    
Cu1   O5    S    
C62   O34   S    
C3    C9    A    
C6    C14   A    
C21   C31   A    
O10   H17   S    
C19   C59   S    
O40   H30   S    
C33   C34   A    
C56   O15   D    
C23   O5    A    
C9    C11   A    
S2    O26   S    
O30   H26   S    
C37   H5    S    
C52   H13   S    
C10   C12   A    
C38   H6    S    
C24   O6    A    
C39   C49   A    
C12   C14   A    
O32   H27   S    
Cu1   O4    S    
C4    C10   A    
C62   O33   D    
C2    O4    A    
Cu2   O7    S    
C21   C25   A    
C28   C53   S    
C21   H7    S    
Cu1   O1    S    
S4    O38   D    
S3    O36   D    
C53   O10   S    
C60   O29   D    
Cu1   Cu2   S    
O37   H29   S    
C47   C49   A    
S1    O21   D    
C47   C57   S    
O18   H21   S    
C1    O1    A    
C28   C30   A    
O34   H28   S    
C43   C45   A    
O28   H25   S    
C36   C38   A    
C30   C32   A    
C11   C13   A    
C59   O27   D    
C56   O16   S    
C40   C50   A    
C48   C58   S    
C48   C50   A    
C24   C40   S    
C18   H4    S    
C18   C20   A    
C51   H14   S    
C50   H11   S    
S2    O25   D    
Cu2   O3    S    
C5    S3    S    
C29   C31   A    
C22   C26   A    
O20   H22   S    
C35   H9    S    
C23   O7    A    
C55   O13   D    
C36   H10   S    
Cu1   N2    S    
C20   C60   S    
S3    O35   D    
C17   H3    S    
Cu2   O6    S    
