data_mof_unit_34892.cif
_audit_creation_date              2012-12-10T18:58:46-0500
_audit_creation_method            fapswitch 2.2
_symmetry_space_group_name_H-M    P1
_symmetry_Int_Tables_number       1
_space_group_crystal_system       triclinic
_cell_length_a                    12.990861
_cell_length_b                    10.738382
_cell_length_c                    9.556299
_cell_angle_alpha                 90.609909
_cell_angle_beta                  96.152482
_cell_angle_gamma                 90.099314
_cell_volume                      1325.35252066

loop_
_atom_site_label
_atom_site_type_symbol
_atom_type_description
_atom_site_fract_x
_atom_site_fract_y
_atom_site_fract_z
_atom_type_partial_charge
C1    C     C_R   0.500274 0.262651 0.499192 0.824867
C2    C     C_R   0.028069 0.502136 0.567583 0.176993
C3    C     C_R   0.971962 0.513279 0.433298 0.173465
C4    C     C_R   0.864452 0.514588 0.421293 -0.279436
C5    C     C_R   0.868322 0.495145 0.674999 -0.193338
C6    C     C_R   0.975901 0.494146 0.687926 -0.225332
C7    C     C_R   0.590264 0.063163 0.521956 0.048853
C8    C     C_R   0.498661 0.129498 0.494952 -0.103999
C9    C     C_R   0.406301 0.066195 0.450429 -0.246566
C10   C     C_R   0.403310 0.935464 0.451651 0.142049
C11   C     C_R   0.494993 0.870477 0.498969 -0.162088
C12   C     C_R   0.300542 0.501018 0.473738 0.795476
C13   C     C_R   0.588001 0.935058 0.524532 0.084099
C14   C     C_3   0.668960 0.930863 0.648533 0.070990
C15   C     C_3   0.673098 0.072660 0.642899 -0.523978
C16   C     C_R   0.576305 0.560172 0.085422 0.203330
C17   C     C_R   0.431352 0.428776 0.063077 0.322472
C18   C     C_R   0.430723 0.430866 0.913859 -0.141239
C19   C     C_R   0.576478 0.559835 0.938305 0.250054
C20   C     C_3   0.602692 0.695015 0.937948 -0.503232
C21   C     C_3   0.602551 0.695321 0.096789 -0.498073
C22   C     C_R   0.498517 0.737237 0.500270 0.820265
C23   C     C_R   0.699441 0.501487 0.526303 0.814931
C24   C     C_R   0.812246 0.504065 0.541586 -0.036512
C25   C     C_R   0.187747 0.505184 0.458788 -0.050391
C26   C     C_R   0.024212 0.521721 0.313043 -0.225758
C27   C     C_R   0.131774 0.517689 0.325732 -0.197572
C28   C     C_R   0.135496 0.498231 0.579365 -0.275140
Cu1   Cu    Cu3+1 0.499990 0.499980 0.640670 0.936260
Cu2   Cu    Cu3+1 0.500010 0.500020 0.359330 0.955407
H1    H     H_    0.821669 0.522871 0.317959 0.150965
H2    H     H_    0.645710 0.118900 0.736730 0.185398
H3    H     H_    0.746410 0.111075 0.610790 0.202165
H4    H     H_    0.373323 0.377593 0.847936 0.148691
H5    H     H_    0.680673 0.711562 0.903808 0.192667
H6    H     H_    0.539394 0.752130 0.884053 0.212757
H7    H     H_    0.680432 0.712007 0.154264 0.187884
H8    H     H_    0.539378 0.752908 0.133186 0.218637
H9    H     H_    0.829180 0.487700 0.769111 0.153034
H10   H     H_    0.981995 0.530863 0.209537 0.130646
H11   H     H_    0.018175 0.486105 0.791537 0.129605
H12   H     H_    0.170959 0.524690 0.231668 0.149873
H13   H     H_    0.178153 0.489012 0.682661 0.149125
H14   H     H_    0.336123 0.118400 0.420870 0.140932
H15   H     H_    0.638743 0.896019 0.745246 0.126122
N1    N     N_R   0.500660 0.500930 0.148010 -0.202944
N2    N     N_R   0.500660 0.500890 0.852110 -0.198989
O1    O     O_R   0.500000 0.319640 0.618810 -0.584259
O2    O     O_R   0.500010 0.319680 0.381230 -0.553649
O3    O     O_R   0.348990 0.499960 0.599490 -0.594614
O4    O     O_R   0.349000 0.500000 0.361910 -0.561710
O5    O     O_R   0.499990 0.680320 0.618770 -0.585632
O6    O     O_R   0.500000 0.680360 0.381190 -0.583026
O7    O     O_R   0.651000 0.500000 0.638090 -0.582741
O8    O     O_R   0.651010 0.500040 0.400510 -0.589078
N3    N     N_2   0.765332 0.869832 0.621691 -0.414636
H16   H     H_    0.825446 0.887107 0.699013 0.254679
C29   C     C_3   0.796355 0.867221 0.480298 -0.649110
H17   H     H_    0.870812 0.816510 0.480395 0.220763
H18   H     H_    0.806893 0.963274 0.442327 0.220194
H19   H     H_    0.737771 0.816844 0.407486 0.227077
N4    N     N_2   0.356819 0.355866 0.123537 -0.373592
H20   H     H_    0.282148 0.384050 0.092090 0.220482
C30   C     C_3   0.368545 0.222750 0.106220 -0.690704
H21   H     H_    0.352317 0.195080 0.993646 0.196321
H22   H     H_    0.312777 0.173703 0.166667 0.219839
H23   H     H_    0.448164 0.193299 0.146083 0.251515
C31   C     C_3   0.301326 0.869416 0.411044 -0.388526
C32   C     C_3   0.283848 0.846253 0.252520 -0.818428
H24   H     H_    0.346240 0.786806 0.217433 0.263225
H25   H     H_    0.208596 0.797884 0.225622 0.236054
H26   H     H_    0.282189 0.935921 0.195495 0.241958
H27   H     H_    0.298263 0.779343 0.466443 0.188939
H28   H     H_    0.236542 0.926521 0.443757 0.195229

loop_
_geom_bond_atom_site_label_1
_geom_bond_atom_site_label_2
_ccdc_geom_bond_type
C14   N3    S    
Cu2   O4    S    
C16   C21   S    
C1    C8    S    
C31   H28   S    
C19   C20   S    
C18   N2    A    
C7    C8    A    
C25   C28   A    
C26   C27   A    
N4    H20   S    
Cu1   N2    S    
C5    C6    A    
C4    C24   A    
C19   N2    A    
Cu1   O7    S    
C29   H18   S    
N3    H16   S    
C32   H25   S    
N4    C30   S    
C20   H5    S    
C21   H8    S    
C31   C32   S    
C6    H11   S    
C23   C24   S    
C22   O6    A    
C9    C10   A    
C29   H19   S    
C7    C15   S    
C13   C14   S    
C2    C6    A    
C14   H15   S    
Cu1   O3    S    
Cu2   O6    S    
Cu1   O1    S    
C30   H23   S    
C15   H2    S    
C17   N1    A    
C16   N1    A    
C8    C9    A    
C31   H27   S    
C30   H22   S    
C32   H26   S    
Cu1   Cu2   S    
C17   N4    S    
C17   C18   A    
C18   H4    S    
Cu2   O2    S    
C5    H9    S    
C3    C4    A    
C12   O4    A    
C23   O7    A    
C22   O5    A    
C9    H14   S    
C28   H13   S    
Cu2   N1    S    
C3    C26   A    
C12   O3    A    
C1    O1    A    
C23   O8    A    
C10   C31   S    
C25   C27   A    
Cu2   O8    S    
C11   C22   S    
C12   C25   S    
C30   H21   S    
C2    C3    A    
C29   H17   S    
C11   C13   A    
C27   H12   S    
C26   H10   S    
C5    C24   A    
C16   C19   A    
N3    C29   S    
C32   H24   S    
C4    H1    S    
C10   C11   A    
C20   H6    S    
C7    C13   A    
C21   H7    S    
C20   C21   S    
C14   C15   S    
C2    C28   A    
C1    O2    A    
C15   H3    S    
Cu1   O5    S    
