data_mof_unit_50525.cif
_audit_creation_date              2013-03-05T15:51:25-0500
_audit_creation_method            fapswitch 2.2
_symmetry_space_group_name_H-M    P1
_symmetry_Int_Tables_number       1
_space_group_crystal_system       triclinic
_cell_length_a                    6.932275
_cell_length_b                    23.189285
_cell_length_c                    25.768351
_cell_angle_alpha                 104.467837
_cell_angle_beta                  89.560361
_cell_angle_gamma                 90.53502
_cell_volume                      4010.77958205

loop_
_atom_site_label
_atom_site_type_symbol
_atom_site_description
_atom_site_fract_x
_atom_site_fract_y
_atom_site_fract_z
_atom_type_partial_charge
O1    O     O_R   0.494330 0.439230 0.438150 -0.594769
O2    O     O_R   0.820190 0.446230 0.546380 -0.597407
O3    O     O_R   0.994320 0.560770 0.561850 -0.594521
C1    C     C_R   0.650628 0.433977 0.562920 0.923995
O4    O     O_R   0.823790 0.432220 0.437600 -0.597508
O5    O     O_R   0.997940 0.546660 0.452300 -0.595579
C2    C     C_R   0.654932 0.415543 0.417493 0.952318
O6    O     O_R   0.490700 0.453340 0.547700 -0.595154
O7    O     O_3   0.662060 0.537560 0.504950 -0.273755
V1    V     V_3+5 0.935420 0.493030 0.499080 1.143817
O8    O     O_R   0.327880 0.553770 0.453620 -0.596377
C3    C     C_R   0.159769 0.565994 0.437013 0.924062
O9    O     O_R   0.324280 0.567780 0.562400 -0.597179
C4    C     C_R   0.155249 0.584496 0.582481 0.952557
V2    V     V_3+5 0.435890 0.506970 0.500920 1.144179
O10   O     O_3   0.159380 0.462440 0.495050 -0.273875
C5    C     C_R   0.932323 0.855834 0.830975 -0.183888
C6    C     C_R   0.084455 0.866153 0.868134 -0.162080
C7    C     C_R   0.248651 0.829664 0.857557 -0.255184
C8    C     C_R   0.260727 0.783023 0.810877 0.159286
C9    C     C_R   0.108708 0.773474 0.773504 0.027567
C10   C     C_R   0.944479 0.810256 0.783460 0.129964
C11   C     C_R   0.422166 0.745686 0.800890 -0.221433
C12   C     C_R   0.434170 0.699711 0.753996 -0.210115
C13   C     C_R   0.285278 0.690322 0.716123 0.152586
C14   C     C_R   0.121037 0.727095 0.726072 0.032254
C15   C     C_R   0.968943 0.717497 0.688720 0.146433
C16   C     C_R   0.807622 0.754892 0.698677 -0.214584
C17   C     C_R   0.795690 0.800908 0.745556 -0.177243
C18   C     C_R   0.297277 0.644658 0.668674 -0.254415
C19   C     C_R   0.144866 0.634160 0.631603 -0.145330
C20   C     C_R   0.980775 0.670713 0.642123 -0.246832
H1    H     H_    0.806084 0.884041 0.838547 0.150136
H2    H     H_    0.366245 0.837119 0.886029 0.137492
H3    H     H_    0.539969 0.752260 0.829225 0.139499
H4    H     H_    0.560794 0.671706 0.747191 0.142587
H5    H     H_    0.423581 0.616482 0.661116 0.136000
H6    H     H_    0.863054 0.663174 0.613690 0.141730
H7    H     H_    0.689802 0.748310 0.670349 0.145688
H8    H     H_    0.669113 0.828933 0.752351 0.152859
C21   C     C_R   0.256121 0.880527 0.120149 -0.161997
H9    H     H_    0.389865 0.896965 0.107023 0.129231
C22   C     C_R   0.264928 0.844718 0.156551 -0.141140
H10   H     H_    0.405074 0.834710 0.170213 0.113447
C23   C     C_R   0.095567 0.822360 0.175136 0.122476
C24   C     C_R   0.917019 0.836747 0.156067 -0.138648
H11   H     H_    0.783453 0.820403 0.169369 0.115116
C25   C     C_R   0.908168 0.872592 0.119612 -0.162361
H12   H     H_    0.768105 0.882794 0.106024 0.126242
C26   C     C_R   0.077651 0.895080 0.101163 -0.122836
N1    N     N_R   0.942096 0.763041 0.232466 -0.076922
N2    N     N_R   0.951020 0.729309 0.267415 -0.078229
C27   C     C_R   0.123603 0.715444 0.285767 0.099805
N3    N     N_R   0.286880 0.736907 0.267490 -0.076708
N4    N     N_R   0.277955 0.770639 0.232541 -0.078219
C28   C     C_R   0.105372 0.784504 0.214190 0.099160
C29   C     C_R   0.311950 0.663187 0.343881 -0.136686
H13   H     H_    0.445521 0.679520 0.330570 0.115101
C30   C     C_R   0.320790 0.627342 0.380337 -0.159072
H14   H     H_    0.460851 0.617130 0.393917 0.126829
C31   C     C_R   0.151299 0.604870 0.398796 -0.130838
C32   C     C_R   0.972832 0.619438 0.379819 -0.158936
H15   H     H_    0.839081 0.603012 0.392952 0.129688
C33   C     C_R   0.964034 0.655245 0.343415 -0.139345
H16   H     H_    0.823890 0.665265 0.329761 0.113059
C34   C     C_R   0.133403 0.677588 0.324821 0.121836
C35   C     C_R   0.463535 0.384658 0.624692 -0.162192
H17   H     H_    0.331911 0.404819 0.615558 0.128820
C36   C     C_R   0.454951 0.348623 0.661033 -0.139655
H18   H     H_    0.316857 0.341870 0.678626 0.115051
C37   C     C_R   0.622204 0.321530 0.674256 0.125265
C38   C     C_R   0.798115 0.331505 0.650186 -0.139184
H19   H     H_    0.930051 0.311590 0.659418 0.117384
C39   C     C_R   0.806953 0.367795 0.614188 -0.162030
H20   H     H_    0.945373 0.374524 0.596745 0.130814
C40   C     C_R   0.639865 0.394888 0.600878 -0.129422
N5    N     N_R   0.769709 0.250742 0.719895 -0.075366
N6    N     N_R   0.763680 0.216596 0.754532 -0.073330
C41   C     C_R   0.602170 0.213499 0.783988 0.138966
N7    N     N_R   0.446601 0.246059 0.777093 -0.077064
N8    N     N_R   0.452388 0.280067 0.742265 -0.078921
C42   C     C_R   0.614262 0.283242 0.712912 0.094700
C43   C     C_R   0.445089 0.179808 0.860094 -0.130763
H21   H     H_    0.328804 0.210927 0.861097 0.126869
C44   C     C_R   0.442145 0.144465 0.896949 -0.115120
H22   H     H_    0.323802 0.149595 0.925369 0.165595
C45   C     C_R   0.590116 0.103501 0.897665 -0.312207
C46   C     C_R   0.742685 0.098598 0.859829 0.373257
C47   C     C_R   0.744451 0.134419 0.823162 -0.234369
H23   H     H_    0.862160 0.129644 0.794542 0.159357
C48   C     C_R   0.596798 0.175477 0.822884 0.061181
C49   C     C_R   0.430182 0.144532 0.168713 -0.254744
C50   C     C_R   0.584235 0.134094 0.131701 -0.138412
C51   C     C_R   0.750033 0.170606 0.142337 -0.253884
C52   C     C_R   0.761949 0.217317 0.188981 0.149357
C53   C     C_R   0.608121 0.226879 0.226267 0.028515
C54   C     C_R   0.442158 0.190122 0.216215 0.148956
C55   C     C_R   0.925058 0.254681 0.199042 -0.217689
C56   C     C_R   0.936998 0.300641 0.245955 -0.206926
C57   C     C_R   0.786373 0.309977 0.283775 0.150439
C58   C     C_R   0.620404 0.273224 0.273723 0.028687
C59   C     C_R   0.466581 0.282785 0.311011 0.148649
C60   C     C_R   0.303465 0.245423 0.300947 -0.215751
C61   C     C_R   0.291527 0.199462 0.254034 -0.204894
C62   C     C_R   0.798378 0.355555 0.331284 -0.254432
C63   C     C_R   0.644353 0.365986 0.368304 -0.144889
C64   C     C_R   0.478524 0.329487 0.357662 -0.250576
H24   H     H_    0.302530 0.116375 0.161063 0.136237
H25   H     H_    0.869065 0.163095 0.113958 0.141047
H26   H     H_    0.044245 0.248116 0.170768 0.142621
H27   H     H_    0.064961 0.328648 0.252833 0.143246
H28   H     H_    0.926048 0.383703 0.338935 0.136394
H29   H     H_    0.359507 0.336996 0.386046 0.141465
H30   H     H_    0.184280 0.251987 0.329221 0.143631
H31   H     H_    0.163567 0.171453 0.247157 0.143876
O11   O     O_R   0.738220 0.046730 0.952360 -0.556763
O12   O     O_R   0.404950 0.067790 0.062410 -0.605042
O13   O     O_R   0.230980 0.953320 0.047680 -0.602684
C65   C     C_R   0.573763 0.084511 0.082531 0.937151
O14   O     O_R   0.408720 0.053790 0.953630 -0.561633
O15   O     O_R   0.234780 0.939210 0.938130 -0.589534
C66   C     C_R   0.578508 0.065329 0.936497 0.972985
O16   O     O_R   0.734430 0.060840 0.061910 -0.600770
O17   O     O_3   0.566930 0.962480 0.995080 -0.289764
V3    V     V_3+5 0.293490 0.006960 0.000910 1.191676
O18   O     O_R   0.904820 0.932150 0.937550 -0.600774
C67   C     C_R   0.073877 0.915597 0.917395 1.017191
O19   O     O_R   0.901050 0.946150 0.046320 -0.602964
C68   C     C_R   0.069163 0.933957 0.062947 0.904224
V4    V     V_3+5 0.793050 0.992940 0.999010 1.180848
O20   O     O_3   0.069480 0.037520 0.004920 -0.247573
N9    N     N_R   0.892907 0.055860 0.856320 0.223884
O21   O     O_R   0.034740 0.067299 0.890167 -0.403595
O22   O     O_R   0.911219 0.013236 0.812901 -0.413260

loop_
_geom_bond_atom_site_label_1
_geom_bond_atom_site_label_2
_geom_bond_distance
_ccdc_geom_bond_type
C45   C46   1.418861 A    
C50   C51   1.408454 A    
C55   H26   1.083671 S    
C10   C17   1.403690 A    
C21   H9    1.082746 S    
C52   C53   1.411278 A    
C29   C34   1.408452 A    
C1    O6    1.299430 A    
O19   C68   1.302321 A    
N8    C42   1.360146 A    
C52   C55   1.403718 A    
C27   N3    1.359808 A    
C57   C62   1.405738 A    
O18   C67   1.299992 A    
O11   C66   1.297262 A    
C16   C17   1.400261 A    
N1    C28   1.359806 A    
C36   H18   1.082816 S    
O12   C65   1.299641 A    
O5    C3    1.298769 A    
C18   C19   1.408041 A    
C29   C30   1.403267 A    
C63   C64   1.408461 A    
O18   V4    1.995429 S    
V2    O10   2.157059 S    
C6    C7    1.408499 A    
C36   C37   1.407764 A    
C64   H29   1.084337 S    
C32   C33   1.401485 A    
C59   C60   1.403727 A    
C24   H11   1.082579 S    
O8    V2    1.978419 S    
C49   H24   1.084357 S    
C7    C8    1.404913 A    
C23   C28   1.493852 S    
N9    O21   1.300196 A    
C11   C12   1.400060 A    
O1    V2    1.995035 S    
O13   V3    1.979506 S    
C20   H6    1.084372 S    
C47   C48   1.405694 A    
O7    V1    2.152751 S    
C4    C19   1.485100 S    
C41   C48   1.491231 S    
N5    N6    1.333152 A    
C37   C42   1.491215 S    
C25   C26   1.407908 A    
C30   H14   1.082681 S    
C9    C10   1.412008 A    
C21   C22   1.401490 A    
C51   C52   1.405014 A    
C5    H1    1.084450 S    
C9    C14   1.414627 A    
O14   C66   1.302715 A    
C49   C54   1.405767 A    
C44   C45   1.407899 A    
C24   C25   1.403261 A    
C30   C31   1.407910 A    
C39   H20   1.082937 S    
C35   H17   1.082948 S    
C58   C59   1.411284 A    
C60   H30   1.083670 S    
C53   C58   1.414516 A    
C12   C13   1.403661 A    
C38   C39   1.400213 A    
O4    C2    1.299606 A    
N6    C41   1.359243 A    
N7    N8    1.334740 A    
C16   H7    1.083709 S    
C13   C14   1.411955 A    
C23   C24   1.408450 A    
N1    N2    1.334351 A    
C18   H5    1.084406 S    
C35   C36   1.402836 A    
C33   C34   1.407348 A    
O2    C1    1.300246 A    
C22   H10   1.082572 S    
O15   V3    1.994794 S    
C32   H15   1.082746 S    
C26   C68   1.493792 S    
C6    C67   1.484673 S    
C61   H31   1.083633 S    
V3    O20   1.704664 S    
C43   H21   1.082794 S    
C8    C11   1.403807 A    
C56   H27   1.083633 S    
C53   C54   1.411805 A    
N4    C28   1.360217 A    
C5    C6    1.408055 A    
C14   C15   1.411296 A    
C2    C63   1.484795 S    
O17   V4    1.706555 S    
C59   C64   1.405049 A    
C12   H4    1.083686 S    
C46   C47   1.405234 A    
C27   C34   1.493851 S    
C22   C23   1.407349 A    
C44   H22   1.082839 S    
O3    C4    1.296683 A    
C39   C40   1.407618 A    
C25   H12   1.082681 S    
C43   C44   1.400850 A    
C62   H28   1.084359 S    
O6    V2    1.977129 S    
C11   H3    1.083718 S    
O9    V2    1.995553 S    
O16   V4    1.999520 S    
C46   N9    1.431066 S    
O2    V1    1.982740 S    
C21   C26   1.408372 A    
C60   C61   1.400104 A    
N2    C27   1.360216 A    
C13   C18   1.405825 A    
N3    N4    1.334358 A    
C15   C20   1.405240 A    
O1    C2    1.296461 A    
C19   C20   1.408686 A    
C38   H19   1.082824 S    
C7    H2    1.084383 S    
O19   V4    1.978421 S    
O5    V1    1.979541 S    
C45   C66   1.493740 S    
O8    C3    1.302325 A    
O15   C67   1.296541 A    
C65   O16   1.296450 A    
C43   C48   1.404958 A    
C62   C63   1.408025 A    
C51   H25   1.084341 S    
C5    C10   1.405989 A    
C56   C57   1.403612 A    
C33   H16   1.082570 S    
V4    O20   2.157051 S    
O7    V2    1.707959 S    
O4    V1    1.994823 S    
O3    V1    1.994766 S    
V1    O10   1.704605 S    
C3    C31   1.493796 S    
C29   H13   1.082578 S    
N5    C42   1.359216 A    
C17   H8    1.083693 S    
C49   C50   1.408027 A    
O14   V3    1.982843 S    
C31   C32   1.408371 A    
C1    C40   1.491501 S    
C54   C61   1.403620 A    
C41   N7    1.360097 A    
C37   C38   1.407172 A    
O11   V4    1.977493 S    
C8    C9    1.411284 A    
N9    O22   1.300927 A    
C55   C56   1.400087 A    
C15   C16   1.403919 A    
O13   C68   1.298773 A    
C57   C58   1.411798 A    
C35   C40   1.408134 A    
C50   C65   1.484775 S    
C47   H23   1.083345 S    
O9    C4    1.300002 A    
O12   V3    1.994919 S    
O17   V3    2.152753 S    
