data_mof_unit_60986.cif
_audit_creation_date              2012-12-10T18:34:40-0500
_audit_creation_method            fapswitch 2.2
_symmetry_space_group_name_H-M    P1
_symmetry_Int_Tables_number       1
_space_group_crystal_system       triclinic
_cell_length_a                    13.005188
_cell_length_b                    15.132249
_cell_length_c                    13.946555
_cell_angle_alpha                 89.566622
_cell_angle_beta                  96.71756
_cell_angle_gamma                 92.324239
_cell_volume                      2723.55465507

loop_
_atom_site_label
_atom_site_type_symbol
_atom_type_description
_atom_site_fract_x
_atom_site_fract_y
_atom_site_fract_z
_atom_type_partial_charge
C1    C     C_R   0.499626 0.330663 0.500386 0.985971
C2    C     C_R   0.494800 0.670438 0.498928 0.883935
C3    C     C_R   0.496560 0.234962 0.501711 -0.278559
C4    C     C_R   0.484683 0.768077 0.497039 -0.392692
C5    C     C_R   0.589167 0.191021 0.524234 0.307456
C6    C     C_R   0.465986 0.813129 0.582084 0.328296
C7    C     C_R   0.585748 0.097757 0.526396 0.335715
C8    C     C_R   0.472330 0.905240 0.585155 0.421834
C9    C     C_R   0.489746 0.050949 0.506428 -0.175643
C10   C     C_R   0.488380 0.954131 0.502176 -0.221048
C11   C     C_R   0.585719 0.532840 0.116545 0.282023
C12   C     C_R   0.459611 0.425833 0.887746 0.280959
C13   C     C_R   0.578256 0.542621 0.215768 0.531938
C14   C     C_R   0.449392 0.432960 0.786366 0.501010
C15   C     C_R   0.422332 0.455697 0.200833 0.498514
C16   C     C_R   0.549539 0.567003 0.796923 0.517257
C17   C     C_R   0.412861 0.465057 0.099621 0.286878
C18   C     C_R   0.537500 0.573947 0.895625 0.286694
C19   C     C_R   0.498673 0.499358 0.054503 -0.245629
C20   C     C_R   0.498174 0.499791 0.945145 -0.229440
C21   C     C_R   0.300892 0.507612 0.481433 0.901034
C22   C     C_R   0.699380 0.493670 0.518881 0.926839
C23   C     C_R   0.812953 0.484612 0.531733 -0.290478
C24   C     C_R   0.187564 0.518132 0.470126 -0.288549
C25   C     C_R   0.020465 0.514073 0.371350 0.431174
C26   C     C_R   0.979741 0.488610 0.631319 0.435979
C27   C     C_R   0.128709 0.522842 0.378572 0.307126
C28   C     C_R   0.871424 0.485157 0.624091 0.296065
C29   C     C_R   0.136508 0.524806 0.553180 0.397891
C30   C     C_R   0.864784 0.474322 0.449698 0.409022
C31   C     C_R   0.029731 0.503832 0.547541 -0.179694
C32   C     C_R   0.971352 0.495975 0.455158 -0.192502
C33   C     C_R   0.396490 0.096372 0.485604 0.397636
C34   C     C_R   0.497929 0.910883 0.414480 0.394914
C35   C     C_R   0.400944 0.188484 0.483583 0.331316
C36   C     C_R   0.495408 0.818486 0.411955 0.373473
Cu1   Cu    Cu3+1 0.500000 0.499990 0.596430 1.127466
Cu2   Cu    Cu3+1 0.500000 0.500010 0.403570 1.136051
N1    N     N_R   0.500000 0.500020 0.258690 -0.332011
N2    N     N_R   0.500000 0.499980 0.741310 -0.330110
O1    O     O_R   0.500010 0.371450 0.581430 -0.540231
O2    O     O_R   0.499990 0.628550 0.418570 -0.525335
O3    O     O_R   0.500010 0.371460 0.418560 -0.552623
O4    O     O_R   0.499990 0.628540 0.581440 -0.548246
O5    O     O_R   0.349000 0.499980 0.568210 -0.532607
O6    O     O_R   0.651000 0.500020 0.431790 -0.528327
O7    O     O_R   0.349000 0.499990 0.405340 -0.522237
O8    O     O_R   0.651000 0.500010 0.594660 -0.527733
Cl1   Cl    Cl    0.802835 0.411024 0.350991 -0.413782
Cl2   Cl    Cl    0.199955 0.584417 0.654148 -0.475930
Cl3   Cl    Cl    0.334530 0.381435 0.249521 -0.350733
Cl4   Cl    Cl    0.633076 0.645878 0.749280 -0.336037
O9    O     O_3   0.319645 0.438633 0.048158 -0.556696
H1    H     H_    0.310940 0.472665 0.987037 0.381664
O10   O     O_3   0.566599 0.653481 0.940769 -0.561609
H2    H     H_    0.525897 0.659876 0.995859 0.376066
Cl5   Cl    Cl    0.813081 0.473910 0.732589 -0.390839
Cl6   Cl    Cl    0.186736 0.552563 0.273524 -0.378678
Cl7   Cl    Cl    0.948606 0.538983 0.258938 -0.285596
Cl8   Cl    Cl    0.049556 0.461301 0.744024 -0.305399
O11   O     O_3   0.300091 0.053873 0.465948 -0.587427
H3    H     H_    0.305656 0.989134 0.472357 0.345164
O12   O     O_3   0.509891 0.955990 0.329351 -0.586337
H4    H     H_    0.511260 0.020613 0.339203 0.349814
Cl9   Cl    Cl    0.284657 0.245469 0.459274 -0.380242
Cl10  Cl    Cl    0.501852 0.770729 0.297474 -0.372910
O13   O     O_3   0.680246 0.241833 0.542659 -0.673765
H5    H     H_    0.739623 0.203721 0.559148 0.402128
O14   O     O_3   0.438370 0.769316 0.662749 -0.574558
H6    H     H_    0.383338 0.724464 0.640263 0.358386
Cl11  Cl    Cl    0.700389 0.038220 0.552146 -0.431995
Cl12  Cl    Cl    0.454727 0.959155 0.693749 -0.342529
O15   O     O_3   0.678697 0.557700 0.083464 -0.552663
H7    H     H_    0.686206 0.522574 0.025260 0.375325
O16   O     O_3   0.430086 0.346125 0.927182 -0.577205
H8    H     H_    0.470534 0.339307 0.991307 0.367122
Cl13  Cl    Cl    0.672996 0.612222 0.280945 -0.341186
Cl14  Cl    Cl    0.366998 0.353940 0.720728 -0.360325

loop_
_geom_bond_atom_site_label_1
_geom_bond_atom_site_label_2
_ccdc_geom_bond_type
C6    O14   S    
C22   O8    A    
O10   H2    S    
C4    C36   A    
O15   H7    S    
C19   C20   S    
C24   C27   A    
C5    O13   S    
O9    H1    S    
C11   C19   A    
Cu2   O2    S    
Cu1   N2    S    
C7    Cl11  S    
Cu2   N1    S    
C36   Cl10  S    
C35   Cl9   S    
C7    C9    A    
C24   C29   A    
C17   C19   A    
C1    O3    A    
C2    O4    A    
C15   Cl3   S    
C9    C10   S    
C18   C20   A    
C25   C32   A    
C26   C31   A    
C9    C33   A    
O11   H3    S    
C21   O5    A    
C29   Cl2   S    
C13   Cl13  S    
C8    Cl12  S    
Cu2   O6    S    
O13   H5    S    
C23   C30   A    
C4    C6    A    
C11   O15   S    
C5    C7    A    
C6    C8    A    
C28   Cl5   S    
C1    C3    S    
C2    C4    S    
O16   H8    S    
Cu1   Cu2   S    
C31   C32   A    
C3    C35   A    
C12   C20   A    
C10   C34   A    
C23   C28   A    
Cu1   O8    S    
C15   N1    A    
Cu2   O7    S    
C18   O10   S    
C16   N2    A    
C1    O1    A    
C22   O6    A    
C30   Cl1   S    
C12   C14   A    
C12   O16   S    
Cu1   O5    S    
C17   O9    S    
C15   C17   A    
C8    C10   A    
C16   Cl4   S    
C3    C5    A    
C27   Cl6   S    
C25   C27   A    
C26   C28   A    
Cu1   O4    S    
Cu2   O3    S    
C29   C31   A    
C30   C32   A    
C11   C13   A    
C2    O2    A    
C33   O11   S    
C34   O12   S    
C33   C35   A    
C34   C36   A    
C14   Cl14  S    
Cu1   O1    S    
O14   H6    S    
C13   N1    A    
C14   N2    A    
O12   H4    S    
C16   C18   A    
C21   C24   S    
C22   C23   S    
C25   Cl7   S    
C26   Cl8   S    
C21   O7    A    
