data_mof_unit_25132.cif
_audit_creation_date              2012-12-11T14:44:01-0500
_audit_creation_method            fapswitch 2.2
_symmetry_space_group_name_H-M    P1
_symmetry_Int_Tables_number       1
_space_group_crystal_system       triclinic
_cell_length_a                    18.897325
_cell_length_b                    10.96846
_cell_length_c                    18.817039
_cell_angle_alpha                 90.129954
_cell_angle_beta                  89.622418
_cell_angle_gamma                 89.931202
_cell_volume                      3900.19574801

loop_
_atom_site_label
_atom_site_type_symbol
_atom_type_description
_atom_site_fract_x
_atom_site_fract_y
_atom_site_fract_z
_atom_type_partial_charge
C1    C     C_R   0.732533 0.383051 0.148644 0.516610
C2    C     C_R   0.267217 0.384875 0.850872 0.500267
C3    C     C_R   0.232533 0.883051 0.148644 0.516610
C4    C     C_R   0.767217 0.884875 0.850872 0.500267
C5    C     C_R   0.524896 0.382881 0.925613 0.204516
C6    C     C_R   0.490410 0.393113 0.071416 0.185308
C7    C     C_R   0.024895 0.882882 0.925614 0.204516
C8    C     C_R   0.990407 0.893112 0.071417 0.185304
C9    C     C_R   0.019918 0.996731 0.960942 0.331188
C10   C     C_R   0.005328 0.001285 0.033685 0.372217
C11   C     C_R   0.519920 0.496730 0.960940 0.331185
C12   C     C_R   0.505331 0.501286 0.033683 0.372211
C13   C     C_R   0.677677 0.930431 0.026236 0.412820
C14   C     C_R   0.317848 0.916411 0.971071 0.417308
C15   C     C_R   0.177677 0.430429 0.026236 0.412820
C16   C     C_R   0.817848 0.416411 0.971071 0.417309
C17   C     C_R   0.680123 0.914729 0.952338 0.204679
C18   C     C_R   0.315862 0.897471 0.044414 0.240694
C19   C     C_R   0.180123 0.414728 0.952338 0.204678
C20   C     C_R   0.815862 0.397470 0.044414 0.240692
C21   C     C_R   0.740977 0.951860 0.914483 -0.150109
C22   C     C_R   0.259224 0.945616 0.084669 -0.152391
C23   C     C_R   0.240978 0.451860 0.914483 -0.150108
C24   C     C_R   0.759224 0.445616 0.084669 -0.152392
C25   C     C_R   0.787185 0.035494 0.947401 0.231776
C26   C     C_R   0.216690 0.037030 0.054531 0.232696
C27   C     C_R   0.287186 0.535493 0.947402 0.231772
C28   C     C_R   0.716690 0.537031 0.054531 0.232697
C29   C     C_R   0.786846 0.045883 0.020717 0.192908
C30   C     C_R   0.218189 0.055352 0.981906 0.179907
C31   C     C_R   0.286846 0.545882 0.020718 0.192906
C32   C     C_R   0.718189 0.555353 0.981906 0.179907
C33   C     C_R   0.732423 0.992490 0.061880 -0.108946
C34   C     C_R   0.268047 0.993315 0.938162 -0.121153
C35   C     C_R   0.232423 0.492488 0.061880 -0.108940
C36   C     C_R   0.768047 0.493315 0.938162 -0.121153
C37   C     C_R   0.489878 0.056324 0.462443 0.260490
C38   C     C_R   0.502287 0.054069 0.534523 0.261107
C39   C     C_R   0.989878 0.556324 0.462443 0.260490
C40   C     C_R   0.002287 0.554069 0.534523 0.261107
C41   C     C_R   0.499341 0.163894 0.574068 -0.133516
C42   C     C_R   0.498535 0.166488 0.424766 -0.133405
C43   C     C_R   0.999341 0.663894 0.574068 -0.133517
C44   C     C_R   0.998535 0.666488 0.424766 -0.133405
C45   C     C_R   0.530908 0.155654 0.146877 0.545725
C46   C     C_R   0.468847 0.155031 0.853347 0.585572
C47   C     C_R   0.030908 0.655653 0.146877 0.545732
C48   C     C_R   0.968847 0.655031 0.853347 0.585571
C49   C     C_R   0.501987 0.276606 0.537411 0.238093
C50   C     C_R   0.500313 0.278019 0.463093 0.242477
C51   C     C_R   0.001986 0.776606 0.537411 0.238093
C52   C     C_R   0.000313 0.778019 0.463093 0.242477
C53   C     C_R   0.811766 0.965587 0.462750 0.314812
C54   C     C_R   0.189883 0.972236 0.536014 0.320819
C55   C     C_R   0.311765 0.465587 0.462750 0.314812
C56   C     C_R   0.689883 0.472236 0.536014 0.320819
C57   C     C_R   0.812198 0.961637 0.535198 -0.127165
C58   C     C_R   0.190356 0.968980 0.463581 -0.125462
C59   C     C_R   0.312198 0.461637 0.535198 -0.127165
C60   C     C_R   0.690356 0.468979 0.463581 -0.125462
C61   C     C_R   0.756985 0.905768 0.572774 -0.070267
C62   C     C_R   0.244148 0.907909 0.426618 -0.075122
C63   C     C_R   0.256985 0.405768 0.572774 -0.070267
C64   C     C_R   0.744148 0.407909 0.426618 -0.075122
C65   C     C_R   0.698989 0.855217 0.536169 0.223939
C66   C     C_R   0.300647 0.853271 0.463760 0.226781
C67   C     C_R   0.198989 0.355217 0.536169 0.223939
C68   C     C_R   0.800647 0.353271 0.463760 0.226780
C69   C     C_R   0.696742 0.865873 0.461960 0.307310
C70   C     C_R   0.302450 0.864079 0.537987 0.311291
C71   C     C_R   0.196742 0.365873 0.461960 0.307309
C72   C     C_R   0.802450 0.364079 0.537987 0.311291
C73   C     C_R   0.752311 0.924424 0.425501 -0.019097
C74   C     C_R   0.247808 0.926215 0.573929 -0.021105
C75   C     C_R   0.252311 0.424424 0.425501 -0.019097
C76   C     C_R   0.747808 0.426215 0.573929 -0.021105
C77   C     C_R   0.728397 0.017198 0.139406 0.567759
C78   C     C_R   0.271744 0.017764 0.860597 0.539579
C79   C     C_R   0.228397 0.517196 0.139406 0.567761
C80   C     C_R   0.771744 0.517764 0.860597 0.539578
C81   C     C_R   0.729355 0.377152 0.353166 0.563538
C82   C     C_R   0.270937 0.376470 0.646578 0.572752
C83   C     C_R   0.229355 0.877152 0.353166 0.563538
C84   C     C_R   0.770937 0.876470 0.646578 0.572752
C85   C     C_R   0.530215 0.157578 0.353064 0.510875
C86   C     C_R   0.469383 0.156942 0.646594 0.518995
C87   C     C_R   0.030215 0.657578 0.353064 0.510876
C88   C     C_R   0.969383 0.656942 0.646594 0.518995
C89   C     C_R   0.741912 0.969982 0.353985 0.582193
C90   C     C_R   0.258102 0.970127 0.645876 0.588136
C91   C     C_R   0.241912 0.469982 0.353985 0.582192
C92   C     C_R   0.758102 0.470127 0.645876 0.588136
C93   C     C_R   0.497726 0.161663 0.925947 -0.044554
C94   C     C_R   0.499870 0.165119 0.075270 -0.096465
C95   C     C_R   0.997726 0.661664 0.925947 -0.044555
C96   C     C_R   0.999869 0.665119 0.075271 -0.096461
C97   C     C_R   0.506413 0.274591 0.962095 -0.091480
C98   C     C_R   0.498241 0.277734 0.037201 -0.151728
C99   C     C_R   0.006412 0.774591 0.962096 -0.091481
C100  C     C_R   0.998240 0.777733 0.037201 -0.151725
C101  C     C_R   0.493876 0.055325 0.037894 0.416609
C102  C     C_R   0.495294 0.053251 0.965330 0.415763
C103  C     C_R   0.993876 0.555324 0.037894 0.416607
C104  C     C_R   0.995294 0.553251 0.965330 0.415763
Cr1   Cr    Cr6+3 0.772000 0.169640 0.250110 1.125713
Cr2   Cr    Cr6+3 0.228000 0.169640 0.749890 1.099313
Cr3   Cr    Cr6+3 0.272000 0.669640 0.250110 1.125715
Cr4   Cr    Cr6+3 0.728000 0.669640 0.749890 1.099312
Cr5   Cr    Cr6+3 0.614960 0.323350 0.249260 1.096831
Cr6   Cr    Cr6+3 0.385040 0.323350 0.750740 1.088277
Cr7   Cr    Cr6+3 0.114960 0.823350 0.249260 1.096830
Cr8   Cr    Cr6+3 0.885040 0.823350 0.750740 1.088278
Cr9   Cr    Cr6+3 0.616670 0.010620 0.250840 1.175510
Cr10  Cr    Cr6+3 0.383330 0.010620 0.749160 1.174794
Cr11  Cr    Cr6+3 0.116670 0.510620 0.250840 1.175509
Cr12  Cr    Cr6+3 0.883330 0.510620 0.749160 1.174794
H1    H     H_    0.858496 0.998047 0.561437 0.246203
H2    H     H_    0.145452 0.009272 0.436823 0.246552
H3    H     H_    0.358496 0.498047 0.561437 0.246203
H4    H     H_    0.645452 0.509272 0.436823 0.246552
O1    O     O_R   0.787540 0.042690 0.170470 -0.496739
O2    O     O_R   0.212460 0.042690 0.829530 -0.517271
O3    O     O_R   0.287540 0.542690 0.170470 -0.496728
O4    O     O_R   0.712460 0.542690 0.829530 -0.517271
O5    O     O_R   0.556540 0.252920 0.323970 -0.490652
O6    O     O_R   0.443460 0.252920 0.676030 -0.486645
O7    O     O_R   0.056540 0.752920 0.323970 -0.490652
O8    O     O_R   0.943460 0.752920 0.676030 -0.486645
O9    O     O_R   0.545870 0.051100 0.330840 -0.459269
O10   O     O_R   0.454130 0.051100 0.669160 -0.464352
O11   O     O_R   0.045870 0.551100 0.330840 -0.459269
O12   O     O_R   0.954130 0.551100 0.669160 -0.464352
O13   O     O_R   0.681340 0.959300 0.325510 -0.441628
O14   O     O_R   0.318660 0.959300 0.674490 -0.438677
O15   O     O_R   0.181340 0.459300 0.325510 -0.441628
O16   O     O_R   0.818660 0.459300 0.674490 -0.438677
O17   O     O_3   0.667880 0.167870 0.250070 -0.326518
O18   O     O_3   0.332120 0.167870 0.749930 -0.327626
O19   O     O_3   0.167880 0.667870 0.250070 -0.326519
O20   O     O_3   0.832120 0.667870 0.749930 -0.327626
O21   O     O_R   0.765660 0.292160 0.175050 -0.500696
O22   O     O_R   0.234340 0.292160 0.824950 -0.543813
O23   O     O_R   0.265660 0.792160 0.175050 -0.500694
O24   O     O_R   0.734340 0.792160 0.824950 -0.543813
O25   O     O_R   0.670190 0.408980 0.168550 -0.476400
O26   O     O_R   0.329810 0.408980 0.831450 -0.481534
O27   O     O_R   0.170190 0.908980 0.168550 -0.476403
O28   O     O_R   0.829810 0.908980 0.831450 -0.481533
O29   O     O_R   0.556580 0.251450 0.175160 -0.468224
O30   O     O_R   0.443420 0.251450 0.824840 -0.459666
O31   O     O_R   0.056580 0.751450 0.175160 -0.468224
O32   O     O_R   0.943420 0.751450 0.824840 -0.459665
O33   O     O_R   0.545920 0.049510 0.170320 -0.419521
O34   O     O_R   0.454080 0.049510 0.829680 -0.438415
O35   O     O_R   0.045920 0.549510 0.170320 -0.419523
O36   O     O_R   0.954080 0.549510 0.829680 -0.438415
O37   O     O_R   0.681390 0.957840 0.176710 -0.435563
O38   O     O_R   0.318610 0.957840 0.823290 -0.420913
O39   O     O_R   0.181390 0.457840 0.176710 -0.435567
O40   O     O_R   0.818610 0.457840 0.823290 -0.420913
O41   O     O_R   0.787500 0.044280 0.330990 -0.425749
O42   O     O_R   0.212500 0.044280 0.669010 -0.427237
O43   O     O_R   0.287500 0.544280 0.330990 -0.425750
O44   O     O_R   0.712500 0.544280 0.669010 -0.427238
O45   O     O_R   0.765610 0.293630 0.323860 -0.438288
O46   O     O_R   0.234390 0.293630 0.676140 -0.432127
O47   O     O_R   0.265610 0.793630 0.323860 -0.438289
O48   O     O_R   0.734390 0.793630 0.676140 -0.432127
O49   O     O_R   0.670140 0.410570 0.329080 -0.511277
O50   O     O_R   0.329860 0.410570 0.670920 -0.512089
O51   O     O_R   0.170140 0.910570 0.329080 -0.511277
O52   O     O_R   0.829860 0.910570 0.670920 -0.512089
F1    F     F_    0.490309 0.946283 0.071528 -0.469640
F2    F     F_    0.492911 0.941971 0.933866 -0.440111
F3    F     F_    0.990309 0.446283 0.071528 -0.469639
F4    F     F_    0.992911 0.441970 0.933865 -0.440111
F5    F     F_    0.868749 0.016051 0.429820 -0.561802
F6    F     F_    0.133453 0.026217 0.568285 -0.552381
F7    F     F_    0.368749 0.516051 0.429820 -0.561803
F8    F     F_    0.633453 0.526217 0.568285 -0.552381
O53   O     O_3   0.646164 0.795893 0.573613 -0.605492
H5    H     H_    0.610834 0.762404 0.540222 0.436653
O54   O     O_3   0.352232 0.789298 0.426871 -0.594423
H6    H     H_    0.386721 0.754218 0.460559 0.438408
O55   O     O_3   0.146164 0.295893 0.573613 -0.605492
H7    H     H_    0.110834 0.262403 0.540222 0.436653
O56   O     O_3   0.852232 0.289297 0.426871 -0.594423
H8    H     H_    0.886721 0.254218 0.460559 0.438408
F9    F     F_    0.640012 0.822045 0.425942 -0.576011
F10   F     F_    0.357578 0.816004 0.574644 -0.574324
F11   F     F_    0.140012 0.322045 0.425942 -0.576011
F12   F     F_    0.857578 0.316004 0.574644 -0.574324
O57   O     O_3   0.554136 0.373558 0.858238 -0.683498
H9    H     H_    0.583987 0.445837 0.848718 0.352533
O58   O     O_3   0.461018 0.404364 0.138586 -0.701776
H10   H     H_    0.431281 0.331767 0.148164 0.326051
O59   O     O_3   0.054135 0.873560 0.858239 -0.683498
H11   H     H_    0.083986 0.945839 0.848720 0.352533
O60   O     O_3   0.961013 0.904361 0.138586 -0.701808
H12   H     H_    0.931277 0.831775 0.148162 0.326073
O61   O     O_3   0.026133 0.106203 0.925334 -0.479281
H13   H     H_    0.013360 0.093536 0.874884 0.337083
O62   O     O_3   0.002960 0.114902 0.065652 -0.456289
H14   H     H_    0.998546 0.105536 0.117810 0.372630
O63   O     O_3   0.526135 0.606202 0.925332 -0.479284
H15   H     H_    0.513362 0.593535 0.874883 0.337081
O64   O     O_3   0.502963 0.614903 0.065650 -0.456288
H16   H     H_    0.498547 0.605539 0.117808 0.372632
F13   F     F_    0.622610 0.881714 0.062803 -0.453985
F14   F     F_    0.367534 0.856166 0.932355 -0.456691
F15   F     F_    0.122610 0.381712 0.062803 -0.453985
F16   F     F_    0.867534 0.356166 0.932354 -0.456690
O65   O     O_3   0.622615 0.863069 0.919285 -0.502767
H17   H     H_    0.624400 0.884219 0.868134 0.337504
O66   O     O_3   0.369866 0.831892 0.074709 -0.463898
H18   H     H_    0.374453 0.857774 0.124948 0.344968
O67   O     O_3   0.122615 0.363069 0.919284 -0.502769
H19   H     H_    0.124400 0.384221 0.868134 0.337504
O68   O     O_3   0.869866 0.331891 0.074709 -0.463897
H20   H     H_    0.874453 0.357774 0.124948 0.344968
O69   O     O_3   0.837055 0.101709 0.910048 -0.536118
H21   H     H_    0.817335 0.119483 0.862451 0.345975
O70   O     O_3   0.171734 0.109535 0.094576 -0.541165
H22   H     H_    0.192684 0.119614 0.142418 0.330311
O71   O     O_3   0.337056 0.601707 0.910049 -0.536121
H23   H     H_    0.317337 0.619483 0.862453 0.345977
O72   O     O_3   0.671735 0.609535 0.094576 -0.541164
H24   H     H_    0.692685 0.619614 0.142418 0.330311
O73   O     O_3   0.841693 0.107827 0.050879 -0.524548
H25   H     H_    0.869055 0.045946 0.077125 0.359512
O74   O     O_3   0.168857 0.134472 0.956015 -0.527899
H26   H     H_    0.192633 0.181449 0.918998 0.360848
O75   O     O_3   0.341692 0.607827 0.050881 -0.524554
H27   H     H_    0.369058 0.545945 0.077120 0.359510
O76   O     O_3   0.668858 0.634473 0.956015 -0.527898
H28   H     H_    0.692634 0.681449 0.918998 0.360848
O77   O     O_3   0.475351 0.946834 0.429466 -0.540032
H29   H     H_    0.445197 0.964484 0.387757 0.338345
O78   O     O_3   0.512330 0.941492 0.565367 -0.536096
H30   H     H_    0.545289 0.952836 0.605644 0.346108
O79   O     O_3   0.975351 0.446834 0.429466 -0.540032
H31   H     H_    0.945197 0.464484 0.387757 0.338345
O80   O     O_3   0.012330 0.441492 0.565367 -0.536095
H32   H     H_    0.045289 0.452836 0.605644 0.346108
O81   O     O_3   0.505466 0.387180 0.572263 -0.547952
H33   H     H_    0.530533 0.374528 0.617752 0.356498
O82   O     O_3   0.501808 0.389980 0.429910 -0.547663
H34   H     H_    0.476051 0.382482 0.384416 0.362580
O83   O     O_3   0.005466 0.887180 0.572263 -0.547952
H35   H     H_    0.030533 0.874529 0.617752 0.356498
O84   O     O_3   0.001808 0.889980 0.429910 -0.547663
H36   H     H_    0.976051 0.882482 0.384416 0.362580

loop_
_geom_bond_atom_site_label_1
_geom_bond_atom_site_label_2
_ccdc_geom_bond_type
C58   C62   A    
C71   C75   A    
C66   O54   S    
C82   O50   A    
C3    O27   A    
C101  C102  A    
C56   C76   A    
C48   C95   S    
C55   C59   A    
C86   O6    A    
O61   H13   S    
C14   C18   A    
C101  F1    S    
O78   H30   S    
C42   C50   A    
Cr3   O3    S    
C62   C83   S    
C43   C51   A    
C49   C50   A    
C87   O7    A    
C97   C98   A    
Cr7   O19   S    
O84   H36   S    
C104  F4    S    
Cr11  O11   S    
O63   H15   S    
C15   C19   A    
C41   C86   S    
Cr4   O44   S    
O83   H35   S    
C37   C38   A    
C57   C61   A    
C7    C99   A    
C90   O42   A    
C43   C88   S    
Cr2   O46   S    
C57   H1    S    
C1    O21   A    
Cr12  O40   S    
C79   O39   A    
C90   O14   A    
C95   C99   A    
C80   O40   A    
C94   C98   A    
O80   H32   S    
C4    O28   A    
C29   C33   A    
C58   H2    S    
Cr2   O18   S    
Cr5   O17   S    
O79   H31   S    
C87   O11   A    
C37   C42   A    
C15   C35   A    
Cr8   O20   S    
C53   C73   A    
Cr10  O38   S    
C15   F15   S    
C103  C104  A    
C85   O9    A    
C38   O78   S    
C54   C74   A    
C85   O5    A    
C78   O38   A    
C40   C43   A    
C20   C24   A    
C68   O56   S    
Cr8   O28   S    
C29   O73   S    
C83   O51   A    
C70   C74   A    
C59   H3    S    
O76   H28   S    
Cr8   O32   S    
C25   O69   S    
C19   O67   S    
C81   O49   A    
C44   C87   S    
C10   O62   S    
C3    C22   S    
C45   O29   A    
C89   O41   A    
C2    O26   A    
C75   C91   S    
C40   O80   S    
Cr6   O26   S    
C55   C75   A    
C44   C52   A    
Cr10  O18   S    
Cr4   O48   S    
O60   H12   S    
Cr9   O13   S    
O77   H29   S    
O74   H26   S    
Cr10  O10   S    
C91   O43   A    
C92   O16   A    
Cr4   O4    S    
C17   O65   S    
C45   C94   S    
C28   O72   S    
C41   C49   A    
C6    O58   S    
O73   H25   S    
Cr5   O49   S    
Cr2   O22   S    
C63   C67   A    
C25   C29   A    
C46   O34   A    
Cr3   O47   S    
C89   O13   A    
C30   C34   A    
C63   C82   S    
C27   C31   A    
O64   H16   S    
C6    C98   A    
C12   O64   S    
C13   F13   S    
C16   F16   S    
C62   C66   A    
C3    O23   A    
C94   C101  A    
C38   C41   A    
C39   O79   S    
C36   C80   S    
C47   C96   S    
C69   F9    S    
C39   C40   A    
Cr4   O20   S    
C14   F14   S    
C86   O10   A    
C65   O53   S    
C84   O52   A    
O67   H19   S    
O53   H5    S    
C83   O47   A    
Cr9   O33   S    
C17   C21   A    
O70   H22   S    
C56   C60   A    
Cr11  O39   S    
C68   C72   A    
C30   O74   S    
C7    O59   S    
C19   C23   A    
O54   H6    S    
Cr9   O17   S    
C13   C33   A    
O69   H21   S    
C84   O48   A    
Cr7   O27   S    
C79   O3    A    
C31   O75   S    
C93   C97   A    
C37   O77   S    
O72   H24   S    
Cr12  O12   S    
C28   C32   A    
Cr5   O29   S    
C16   C20   A    
Cr12  O36   S    
C72   F12   S    
C7    C9    A    
Cr2   O2    S    
C103  F3    S    
O71   H23   S    
Cr10  O14   S    
Cr1   O1    S    
C72   C76   A    
C56   F8    S    
C4    O24   A    
C69   C73   A    
Cr8   O52   S    
C2    O22   A    
O65   H17   S    
Cr9   O9    S    
C76   C92   S    
Cr12  O16   S    
Cr6   O50   S    
Cr6   O18   S    
Cr5   O5    S    
C46   O30   A    
Cr4   O24   S    
Cr6   O6    S    
C26   C30   A    
C23   C27   A    
C48   O32   A    
Cr7   O7    S    
O75   H27   S    
C54   C58   A    
C20   O68   S    
Cr1   O41   S    
Cr7   O51   S    
C45   O33   A    
C1    O25   A    
C88   O12   A    
Cr3   O23   S    
C50   O82   S    
C64   C68   A    
C2    C23   S    
C95   C104  A    
C70   F10   S    
C5    O57   S    
C9    C10   A    
O68   H20   S    
C21   C25   A    
C53   C57   A    
Cr11  O35   S    
C18   C22   A    
C55   F7    S    
Cr5   O25   S    
C24   C28   A    
Cr11  O19   S    
Cr6   O30   S    
C61   C84   S    
Cr7   O31   S    
C93   C102  A    
C14   C34   A    
C61   C65   A    
C11   C12   A    
C32   C36   A    
C5    C11   A    
C39   C44   A    
C80   O4    A    
C102  F2    S    
C59   C63   A    
C99   C100  A    
C13   C17   A    
C60   C64   A    
C82   O46   A    
Cr9   O37   S    
C74   C90   S    
Cr1   O21   S    
C92   O44   A    
C8    C100  A    
C73   C89   S    
C51   C52   A    
C88   O8    A    
C71   F11   S    
C16   C36   A    
C6    C12   A    
C4    C21   S    
C33   C77   S    
O55   H7    S    
C66   C70   A    
C46   C93   S    
Cr11  O15   S    
C78   O2    A    
C65   C69   A    
C96   C100  A    
C31   C35   A    
C35   C79   S    
Cr1   O45   S    
C32   O76   S    
C60   H4    S    
C67   C71   A    
Cr2   O42   S    
O66   H18   S    
Cr3   O19   S    
O59   H11   S    
C51   O83   S    
C52   O84   S    
C49   O81   S    
C64   C81   S    
Cr8   O8    S    
C18   O66   S    
C77   O1    A    
C47   O31   A    
Cr1   O17   S    
O58   H10   S    
C54   F6    S    
C5    C97   A    
O56   H8    S    
C91   O15   A    
C9    O61   S    
C1    C24   S    
C8    C10   A    
O57   H9    S    
C22   C26   A    
C96   C103  A    
C26   O70   S    
C48   O36   A    
C81   O45   A    
C53   F5    S    
C8    O60   S    
Cr3   O43   S    
C11   O63   S    
O62   H14   S    
Cr12  O20   S    
O81   H33   S    
Cr10  O34   S    
C34   C78   S    
C27   O71   S    
C67   O55   S    
O82   H34   S    
C77   O37   A    
C47   O35   A    
C42   C85   S    
