data_mof_unit_57455.cif
_audit_creation_date              2012-12-11T15:52:35-0500
_audit_creation_method            fapswitch 2.2
_symmetry_space_group_name_H-M    P1
_symmetry_Int_Tables_number       1
_space_group_crystal_system       triclinic
_cell_length_a                    6.924681
_cell_length_b                    14.552867
_cell_length_c                    16.033472
_cell_angle_alpha                 90.205948
_cell_angle_beta                  89.805772
_cell_angle_gamma                 89.84051
_cell_volume                      1615.73045526

loop_
_atom_site_label
_atom_site_type_symbol
_atom_type_description
_atom_site_fract_x
_atom_site_fract_y
_atom_site_fract_z
_atom_type_partial_charge
O1    O     O_R   0.494400 0.415640 0.412830 -0.538162
O2    O     O_R   0.823920 0.405510 0.586560 -0.532204
O3    O     O_R   0.994250 0.584360 0.587170 -0.542149
C1    C     C_R   0.654835 0.383245 0.615432 0.719840
O4    O     O_R   0.824110 0.404610 0.413450 -0.506944
O5    O     O_R   0.994440 0.583460 0.412820 -0.545330
C2    C     C_R   0.655836 0.381060 0.385265 0.767980
O6    O     O_R   0.494210 0.416540 0.587180 -0.546390
O7    O     O_3   0.660810 0.558680 0.500000 -0.387892
V1    V     V_3+5 0.935650 0.489110 0.500000 1.511182
O8    O     O_R   0.324150 0.594490 0.413440 -0.549142
C3    C     C_R   0.155138 0.616637 0.384331 0.680035
O9    O     O_R   0.323970 0.595390 0.586550 -0.549479
C4    C     C_R   0.154692 0.617577 0.615688 0.661487
V2    V     V_3+5 0.435660 0.510890 0.500000 1.434586
O10   O     O_3   0.160630 0.441320 0.500000 -0.343990
C5    C     C_3   0.084461 0.640277 0.771323 -0.116301
H1    H     H_    0.202998 0.591958 0.788443 0.137716
C6    C     C_3   0.066447 0.713468 0.842433 -0.370342
H2    H     H_    0.162421 0.693674 0.894986 0.133873
H3    H     H_    0.916860 0.716141 0.868150 0.134144
H4    H     H_    0.849508 0.735895 0.655273 0.132964
H5    H     H_    0.832625 0.839829 0.762201 0.138563
C7    C     C_3   0.995441 0.764929 0.666582 -0.331983
C8    C     C_3   0.341511 0.734290 0.701068 -0.334853
C9    C     C_3   0.142582 0.687171 0.686952 0.043576
H6    H     H_    0.388315 0.770030 0.643187 0.144132
H7    H     H_    0.453322 0.681773 0.715448 0.134859
C10   C     C_3   0.123057 0.810265 0.810624 0.106806
C11   C     C_3   0.983866 0.836304 0.738632 -0.324756
C12   C     C_3   0.331052 0.804291 0.773716 -0.313114
H8    H     H_    0.434793 0.783271 0.823053 0.141903
H9    H     H_    0.376908 0.873018 0.750858 0.132942
H10   H     H_    0.039532 0.800142 0.608068 0.137257
H11   H     H_    0.021065 0.905632 0.714432 0.130760
C13   C     C_R   0.953195 0.773738 0.215980 -0.148097
H12   H     H_    0.812331 0.792020 0.191976 0.115038
C14   C     C_R   0.964284 0.710575 0.281549 -0.141851
H13   H     H_    0.831395 0.682002 0.305841 0.115899
C15   C     C_R   0.144013 0.684597 0.315117 -0.045700
C16   C     C_R   0.312336 0.723576 0.281171 -0.149078
H14   H     H_    0.453199 0.705292 0.305174 0.114428
C17   C     C_R   0.301246 0.786742 0.215604 -0.141679
H15   H     H_    0.434135 0.815315 0.191312 0.116148
C18   C     C_R   0.121516 0.812725 0.182040 -0.046731
C19   C     C_R   0.812315 0.274184 0.716078 -0.085763
H16   H     H_    0.953113 0.292531 0.691853 0.125319
C20   C     C_R   0.801426 0.209509 0.780291 -0.143966
H17   H     H_    0.934333 0.179895 0.803494 0.119093
C21   C     C_R   0.621739 0.183385 0.813886 -0.049167
C22   C     C_R   0.453255 0.223773 0.781565 -0.138083
H18   H     H_    0.312460 0.205484 0.805829 0.124828
C23   C     C_R   0.464151 0.288474 0.717369 -0.142834
H19   H     H_    0.331254 0.318142 0.694206 0.129860
C24   C     C_R   0.643816 0.314461 0.683671 -0.032093
C25   C     C_R   0.797406 0.248525 0.299596 0.414476
C26   C     C_R   0.782100 0.186709 0.232772 -0.187063
H20   H     H_    0.898602 0.138134 0.222201 0.188474
C27   C     C_R   0.618531 0.185301 0.181043 -0.205128
C28   C     C_R   0.467875 0.248911 0.197654 0.416758
C29   C     C_R   0.483176 0.310729 0.264481 -0.185918
H21   H     H_    0.366680 0.359306 0.275054 0.189534
C30   C     C_R   0.646753 0.312137 0.316208 -0.202603
O11   O     O_R   0.771300 0.080930 0.910090 -0.542870
O12   O     O_R   0.441270 0.092800 0.083770 -0.505195
O13   O     O_R   0.271080 0.913920 0.084380 -0.543674
C31   C     C_R   0.609509 0.116383 0.111980 0.778753
O14   O     O_R   0.441580 0.091910 0.910670 -0.541298
O15   O     O_R   0.271390 0.913020 0.910040 -0.548527
C32   C     C_R   0.610688 0.114345 0.881928 0.692076
O16   O     O_R   0.770990 0.081830 0.084440 -0.535935
O17   O     O_3   0.604750 0.938760 0.997250 -0.385084
V3    V     V_3+5 0.329850 0.008280 0.997210 1.486407
O18   O     O_R   0.941680 0.901940 0.910610 -0.548977
C33   C     C_R   0.111107 0.880349 0.881128 0.646297
O19   O     O_R   0.941370 0.902830 0.083720 -0.547829
C34   C     C_R   0.110386 0.880704 0.112841 0.686312
V4    V     V_3+5 0.829860 0.986420 0.997150 1.429223
O20   O     O_3   0.104830 0.056030 0.997180 -0.341889
C35   C     C_2   0.900803 0.584869 0.765165 0.379748
H22   H     H_    0.764621 0.618534 0.751889 0.031893
O21   O     O_2   0.903788 0.501841 0.775697 -0.536129
Cl1   Cl    Cl    0.005515 0.239466 0.362172 -0.644512
Cl2   Cl    Cl    0.259790 0.257966 0.135064 -0.624463

loop_
_geom_bond_atom_site_label_1
_geom_bond_atom_site_label_2
_ccdc_geom_bond_type
C8    C12   S    
C16   H14   S    
C6    H2    S    
C1    O6    A    
C23   H19   S    
C8    H7    S    
C11   H11   S    
C5    C9    S    
C13   H12   S    
C6    H3    S    
O19   V4    S    
O5    C3    A    
C14   H13   S    
C26   C27   A    
V2    O10   S    
O12   V3    S    
C25   C26   A    
C29   C30   A    
O17   V4    S    
C27   C31   S    
O8    V2    S    
O12   C31   A    
C19   C24   A    
C12   H9    S    
O15   V3    S    
O1    V2    S    
O11   C32   A    
O7    V1    S    
C20   C21   A    
C27   C28   A    
O9    C4    A    
C16   C17   A    
C8    C9    S    
C21   C22   A    
C23   C24   A    
C19   C20   A    
O18   C33   A    
C22   H18   S    
H5    C11   S    
O19   C34   A    
C35   O21   D    
O4    C2    A    
V4    O20   S    
C35   H22   S    
O14   V3    S    
O13   V3    S    
C5    C35   S    
C7    H10   S    
C28   C29   A    
C22   C23   A    
C3    C15   S    
O2    C1    A    
C17   H15   S    
C10   C11   S    
C12   H8    S    
C5    H1    S    
V3    O20   S    
C25   C30   A    
C13   C18   A    
C4    C9    S    
C17   C18   A    
C2    C30   S    
O3    C4    A    
C20   H17   S    
O6    V2    S    
O9    V2    S    
C1    C24   S    
H4    C7    S    
O2    V1    S    
C25   Cl1   S    
O13   C34   A    
C19   H16   S    
C15   C16   A    
O1    C2    A    
O11   V4    S    
C7    C9    S    
O17   V3    S    
O5    V1    S    
O8    C3    A    
C10   C33   S    
C8    H6    S    
C13   C14   A    
O7    V2    S    
O4    V1    S    
C10   C12   S    
O3    V1    S    
V1    O10   S    
C14   C15   A    
C28   Cl2   S    
C26   H20   S    
C5    C6    S    
O15   C33   A    
C31   O16   A    
C21   C32   S    
C29   H21   S    
C7    C11   S    
O14   C32   A    
O18   V4    S    
C18   C34   S    
O16   V4    S    
C6    C10   S    
