data_mof_unit_8410.cif
_audit_creation_date              2012-12-10T17:55:04-0500
_audit_creation_method            fapswitch 2.2
_symmetry_space_group_name_H-M    P1
_symmetry_Int_Tables_number       1
_space_group_crystal_system       triclinic
_cell_length_a                    8.911851
_cell_length_b                    10.952991
_cell_length_c                    9.590733
_cell_angle_alpha                 88.826344
_cell_angle_beta                  97.614582
_cell_angle_gamma                 92.185457
_cell_volume                      927.122403854

loop_
_atom_site_label
_atom_site_type_symbol
_atom_type_description
_atom_site_fract_x
_atom_site_fract_y
_atom_site_fract_z
_atom_type_partial_charge
C1    C     C_R   0.511347 0.262441 0.503201 0.825460
C2    C     C_R   0.487464 0.737187 0.496974 0.837064
C3    C     C_R   0.204926 0.501445 0.464637 0.849249
C4    C     C_R   0.795011 0.498349 0.535543 0.840250
C5    C     C_2   0.040625 0.494161 0.445255 -0.273266
C6    C     C_2   0.959298 0.505126 0.555896 -0.279288
C7    C     C_R   0.543858 0.064850 0.386030 -0.084178
C8    C     C_R   0.451740 0.933079 0.615272 -0.078468
C9    C     C_R   0.501699 0.940615 0.372244 -0.075047
C10   C     C_R   0.486391 0.058518 0.628283 -0.074825
C11   C     C_R   0.474214 0.871854 0.492672 -0.162183
C12   C     C_R   0.521298 0.127276 0.508727 -0.172098
C13   C     C_R   0.400205 0.425871 0.063279 0.397476
C14   C     C_R   0.600189 0.573854 0.936815 0.402074
C15   C     C_R   0.400261 0.426248 0.915162 0.324615
C16   C     C_R   0.597979 0.575508 0.084648 0.330696
Cu1   Cu    Cu3+1 0.500000 0.500020 0.640660 1.113308
Cu2   Cu    Cu3+1 0.500000 0.499980 0.359340 1.108975
N1    N     N_R   0.500040 0.500030 0.852080 -0.292640
N2    N     N_R   0.499960 0.499970 0.147920 -0.295885
O1    O     O_R   0.499990 0.319660 0.618740 -0.541340
O2    O     O_R   0.500010 0.680340 0.381260 -0.543138
O3    O     O_R   0.499990 0.319630 0.381170 -0.530154
O4    O     O_R   0.500010 0.680370 0.618830 -0.548839
O5    O     O_R   0.274840 0.500010 0.591370 -0.549744
O6    O     O_R   0.725160 0.499990 0.408630 -0.552601
O7    O     O_R   0.274830 0.499980 0.353800 -0.528590
O8    O     O_R   0.725170 0.500020 0.646200 -0.525721
C17   C     C_2   0.972483 0.461232 0.299908 1.004863
O9    O     O_2   0.998730 0.526308 0.200148 -0.484911
O10   O     O_R   0.887601 0.352211 0.276584 -0.704557
H1    H     H_    0.853793 0.338678 0.172816 0.350414
C18   C     C_2   0.026486 0.535035 0.702754 1.018334
O11   O     O_2   0.992556 0.471515 0.801093 -0.479289
O12   O     O_R   0.118804 0.639677 0.729490 -0.698605
H2    H     H_    0.153727 0.650274 0.833662 0.337543
C19   C     C_2   0.635555 0.121924 0.283173 0.975090
O13   O     O_2   0.772224 0.108128 0.298431 -0.490226
O14   O     O_R   0.566229 0.186000 0.166740 -0.730953
H3    H     H_    0.640342 0.216155 0.101225 0.342731
C20   C     C_2   0.371021 0.869902 0.721957 0.971725
O15   O     O_2   0.232696 0.866043 0.705742 -0.495953
O16   O     O_R   0.452248 0.821292 0.843185 -0.668990
H4    H     H_    0.384644 0.773772 0.903182 0.308790
C21   C     C_2   0.453434 0.890935 0.229554 0.949897
O17   O     O_2   0.527276 0.913461 0.132881 -0.509239
O18   O     O_R   0.317228 0.822014 0.205741 -0.703995
H5    H     H_    0.291218 0.794880 0.105069 0.339010
C22   C     C_2   0.500189 0.110738 0.771665 0.971482
O19   O     O_2   0.614647 0.169691 0.817940 -0.544633
O20   O     O_R   0.386674 0.085370 0.856812 -0.675366
H6    H     H_    0.410338 0.121071 0.953719 0.397992
Cl1   Cl    Cl    0.268763 0.327680 0.136275 -0.422428
Cl2   Cl    Cl    0.733447 0.670521 0.864188 -0.392259
Cl3   Cl    Cl    0.270190 0.329284 0.812872 -0.462538
Cl4   Cl    Cl    0.719891 0.680084 0.185470 -0.425093

loop_
_geom_bond_atom_site_label_1
_geom_bond_atom_site_label_2
_ccdc_geom_bond_type
C2    O2    A    
C4    O6    A    
O16   H4    S    
C16   Cl4   S    
C9    C21   S    
C17   O9    D    
Cu2   O3    S    
C10   C22   S    
C9    C11   A    
C20   O15   D    
Cu2   N2    S    
O12   H2    S    
Cu2   O6    S    
C6    C18   S    
C16   N2    A    
Cu1   O5    S    
C1    O3    A    
C3    O7    A    
Cu1   Cu2   S    
C7    C19   S    
C17   O10   S    
Cu2   O2    S    
C21   O17   D    
C1    O1    A    
C20   O16   S    
C19   O13   D    
C1    C12   S    
C10   C12   A    
C8    C11   A    
C2    C11   S    
C8    C10   A    
Cu1   N1    S    
C18   O11   D    
C13   Cl1   S    
C13   C15   A    
C2    O4    A    
C5    C6    D    
C14   C16   A    
C7    C12   A    
Cu1   O4    S    
O20   H6    S    
C14   Cl2   S    
C5    C17   S    
C7    C9    A    
C3    O5    A    
C8    C20   S    
C19   O14   S    
C4    C6    S    
C4    O8    A    
C21   O18   S    
O14   H3    S    
C22   O19   D    
C22   O20   S    
C13   N2    A    
C18   O12   S    
C15   N1    A    
Cu1   O8    S    
C14   N1    A    
O10   H1    S    
Cu1   O1    S    
Cu2   O7    S    
O18   H5    S    
C3    C5    S    
C15   Cl3   S    
