data_mof_unit_5591.cif
_audit_creation_date              2012-12-10T17:19:38-0500
_audit_creation_method            fapswitch 2.2
_symmetry_space_group_name_H-M    P1
_symmetry_Int_Tables_number       1
_space_group_crystal_system       triclinic
_cell_length_a                    10.431207
_cell_length_b                    10.881713
_cell_length_c                    11.506713
_cell_angle_alpha                 91.430522
_cell_angle_beta                  81.672028
_cell_angle_gamma                 94.18958
_cell_volume                      1288.75696504

loop_
_atom_site_label
_atom_site_type_symbol
_atom_type_description
_atom_site_fract_x
_atom_site_fract_y
_atom_site_fract_z
_atom_type_partial_charge
C1    C     C_R   0.554546 0.730783 0.490560 0.871917
C2    C     C_R   0.445453 0.269217 0.509433 0.871927
C3    C     C_R   0.499640 0.499408 0.717294 0.896540
C4    C     C_R   0.500361 0.500593 0.282706 0.896524
C5    C     C_1   0.498489 0.498727 0.838213 -0.171038
C6    C     C_1   0.501515 0.501276 0.161787 -0.171028
C7    C     C_1   0.498871 0.499272 0.940654 -0.036296
C8    C     C_1   0.501135 0.500732 0.059345 -0.036291
C9    C     C_2   0.585901 0.860221 0.471200 -0.172725
C10   C     C_2   0.414095 0.139778 0.528774 -0.172727
C11   C     C_2   0.496805 0.936365 0.516924 -0.209262
C12   C     C_2   0.503184 0.063634 0.483031 -0.209283
C13   C     C_2   0.926669 0.505134 0.514144 -0.067469
C14   C     C_2   0.073329 0.494884 0.485848 -0.067468
H1    H     H_    0.586525 0.098801 0.422097 0.187553
H2    H     H_    0.413461 0.901199 0.577854 0.187558
N1    N     N_2   0.842700 0.448890 0.453570 -0.173179
N2    N     N_2   0.157300 0.551110 0.546430 -0.173177
O1    O     O_R   0.431060 0.692470 0.509350 -0.620444
O2    O     O_R   0.568940 0.307530 0.490650 -0.620439
O3    O     O_R   0.651120 0.659650 0.479540 -0.614565
O4    O     O_R   0.348880 0.340350 0.520460 -0.614562
O5    O     O_R   0.389960 0.516400 0.680450 -0.604563
O6    O     O_R   0.610040 0.483600 0.319550 -0.604571
O7    O     O_R   0.610030 0.483580 0.650650 -0.602782
O8    O     O_R   0.389970 0.516420 0.349350 -0.602776
Zn1   Zn    Zn3+2 0.353060 0.521910 0.519900 0.940835
Zn2   Zn    Zn3+2 0.646940 0.478090 0.480100 0.940827
C15   C     C_R   0.292286 0.101132 0.606549 0.149570
C16   C     C_R   0.268383 0.149513 0.721501 -0.132111
C17   C     C_R   0.149374 0.121210 0.791692 -0.175629
C18   C     C_R   0.053020 0.046117 0.746992 -0.120177
C19   C     C_R   0.076051 0.998973 0.632376 -0.180558
C20   C     C_R   0.195450 0.025286 0.562576 -0.190092
H3    H     H_    0.341425 0.209919 0.756188 0.112418
H4    H     H_    0.131344 0.158667 0.880130 0.122029
H5    H     H_    0.960498 0.024889 0.800933 0.120908
H6    H     H_    0.001746 0.941899 0.597048 0.135562
H7    H     H_    0.211440 0.988889 0.473592 0.133406
C21   C     C_R   0.707713 0.898865 0.393428 0.149557
C22   C     C_R   0.804523 0.974757 0.437387 -0.190110
C23   C     C_R   0.923940 0.001051 0.367602 -0.180563
C24   C     C_R   0.947013 0.953846 0.253009 -0.120159
C25   C     C_R   0.850683 0.878711 0.208320 -0.175631
C26   C     C_R   0.731657 0.850424 0.278500 -0.132099
H8    H     H_    0.788502 0.011204 0.526349 0.133427
H9    H     H_    0.998228 0.058155 0.402923 0.135548
H10   H     H_    0.039551 0.975057 0.199079 0.120888
H11   H     H_    0.868747 0.841204 0.119902 0.122018
H12   H     H_    0.658637 0.789980 0.243824 0.112424
C27   C     C_R   0.126587 0.423774 0.380978 0.207372
C28   C     C_R   0.138798 0.296870 0.388617 -0.127481
C29   C     C_R   0.186590 0.229069 0.288752 -0.168853
C30   C     C_R   0.215904 0.286187 0.179861 -0.120175
C31   C     C_R   0.200676 0.411870 0.171187 -0.130654
C32   C     C_R   0.158654 0.481184 0.271482 -0.100002
H13   H     H_    0.112526 0.251195 0.472066 0.134135
H14   H     H_    0.200139 0.132049 0.295375 0.120318
H15   H     H_    0.250974 0.233288 0.102341 0.121215
H16   H     H_    0.224337 0.456366 0.087260 0.134399
H17   H     H_    0.149917 0.579159 0.263967 0.107392
C33   C     C_R   0.873413 0.576256 0.619005 0.207365
C34   C     C_R   0.841340 0.518861 0.728509 -0.099977
C35   C     C_R   0.799324 0.588190 0.828795 -0.130659
C36   C     C_R   0.784103 0.713871 0.820104 -0.120198
C37   C     C_R   0.813421 0.770972 0.711208 -0.168843
C38   C     C_R   0.861213 0.703159 0.611353 -0.127473
H18   H     H_    0.850069 0.420887 0.736037 0.107394
H19   H     H_    0.775666 0.543709 0.912730 0.134389
H20   H     H_    0.749040 0.766781 0.897616 0.121223
H21   H     H_    0.799882 0.867991 0.704573 0.120325
H22   H     H_    0.887493 0.748825 0.527900 0.134134
C39   C     C_R   0.128404 0.573875 0.668659 0.262340
C40   C     C_R   0.117219 0.475217 0.746809 -0.128639
C41   C     C_R   0.115205 0.498036 0.866957 -0.171565
C42   C     C_R   0.125967 0.619237 0.909769 -0.125838
C43   C     C_R   0.139461 0.717639 0.832193 -0.143630
C44   C     C_R   0.143282 0.694777 0.711751 -0.123066
H23   H     H_    0.113452 0.381167 0.713805 0.130742
H24   H     H_    0.107714 0.421465 0.926120 0.130156
H25   H     H_    0.125859 0.636992 0.002722 0.120853
H26   H     H_    0.150157 0.811364 0.864998 0.138337
H27   H     H_    0.161035 0.770448 0.651261 0.132817
C45   C     C_R   0.871594 0.426148 0.331334 0.262339
C46   C     C_R   0.856736 0.305254 0.288223 -0.123086
C47   C     C_R   0.860546 0.282413 0.167778 -0.143623
C48   C     C_R   0.874005 0.380828 0.090218 -0.125837
C49   C     C_R   0.884750 0.502021 0.133048 -0.171549
C50   C     C_R   0.882757 0.524818 0.253200 -0.128626
H28   H     H_    0.839003 0.229568 0.348700 0.132806
H29   H     H_    0.849867 0.188694 0.134959 0.138329
H30   H     H_    0.874095 0.363085 0.997264 0.120851
H31   H     H_    0.892208 0.578599 0.073896 0.130126
H32   H     H_    0.886510 0.618859 0.286222 0.130755

loop_
_geom_bond_atom_site_label_1
_geom_bond_atom_site_label_2
_ccdc_geom_bond_type
C25   H11   S    
C48   C49   A    
C1    O3    A    
C39   C40   A    
C14   N2    D    
C3    O5    A    
C31   C32   A    
C7    C8    S    
C43   C44   A    
C28   C29   A    
O7    Zn2   S    
O8    Zn1   S    
C15   C16   A    
C33   C38   A    
C26   H12   S    
C27   C32   A    
C47   H29   S    
C16   C17   A    
C4    O6    A    
C36   H20   S    
C38   H22   S    
C22   C23   A    
C50   H32   S    
C49   H31   S    
C44   H27   S    
C13   C33   S    
C17   C18   A    
C2    O4    A    
C22   H8    S    
O5    Zn1   S    
O1    Zn1   S    
C24   H10   S    
C37   C38   A    
C13   C14   S    
C30   H15   S    
C21   C26   A    
C1    O1    A    
C40   C41   A    
C2    O2    A    
C20   H7    S    
C3    O7    A    
C1    C9    S    
C45   C46   A    
C4    C6    S    
C5    C7    T    
C47   C48   A    
C6    C8    T    
O2    Zn2   S    
C46   C47   A    
C39   C44   A    
C15   C20   A    
C9    C21   S    
C27   C28   A    
C41   C42   A    
C37   H21   S    
C33   C34   A    
C11   H2    S    
C14   C27   S    
C12   H1    S    
C46   H28   S    
C19   C20   A    
C18   H5    S    
C42   C43   A    
C9    C11   D    
C10   C12   D    
C16   H3    S    
C21   C22   A    
O3    Zn2   S    
N2    C39   S    
O4    Zn1   S    
C24   C25   A    
C23   C24   A    
C2    C10   S    
C48   H30   S    
C25   C26   A    
C41   H24   S    
C30   C31   A    
C17   H4    S    
N1    Zn2   S    
N2    Zn1   S    
O6    Zn2   S    
C3    C5    S    
C42   H25   S    
C4    O8    A    
C29   H14   S    
C29   C30   A    
C35   H19   S    
C34   H18   S    
C19   H6    S    
C13   N1    D    
C40   H23   S    
N1    C45   S    
C35   C36   A    
C18   C19   A    
C10   C15   S    
C43   H26   S    
C23   H9    S    
C28   H13   S    
C34   C35   A    
C49   C50   A    
C36   C37   A    
C45   C50   A    
C32   H17   S    
C31   H16   S    
C11   C12   S    
