data_mof_unit_43660.cif
_audit_creation_date              2012-12-11T16:53:27-0500
_audit_creation_method            fapswitch 2.2
_symmetry_space_group_name_H-M    P1
_symmetry_Int_Tables_number       1
_space_group_crystal_system       triclinic
_cell_length_a                    14.810786
_cell_length_b                    14.817145
_cell_length_c                    17.166488
_cell_angle_alpha                 108.970199
_cell_angle_beta                  106.58594
_cell_angle_gamma                 108.05098
_cell_volume                      3058.94841407

loop_
_atom_site_label
_atom_site_type_symbol
_atom_type_description
_atom_site_fract_x
_atom_site_fract_y
_atom_site_fract_z
_atom_type_partial_charge
C1    C     C_R   0.085918 0.292973 0.087300 -0.096225
C2    C     C_R   0.024964 0.592558 0.753804 -0.119703
C3    C     C_R   0.762768 0.196029 0.727069 0.018848
C4    C     C_R   0.275997 0.447461 0.954426 -0.021463
C5    C     C_R   0.271027 0.691137 0.254927 -0.053224
C6    C     C_R   0.703970 0.502105 0.920329 -0.114884
C7    C     C_R   0.888524 0.424124 0.183865 -0.149538
C8    C     C_R   0.082979 0.805471 0.016717 -0.108954
C9    C     C_R   0.909546 0.721222 0.941515 -0.100534
C10   C     C_R   0.064734 0.511753 0.262643 -0.110035
C11   C     C_R   0.279274 0.786027 0.177812 -0.120850
C12   C     C_R   0.934256 0.528604 0.752628 -0.080069
C13   C     C_R   0.698685 0.408973 0.998936 -0.115594
C14   C     C_R   0.334381 0.784080 0.257372 0.076871
C15   C     C_R   0.638861 0.441158 0.946350 0.052371
C16   C     C_R   0.971050 0.470680 0.268254 0.070644
C17   C     C_R   0.995045 0.820397 0.980059 -0.000493
C18   C     C_R   0.383607 0.450791 0.866324 0.149469
C19   C     C_R   0.337310 0.405098 0.913627 0.047629
C20   C     C_R   0.370299 0.334611 0.937527 -0.184978
C21   C     C_R   0.464742 0.334563 0.937263 -0.186903
C22   C     C_R   0.525124 0.404292 0.912225 0.037563
C23   C     C_R   0.777619 0.201313 0.812697 -0.128871
C24   C     C_R   0.475977 0.449598 0.865151 0.169558
C25   C     C_3   0.517289 0.558000 0.870080 -0.519425
C26   C     C_3   0.417192 0.560401 0.872318 -0.486048
C27   C     C_R   0.963705 0.471012 0.348590 0.107151
C28   C     C_R   0.031143 0.594976 0.673271 0.206935
C29   C     C_R   0.026379 0.674352 0.572221 -0.211357
C30   C     C_R   0.040009 0.683356 0.658077 -0.041679
C31   C     C_R   0.010103 0.498572 0.605608 -0.225235
C32   C     C_R   0.989073 0.485481 0.517926 0.094674
C33   C     C_R   0.000080 0.575936 0.502156 0.190787
C34   C     C_R   0.246190 0.522034 0.940330 -0.068434
C35   C     C_R   0.986986 0.567440 0.417034 -0.260706
C36   C     C_R   0.948566 0.380300 0.361221 -0.220886
C37   C     C_R   0.959680 0.385754 0.445987 -0.090196
C38   C     C_R   0.721374 0.101133 0.640028 0.134124
C39   C     C_R   0.443267 0.859527 0.325253 -0.054482
C40   C     C_R   0.582231 0.039638 0.400947 -0.189891
C41   C     C_R   0.490120 0.958689 0.326775 -0.254846
C42   C     C_R   0.497779 0.838531 0.394155 0.646894
C43   C     C_R   0.584462 0.922469 0.472697 -0.017168
C44   C     C_R   0.624646 0.024186 0.476628 0.102499
C45   C     C_R   0.786178 0.298201 0.736855 -0.054737
C46   C     C_R   0.697531 0.111598 0.559159 -0.221209
C47   C     C_R   0.690485 0.998992 0.634912 -0.198892
C48   C     C_R   0.624283 0.909489 0.550884 -0.120227
C49   C     C_R   0.053772 0.074603 0.111509 0.152527
C50   C     C_R   0.989831 0.126844 0.101513 0.096986
C51   C     C_R   0.921789 0.119100 0.144997 -0.206133
C52   C     C_R   0.931489 0.076509 0.207808 -0.148694
C53   C     C_R   0.009684 0.042339 0.228770 0.093780
C54   C     C_R   0.064127 0.035338 0.174795 0.139060
C55   C     C_3   0.176862 0.062384 0.197707 -0.452111
C56   C     C_R   0.246647 0.430827 0.020570 -0.031934
C57   C     C_3   0.164735 0.100104 0.124138 -0.483209
C58   C     C_R   0.107688 0.611629 0.828447 -0.096858
C59   C     C_R   0.914385 0.202828 0.001621 -0.155717
C60   C     C_R   0.999256 0.196527 0.056162 -0.008584
H1    H     H_    0.680185 0.525093 0.867203 0.140341
H2    H     H_    0.805976 0.378023 0.163841 0.105510
H3    H     H_    0.164073 0.862479 0.044297 0.113393
H4    H     H_    0.828839 0.700459 0.900636 0.117830
H5    H     H_    0.143590 0.545260 0.314967 0.125216
H6    H     H_    0.309696 0.839322 0.151185 0.124354
H7    H     H_    0.670539 0.348647 0.019917 0.088965
H8    H     H_    0.332290 0.291053 0.968022 0.125598
H9    H     H_    0.495380 0.290350 0.967146 0.128423
H10   H     H_    0.587893 0.618506 0.934664 0.200742
H11   H     H_    0.523862 0.555770 0.806631 0.208643
H12   H     H_    0.432292 0.622623 0.938512 0.211965
H13   H     H_    0.366664 0.560791 0.810599 0.206277
H14   H     H_    0.998992 0.636639 0.404585 0.133487
H15   H     H_    0.930486 0.306376 0.305526 0.151883
H16   H     H_    0.033972 0.743043 0.559952 0.130392
H17   H     H_    0.054716 0.757290 0.711504 0.118671
H18   H     H_    0.006595 0.433441 0.622228 0.154928
H19   H     H_    0.724328 0.188664 0.560214 0.148566
H20   H     H_    0.767342 0.136643 0.830615 0.103547
H21   H     H_    0.711330 0.988135 0.695804 0.123009
H22   H     H_    0.613721 0.117288 0.402917 0.161316
H23   H     H_    0.596219 0.831781 0.549152 0.183343
H24   H     H_    0.452749 0.976782 0.273797 0.149442
H25   H     H_    0.867943 0.154468 0.136982 0.126078
H26   H     H_    0.883839 0.077741 0.245199 0.162924
H27   H     H_    0.229649 0.128375 0.267688 0.218740
H28   H     H_    0.192058 0.991367 0.181663 0.176954
H29   H     H_    0.217328 0.185289 0.150759 0.211839
H30   H     H_    0.248310 0.546135 0.888153 0.107059
H31   H     H_    0.167601 0.046925 0.062918 0.181153
H32   H     H_    0.786737 0.324997 0.685898 0.107381
H33   H     H_    0.254388 0.374268 0.045520 0.117102
H34   H     H_    0.832864 0.153847 0.982778 0.103738
H35   H     H_    0.289736 0.656760 0.300030 0.187526
N1    N     N_R   0.055640 0.348550 0.045600 -0.063025
N2    N     N_R   0.798340 0.505430 0.954400 -0.038999
N3    N     N_R   0.931580 0.439470 0.128350 -0.045257
N4    N     N_R   0.051950 0.704140 0.002340 -0.039198
N5    N     N_R   0.944360 0.651450 0.954400 -0.043260
N6    N     N_R   0.039170 0.492150 0.176290 -0.049328
N7    N     N_R   0.188710 0.696600 0.128350 -0.041419
N8    N     N_R   0.794820 0.447010 0.002340 -0.046351
N9    N     N_R   0.960830 0.507850 0.823710 -0.071581
N10   N     N_R   0.811290 0.303400 0.871650 -0.046926
N11   N     N_R   0.205180 0.552990 0.997660 -0.025715
N12   N     N_R   0.814810 0.361830 0.823710 -0.029408
N13   N     N_R   0.201660 0.494570 0.045600 -0.026679
N14   N     N_R   0.068420 0.560530 0.871650 -0.067808
N15   N     N_R   0.948050 0.295860 0.997660 -0.048189
N16   N     N_R   0.185190 0.638170 0.176290 -0.056414
Ni1   Ni    Ni4+2 0.119330 0.493420 0.109950 0.262470
Ni2   Ni    Ni4+2 0.880670 0.506580 0.890050 0.258503
Ni3   Ni    Ni4+2 0.872590 0.372590 0.000000 0.201548
Ni4   Ni    Ni4+2 0.127410 0.627410 0.000000 0.253798
C61   C     C_2   0.175183 0.350506 0.179501 0.931046
O1    O     O_2   0.171743 0.320253 0.237388 -0.633682
O2    O     O_R   0.260364 0.444375 0.202746 -0.817184
H36   H     H_    0.314861 0.477806 0.268038 0.346286
C62   C     C_2   0.828694 0.518043 0.703349 0.969920
O3    O     O_2   0.761167 0.494986 0.730561 -0.680380
O4    O     O_R   0.806722 0.536716 0.626878 -0.794498
H37   H     H_    0.732190 0.527638 0.599640 0.329503
C63   C     C_2   0.940405 0.286774 0.456280 0.981937
O5    O     O_2   0.976329 0.228006 0.423657 -0.646542
O6    O     O_R   0.878098 0.258540 0.500099 -0.831180
H38   H     H_    0.870336 0.188931 0.501940 0.323612
F1    F     F_    0.463909 0.739633 0.388918 -0.736560
C64   C     C_2   0.213805 0.701367 0.871159 0.953283
O7    O     O_2   0.246319 0.738924 0.825355 -0.651332
O8    O     O_R   0.276359 0.744438 0.964445 -0.829961
H39   H     H_    0.347059 0.805507 0.985806 0.315248

loop_
_geom_bond_atom_site_label_1
_geom_bond_atom_site_label_2
_ccdc_geom_bond_type
C35   H14   S    
O6    H38   S    
C7    N3    A    
C58   N14   A    
C26   H12   S    
C3    C23   A    
C19   C20   A    
C18   C26   S    
C2    C12   A    
C51   H25   S    
C39   C41   A    
C29   H16   S    
C53   C54   A    
C52   C53   A    
N6    Ni1   S    
N1    Ni1   S    
C57   H29   S    
C18   C24   A    
C6    H1    S    
C36   C37   A    
C8    N4    A    
C12   N9    A    
N4    Ni4   S    
C46   H19   S    
C11   C14   A    
N3    Ni3   S    
C58   C64   S    
C49   C54   A    
C9    H4    S    
C29   C33   A    
C59   N15   A    
C49   C57   S    
C61   O1    D    
C18   C19   A    
C55   H28   S    
C45   H32   S    
O2    H36   S    
N12   Ni2   S    
N7    Ni4   S    
C14   C39   S    
C12   C62   S    
C30   H17   S    
C15   C22   S    
C56   N13   A    
C31   C32   A    
C3    C38   S    
C44   C46   A    
C25   H11   S    
C1    C61   S    
C23   H20   S    
C13   N8    A    
C43   C48   A    
N15   Ni3   S    
C11   H6    S    
C42   F1    S    
C16   C27   S    
C6    C15   A    
C59   C60   A    
C21   C22   A    
C4    C56   A    
C4    C19   S    
N7    N16   A    
C52   H26   S    
C48   H23   S    
C5    H35   S    
C62   O4    S    
C39   C42   A    
C28   C31   A    
C56   H33   S    
C4    C34   A    
C51   C52   A    
C34   N11   A    
C6    N2    A    
C40   H22   S    
N10   Ni3   S    
N8    Ni3   S    
C24   C25   S    
C1    C60   A    
C5    N16   A    
C27   C35   A    
C25   C26   S    
C41   H24   S    
N1    N15   A    
C26   H13   S    
C3    C45   A    
N13   Ni1   S    
C21   H9    S    
C43   C44   A    
C34   H30   S    
C7    H2    S    
C29   C30   A    
C36   H15   S    
C37   C63   S    
N10   N12   A    
C47   C48   A    
C50   C51   A    
C38   C47   A    
C32   C37   A    
C5    C14   A    
N2    N8    A    
C9    C17   A    
C7    C16   A    
C59   H34   S    
C9    N5    A    
C55   C57   S    
C22   C24   A    
C42   C43   A    
N2    Ni2   S    
O8    H39   S    
C62   O3    D    
C31   H18   S    
C63   O6    S    
C64   O7    D    
C13   H7    S    
C10   H5    S    
C54   C55   S    
C40   C41   A    
C57   H31   S    
N16   Ni1   S    
C20   H8    S    
C10   N6    A    
N5    Ni2   S    
C2    C58   A    
C27   C36   A    
N3    N6    A    
C8    C17   A    
N4    N5    A    
N11   Ni4   S    
C50   C60   S    
C32   C33   A    
C13   C15   A    
C10   C16   A    
N9    N14   A    
N11   N13   A    
C1    N1    A    
C28   C30   A    
C33   C35   A    
C61   O2    S    
C11   N7    A    
C47   H21   S    
C55   H27   S    
C38   C46   A    
N14   Ni4   S    
C8    H3    S    
N9    Ni2   S    
C40   C44   A    
C20   C21   A    
C49   C50   A    
C2    C28   S    
C25   H10   S    
O4    H37   S    
C45   N12   A    
C63   O5    D    
C64   O8    S    
C23   N10   A    
