data_mof_unit_51653.cif
_audit_creation_date              2013-03-05T16:50:04-0500
_audit_creation_method            fapswitch 2.2
_symmetry_space_group_name_H-M    P1
_symmetry_Int_Tables_number       1
_space_group_crystal_system       triclinic
_cell_length_a                    27.621507
_cell_length_b                    10.898615
_cell_length_c                    26.513555
_cell_angle_alpha                 91.139774
_cell_angle_beta                  90.618433
_cell_angle_gamma                 88.414633
_cell_volume                      7976.48627718

loop_
_atom_site_label
_atom_site_type_symbol
_atom_site_description
_atom_site_fract_x
_atom_site_fract_y
_atom_site_fract_z
_atom_type_partial_charge
O1    O     O_R   0.500000 0.319660 0.542350 -0.589916
O2    O     O_R   0.500000 0.680340 0.457650 -0.526378
O3    O     O_R   0.500000 0.319630 0.457650 -0.579752
O4    O     O_R   0.500000 0.680370 0.542350 -0.560033
C1    C     C_R   0.497159 0.262020 0.499756 0.874200
C2    C     C_R   0.504356 0.737324 0.500501 0.909518
O5    O     O_R   0.430260 0.500030 0.542340 -0.570939
O6    O     O_R   0.569740 0.499970 0.457660 -0.599260
O7    O     O_R   0.430270 0.500010 0.457650 -0.580800
O8    O     O_R   0.569730 0.499990 0.542350 -0.581359
C3    C     C_R   0.407300 0.504146 0.499732 0.914204
C4    C     C_R   0.592647 0.499061 0.500023 0.908197
Cu1   Cu    Cu3+1 0.500000 0.500020 0.550150 1.000046
Cu2   Cu    Cu3+1 0.500000 0.499980 0.449850 1.009814
O9    O     O_2   0.435532 0.688757 0.795217 -0.531695
O10   O     O_2   0.543432 0.309314 0.209756 -0.478509
C5    C     C_R   0.470148 0.721486 0.059803 0.420944
C6    C     C_R   0.575891 0.382892 0.938824 0.449970
H1    H     H_    0.436536 0.611904 0.624776 0.201322
H2    H     H_    0.570044 0.421030 0.376256 0.172416
C7    C     C_R   0.175324 0.410382 0.486778 0.509437
C8    C     C_R   0.822458 0.631212 0.498499 0.512938
O11   O     O_2   0.198806 0.302472 0.495518 -0.555613
O12   O     O_2   0.798465 0.730188 0.518219 -0.567550
N1    N     N_R   0.200492 0.516663 0.486523 -0.457947
N2    N     N_R   0.798060 0.526582 0.487007 -0.452172
C9    C     C_R   0.177486 0.627878 0.478658 0.623741
C10   C     C_R   0.821376 0.425200 0.466367 0.619664
C11   C     C_R   0.275483 0.575108 0.532361 0.406408
C12   C     C_R   0.726486 0.438013 0.526718 0.434903
C13   C     C_R   0.326398 0.581508 0.533638 -0.105255
C14   C     C_R   0.676022 0.420223 0.525526 -0.111795
C15   C     C_R   0.330474 0.442478 0.460509 -0.238399
C16   C     C_R   0.666103 0.593746 0.469556 -0.283044
C17   C     C_R   0.280287 0.444418 0.457083 -0.157329
C18   C     C_R   0.716040 0.602128 0.466455 -0.221523
C19   C     C_R   0.252406 0.510617 0.492581 0.230698
C20   C     C_R   0.746538 0.524307 0.494536 0.248097
C21   C     C_R   0.100597 0.526345 0.470934 -0.112084
C22   C     C_R   0.897252 0.531808 0.469944 -0.121287
C23   C     C_R   0.125179 0.412892 0.478394 0.013311
C24   C     C_R   0.872473 0.635623 0.490510 0.008021
C25   C     C_R   0.099098 0.304545 0.478490 -0.163212
C26   C     C_R   0.898306 0.740392 0.503821 -0.143643
C27   C     C_R   0.126733 0.635683 0.470929 -0.146619
C28   C     C_R   0.871452 0.426198 0.456400 -0.130877
C29   C     C_R   0.354069 0.509983 0.498483 -0.124765
C30   C     C_R   0.645633 0.504131 0.499167 -0.065111
H3    H     H_    0.351106 0.388839 0.432980 0.214729
H4    H     H_    0.643236 0.656149 0.447934 0.200586
H5    H     H_    0.262915 0.394864 0.426382 0.190739
H6    H     H_    0.731156 0.668404 0.441583 0.182818
H7    H     H_    0.116890 0.216797 0.485817 0.181404
H8    H     H_    0.880366 0.820048 0.521064 0.188323
C31   C     C_R   0.973600 0.423783 0.450172 -0.030231
C32   C     C_R   0.024080 0.644118 0.464830 -0.034141
C33   C     C_R   0.973358 0.642816 0.473641 0.119267
C34   C     C_R   0.024256 0.418884 0.459928 0.124371
C35   C     C_R   0.948024 0.533240 0.463843 0.030266
C36   C     C_R   0.049678 0.529967 0.464586 0.029188
C37   C     C_R   0.947186 0.323866 0.429428 -0.124399
C38   C     C_R   0.050547 0.753216 0.458608 -0.094805
C39   C     C_R   0.896066 0.326655 0.431953 0.400685
C40   C     C_R   0.101674 0.748464 0.461653 0.375674
O13   O     O_2   0.796086 0.323472 0.456033 -0.487768
O14   O     O_2   0.203863 0.730138 0.478133 -0.481470
C41   C     C_R   0.049460 0.307487 0.469493 -0.132285
C42   C     C_R   0.947945 0.743612 0.495881 -0.132226
H9    H     H_    0.030782 0.222117 0.472469 0.135461
H10   H     H_    0.966442 0.823856 0.509662 0.139390
C43   C     C_R   0.416557 0.160119 0.345721 -0.196979
C44   C     C_R   0.565168 0.784467 0.662003 -0.147118
C45   C     C_R   0.432862 0.133194 0.395380 0.467078
C46   C     C_R   0.558095 0.825423 0.612004 0.453453
C47   C     C_R   0.482678 0.112358 0.405224 -0.046047
C48   C     C_R   0.513167 0.878754 0.597684 -0.035391
C49   C     C_R   0.515941 0.122625 0.366333 -0.362936
C50   C     C_R   0.475389 0.886394 0.632288 -0.310677
H11   H     H_    0.554233 0.108652 0.374177 0.170103
H12   H     H_    0.440987 0.924437 0.619547 0.186245
C51   C     C_R   0.500042 0.133308 0.316433 0.490924
C52   C     C_R   0.483272 0.860337 0.683488 0.407435
C53   C     C_R   0.450101 0.150563 0.305435 -0.177481
C54   C     C_R   0.529639 0.816022 0.698903 -0.160044
C55   C     C_R   0.511349 0.934129 0.455249 -0.087889
C56   C     C_R   0.497889 0.065505 0.546928 -0.072471
C57   C     C_R   0.509573 0.871286 0.501395 -0.089635
C58   C     C_R   0.495964 0.127319 0.500174 -0.058661
C59   C     C_R   0.506317 0.938077 0.547586 -0.035096
C60   C     C_R   0.498986 0.059638 0.454278 -0.029597
H13   H     H_    0.408188 0.704732 0.976889 0.222076
H14   H     H_    0.578790 0.258934 0.031321 0.225275
C61   C     C_R   0.501768 0.620091 0.189964 0.621081
C62   C     C_R   0.539799 0.500377 0.812495 0.646318
O15   O     O_2   0.489894 0.722447 0.217039 -0.547994
O16   O     O_2   0.581858 0.487271 0.787303 -0.483859
N3    N     N_R   0.516340 0.514880 0.214123 -0.418728
N4    N     N_R   0.497686 0.536700 0.787837 -0.437423
C63   C     C_R   0.533865 0.415723 0.186357 0.592861
C64   C     C_R   0.464563 0.604106 0.816767 0.521306
C65   C     C_R   0.549310 0.464340 0.299778 0.353892
C66   C     C_R   0.455937 0.563441 0.700402 0.350288
C67   C     C_R   0.541686 0.457125 0.352441 -0.109027
C68   C     C_R   0.463122 0.565009 0.647946 -0.100827
C69   C     C_R   0.462626 0.544057 0.344718 0.015668
C70   C     C_R   0.530007 0.427470 0.654818 0.023686
C71   C     C_R   0.466020 0.538428 0.291596 0.256968
C72   C     C_R   0.523014 0.422881 0.707593 0.379351
C73   C     C_R   0.510660 0.506055 0.268741 0.198879
C74   C     C_R   0.492533 0.511507 0.732474 0.023422
C75   C     C_R   0.517722 0.523099 0.108115 -0.052709
C76   C     C_R   0.503370 0.532902 0.894378 -0.053001
C77   C     C_R   0.498308 0.621971 0.136948 -0.111685
C78   C     C_R   0.540491 0.482067 0.864770 -0.113303
C79   C     C_R   0.475725 0.721000 0.112527 -0.250973
C80   C     C_R   0.577635 0.413027 0.887510 -0.238910
C81   C     C_R   0.539536 0.422307 0.133162 -0.120616
C82   C     C_R   0.464912 0.597935 0.870580 -0.116547
N5    N     N_R   0.500000 0.499970 0.374520 -0.215898
N6    N     N_R   0.500000 0.500030 0.625480 -0.257531
H15   H     H_    0.461065 0.797982 0.134423 0.192327
H16   H     H_    0.607025 0.376446 0.864590 0.195410
C83   C     C_R   0.476915 0.605344 0.977684 0.030118
C84   C     C_R   0.540027 0.433935 0.025017 0.039158
C85   C     C_R   0.541605 0.445967 0.971042 -0.047157
C86   C     C_R   0.486480 0.617975 0.030405 -0.041624
C87   C     C_R   0.507170 0.527460 0.947880 0.010598
C88   C     C_R   0.514919 0.525124 0.054385 0.023404
C89   C     C_R   0.436644 0.663157 0.954126 -0.125528
C90   C     C_R   0.562661 0.335776 0.051027 -0.161801
C91   C     C_R   0.429216 0.656921 0.901603 -0.019053
C92   C     C_R   0.563467 0.329237 0.103858 -0.022635
C93   C     C_2   0.970828 0.222236 0.399659 0.331895
H17   H     H_    0.955532 0.131562 0.398932 0.140141
O17   O     O_2   0.006201 0.240234 0.373858 -0.526822
C94   C     C_2   0.026906 0.870715 0.442672 0.328814
H18   H     H_    0.042263 0.957773 0.453996 0.102027
O18   O     O_2   0.991533 0.871242 0.414633 -0.536963
C95   C     C_2   0.432743 0.148170 0.252093 0.360664
H19   H     H_    0.396459 0.118976 0.242923 0.042622
O19   O     O_2   0.458705 0.177187 0.217623 -0.495405
C96   C     C_2   0.540529 0.809256 0.753899 0.367256
H20   H     H_    0.511419 0.808930 0.780806 0.158916
O20   O     O_2   0.581993 0.811706 0.770208 -0.557961
C97   C     C_2   0.365080 0.199282 0.335763 0.342803
H21   H     H_    0.353858 0.231959 0.299032 0.042304
O21   O     O_2   0.334420 0.198565 0.368541 -0.538225
C98   C     C_2   0.607688 0.703363 0.675106 0.485084
H22   H     H_    0.607958 0.651809 0.709638 0.147938
O22   O     O_2   0.642274 0.689439 0.647099 -0.535170
O23   O     O_3   0.400624 0.132873 0.434985 -0.576935
C99   C     C_3   0.382146 0.013764 0.439237 0.119289
H23   H     H_    0.411143 0.946204 0.449960 0.147183
H24   H     H_    0.365429 0.981818 0.403034 0.146436
C100  C     C_3   0.343022 0.015492 0.479624 -0.321065
H25   H     H_    0.313429 0.081602 0.469062 0.250067
H26   H     H_    0.327499 0.922679 0.481559 0.203712
C101  C     C_3   0.363202 0.051381 0.531536 -0.677905
H27   H     H_    0.392398 0.985332 0.542991 0.257776
H28   H     H_    0.333831 0.050356 0.559733 0.229512
H29   H     H_    0.377775 0.145316 0.531088 0.283218
O24   O     O_3   0.593120 0.803121 0.575798 -0.582768
C102  C     C_3   0.624065 0.904033 0.574673 0.067452
H30   H     H_    0.639246 0.925351 0.612905 0.168182
H31   H     H_    0.604214 0.986783 0.560364 0.153528
C103  C     C_3   0.665913 0.871400 0.539195 -0.297285
H32   H     H_    0.685633 0.788078 0.552979 0.266058
H33   H     H_    0.651174 0.850977 0.500875 0.227337
C104  C     C_3   0.701352 0.975651 0.535833 -0.811242
H34   H     H_    0.683306 0.056525 0.518284 0.274915
H35   H     H_    0.732423 0.945661 0.511938 0.287143
H36   H     H_    0.715275 0.001718 0.573907 0.255250
O25   O     O_3   0.533654 0.119557 0.278303 -0.552275
C105  C     C_3   0.539180 0.993730 0.264204 0.139717
H37   H     H_    0.536584 0.986633 0.222395 0.207160
H38   H     H_    0.510510 0.933972 0.279046 0.140456
C106  C     C_3   0.589190 0.944562 0.280735 -0.425787
H39   H     H_    0.617617 0.996732 0.261826 0.228265
H40   H     H_    0.593745 0.957471 0.322116 0.232307
C107  C     C_3   0.595874 0.808164 0.267566 -0.760526
H41   H     H_    0.568778 0.754068 0.287579 0.275628
H42   H     H_    0.632644 0.775789 0.279432 0.250288
H43   H     H_    0.591824 0.792256 0.226239 0.258003
O26   O     O_3   0.448944 0.891281 0.720256 -0.613150
C108  C     C_3   0.400520 0.869979 0.704673 0.166253
H44   H     H_    0.382158 0.824709 0.736034 0.225715
H45   H     H_    0.397409 0.805848 0.671601 0.151957
C109  C     C_3   0.372999 0.991449 0.695405 -0.426579
H46   H     H_    0.368897 0.042581 0.731808 0.220824
H47   H     H_    0.393334 0.049388 0.669498 0.256304
C110  C     C_3   0.322810 0.968909 0.673011 -0.896453
H48   H     H_    0.325957 0.919809 0.636045 0.264738
H49   H     H_    0.303266 0.057886 0.667195 0.266987
H50   H     H_    0.301437 0.913257 0.698938 0.257223
C111  C     C_2   0.526151 0.870094 0.407461 0.420303
H51   H     H_    0.503928 0.877951 0.373636 0.076787
O27   O     O_2   0.564026 0.809711 0.405617 -0.568359
C112  C     C_2   0.489536 0.130764 0.596198 0.356011
H52   H     H_    0.516492 0.123751 0.626155 0.051718
O28   O     O_2   0.451335 0.186423 0.604335 -0.578819
C113  C     C_2   0.382253 0.705426 0.881321 0.413420
H53   H     H_    0.366577 0.666299 0.847171 0.100139
O29   O     O_2   0.359839 0.788107 0.903332 -0.542466
C114  C     C_2   0.593079 0.228218 0.126721 0.418102
H54   H     H_    0.611892 0.242370 0.162366 0.116938
O30   O     O_2   0.597822 0.128501 0.105223 -0.573547
C115  C     C_2   0.419090 0.604809 0.366397 0.504930
H55   H     H_    0.383402 0.575901 0.354523 0.024637
O31   O     O_2   0.422534 0.692863 0.395192 -0.564676
C116  C     C_2   0.569498 0.350999 0.632436 0.410194
H56   H     H_    0.567630 0.319468 0.594076 0.139908
O32   O     O_2   0.605398 0.322051 0.657230 -0.532305
O33   O     O_3   0.427305 0.579318 0.262216 -0.579385
C117  C     C_3   0.396142 0.481610 0.250518 0.041090
H57   H     H_    0.359568 0.508118 0.264768 0.154186
H58   H     H_    0.406767 0.392905 0.268321 0.112732
C118  C     C_3   0.393221 0.462659 0.193212 -0.287342
H59   H     H_    0.386865 0.552694 0.174931 0.232316
H60   H     H_    0.428055 0.422203 0.179393 0.227555
C119  C     C_3   0.352453 0.377597 0.177809 -0.902758
H61   H     H_    0.357765 0.286855 0.195544 0.255055
H62   H     H_    0.352208 0.364027 0.136189 0.257903
H63   H     H_    0.316897 0.418434 0.189383 0.256202
O34   O     O_3   0.543206 0.324635 0.733706 -0.530520
C120  C     C_3   0.508378 0.233195 0.740320 0.081923
H64   H     H_    0.524411 0.144643 0.726090 0.182289
H65   H     H_    0.473716 0.248486 0.718865 0.113293
C121  C     C_3   0.497528 0.221762 0.796565 -0.391766
H66   H     H_    0.532086 0.215853 0.818374 0.241093
H67   H     H_    0.476405 0.304011 0.809836 0.200880
C122  C     C_3   0.468329 0.108712 0.807022 -0.824776
H68   H     H_    0.433647 0.112136 0.785557 0.261362
H69   H     H_    0.460270 0.105688 0.847913 0.252331
H70   H     H_    0.489401 0.024367 0.796349 0.277809
O35   O     O_3   0.447875 0.822110 0.036995 -0.622280
C123  C     C_3   0.472804 0.931976 0.047267 0.063190
H71   H     H_    0.484815 0.968043 0.010689 0.169301
H72   H     H_    0.506079 0.920573 0.071212 0.153244
C124  C     C_3   0.437947 0.026543 0.071788 -0.350790
H73   H     H_    0.406598 0.043729 0.046000 0.236615
H74   H     H_    0.424076 0.990100 0.107534 0.226978
C125  C     C_3   0.462615 0.147582 0.083189 -0.827011
H75   H     H_    0.492971 0.132906 0.110367 0.298362
H76   H     H_    0.436195 0.214534 0.100221 0.263134
H77   H     H_    0.476554 0.186357 0.047926 0.240331
O36   O     O_3   0.610895 0.302165 0.957892 -0.619717
C126  C     C_3   0.609947 0.185357 0.932807 0.061331
H78   H     H_    0.638535 0.126386 0.950546 0.191629
H79   H     H_    0.620191 0.190945 0.892561 0.148943
C127  C     C_3   0.561258 0.120434 0.937808 -0.444342
H80   H     H_    0.553482 0.105780 0.978181 0.224153
H81   H     H_    0.531178 0.177196 0.921514 0.214999
C128  C     C_3   0.562334 0.996061 0.910267 -0.828211
H82   H     H_    0.568829 0.007940 0.869392 0.273058
H83   H     H_    0.526977 0.951509 0.914642 0.257273
H84   H     H_    0.591297 0.935243 0.926260 0.265834
O37   O     O_3   0.409909 0.595254 0.716719 -0.592259
C129  C     C_3   0.384200 0.488586 0.727839 0.067721
H85   H     H_    0.352827 0.518392 0.751388 0.172598
H86   H     H_    0.405947 0.422042 0.750802 0.123936
C130  C     C_3   0.365146 0.426057 0.679455 -0.389341
H87   H     H_    0.347636 0.496044 0.654926 0.209632
H88   H     H_    0.395750 0.381486 0.658555 0.245933
C131  C     C_3   0.328593 0.328659 0.691136 -0.900840
H89   H     H_    0.345383 0.258325 0.716007 0.258983
H90   H     H_    0.316546 0.283511 0.655430 0.265029
H91   H     H_    0.296462 0.371182 0.710086 0.249817
O38   O     O_3   0.594688 0.444489 0.277819 -0.590845
C132  C     C_3   0.623126 0.350552 0.300862 0.118611
H92   H     H_    0.642169 0.297469 0.270476 0.164329
H93   H     H_    0.601167 0.281729 0.320287 0.154112
C133  C     C_3   0.661686 0.406830 0.335803 -0.421848
H94   H     H_    0.691596 0.441029 0.312643 0.223612
H95   H     H_    0.646188 0.486630 0.357448 0.241668
C134  C     C_3   0.682159 0.313180 0.372946 -0.861707
H96   H     H_    0.653180 0.282975 0.398267 0.267499
H97   H     H_    0.710920 0.355659 0.396454 0.284199
H98   H     H_    0.697890 0.232122 0.352314 0.252005
C135  C     C_2   0.657233 0.305466 0.546002 0.339460
H99   H     H_    0.675400 0.260802 0.577404 0.123652
O39   O     O_2   0.623003 0.254914 0.525771 -0.616873
C136  C     C_2   0.348745 0.670786 0.569278 0.343275
H100  H     H_    0.331816 0.692441 0.605222 0.088083
O40   O     O_2   0.384596 0.726458 0.557687 -0.585496
O41   O     O_3   0.757164 0.361040 0.554049 -0.595520
C137  C     C_3   0.756756 0.397546 0.605618 0.016944
H101  H     H_    0.767562 0.315830 0.627915 0.186080
H102  H     H_    0.720114 0.427876 0.619114 0.156717
C138  C     C_3   0.793213 0.498588 0.616225 -0.344788
H103  H     H_    0.829164 0.469692 0.600932 0.230817
H104  H     H_    0.780750 0.583991 0.597380 0.246606
C139  C     C_3   0.798236 0.525923 0.672660 -0.842465
H105  H     H_    0.762723 0.556428 0.688503 0.277933
H106  H     H_    0.824451 0.600231 0.679017 0.257540
H107  H     H_    0.811730 0.442861 0.692595 0.253338
O42   O     O_3   0.248143 0.643119 0.566850 -0.591594
C140  C     C_3   0.233775 0.564803 0.605362 0.020503
H108  H     H_    0.265803 0.517642 0.623042 0.132693
H109  H     H_    0.208701 0.494591 0.590046 0.167937
C141  C     C_3   0.207452 0.641591 0.645895 -0.300924
H110  H     H_    0.231896 0.713309 0.660957 0.221520
H111  H     H_    0.174993 0.687856 0.628893 0.234948
C142  C     C_3   0.191628 0.562315 0.689206 -0.913242
H112  H     H_    0.167071 0.489984 0.675043 0.261334
H113  H     H_    0.171998 0.620551 0.717572 0.261402
H114  H     H_    0.223711 0.518482 0.707822 0.253646
O43   O     O_3   0.870111 0.231712 0.410206 -0.573891
C143  C     C_3   0.865490 0.247592 0.357302 0.065684
H115  H     H_    0.878523 0.161127 0.338411 0.169005
H116  H     H_    0.887396 0.323100 0.342142 0.127428
C144  C     C_3   0.812264 0.270676 0.342949 -0.295224
H117  H     H_    0.790009 0.197899 0.359044 0.253741
H118  H     H_    0.799749 0.361112 0.358727 0.224792
C145  C     C_3   0.804868 0.271027 0.285845 -0.930501
H119  H     H_    0.826283 0.344292 0.268962 0.265189
H120  H     H_    0.765953 0.288683 0.276907 0.258741
H121  H     H_    0.816116 0.180704 0.268992 0.265402
O44   O     O_3   0.126712 0.856302 0.457875 -0.584913
C146  C     C_3   0.139459 0.872400 0.406958 0.073417
H122  H     H_    0.106506 0.884642 0.382827 0.140104
H123  H     H_    0.161233 0.792086 0.392220 0.157178
C147  C     C_3   0.169693 0.987291 0.403689 -0.272377
H124  H     H_    0.147940 0.068452 0.417237 0.224885
H125  H     H_    0.202321 0.977261 0.428350 0.255901
C148  C     C_3   0.185699 0.008745 0.349759 -0.887838
H126  H     H_    0.208338 0.929684 0.335740 0.255315
H127  H     H_    0.207468 0.092816 0.348838 0.274233
H128  H     H_    0.153632 0.021251 0.324551 0.263090

loop_
_geom_bond_atom_site_label_1
_geom_bond_atom_site_label_2
_geom_bond_distance
_ccdc_geom_bond_type
C147  H125  1.111914 S    
C31   C35   1.412533 A    
C113  O29   1.221416 D    
C97   H21   1.082833 S    
C37   C93   1.487480 S    
C21   C23   1.410458 A    
C22   C28   1.408924 A    
C136  H100  1.084964 S    
C109  C110  1.526423 S    
C102  H31   1.113403 S    
C6    C85   1.434286 A    
C72   O34   1.387451 S    
C56   C58   1.422366 A    
C33   C35   1.418907 A    
C147  C148  1.525559 S    
C127  H81   1.110897 S    
C70   C116  1.476699 S    
C120  C121  1.532402 S    
C32   C33   1.423352 A    
C12   C20   1.410750 A    
C37   C39   1.413761 A    
C81   C92   1.418494 A    
C38   C40   1.413225 A    
C82   C91   1.422466 A    
C47   C60   1.492440 S    
C1    C58   1.469601 S    
C134  H96   1.111214 S    
C133  H94   1.111592 S    
C125  H76   1.110612 S    
C143  C144  1.529983 S    
C127  C128  1.526541 S    
C5    O35   1.388471 S    
C65   C73   1.411617 A    
C65   C67   1.418366 A    
C100  C101  1.527153 S    
C23   C25   1.400211 A    
C24   C26   1.400387 A    
C11   O42   1.383055 S    
C53   C95   1.488391 S    
C121  H66   1.111689 S    
C107  H42   1.110279 S    
C49   H11   1.082918 S    
C125  H77   1.110614 S    
C110  H48   1.110362 S    
C142  H113  1.110487 S    
C43   C45   1.420463 A    
C55   C111  1.489899 S    
C83   C86   1.424431 A    
C145  H119  1.110822 S    
H14   C90   1.067611 S    
C50   C52   1.405832 A    
C142  H112  1.111226 S    
C54   C96   1.488507 S    
C95   H19   1.083555 S    
C84   C90   1.412072 A    
C75   C77   1.406154 A    
C62   O16   1.349038 S    
C105  C106  1.530580 S    
C44   C54   1.423803 A    
C56   C112  1.492014 S    
O42   C140  1.410970 S    
C52   C54   1.415220 A    
C57   C59   1.414616 A    
C17   H5    1.083025 S    
C101  H27   1.109971 S    
C15   C29   1.400937 A    
C32   C38   1.426151 A    
C16   C30   1.400216 A    
C141  H110  1.112316 S    
C128  H83   1.110816 S    
C126  C127  1.545025 S    
C137  C138  1.532569 S    
C55   C60   1.401327 A    
H13   C89   1.080286 S    
C139  H106  1.110381 S    
C110  H50   1.110911 S    
C9    O14   1.348666 S    
C137  H102  1.116355 S    
C133  C134  1.525561 S    
C21   C36   1.414266 A    
C122  H70   1.107908 S    
C135  O39   1.221195 D    
O2    Cu2   1.972428 S    
C111  H51   1.084748 S    
C140  H108  1.114457 S    
C34   C41   1.408768 A    
O5    Cu1   1.935195 S    
Cu2   N5    1.997264 S    
C100  H25   1.111828 S    
C85   C87   1.425841 A    
C112  O28   1.221546 D    
C34   C36   1.418885 A    
C121  C122  1.522746 S    
C77   C79   1.398220 A    
C146  H123  1.114869 S    
C79   H15   1.082506 S    
C76   C78   1.393969 A    
C69   C71   1.412570 A    
C10   C28   1.411368 A    
C46   C48   1.407373 A    
C48   C50   1.396574 A    
C130  H87   1.109583 S    
C50   H12   1.079725 S    
C108  H45   1.114505 S    
C52   O26   1.397256 S    
C123  H71   1.111039 S    
C109  H47   1.109604 S    
O37   C129  1.416524 S    
C148  H127  1.110567 S    
C105  H37   1.111362 S    
C76   C87   1.423564 A    
C131  H89   1.109636 S    
C106  H40   1.109595 S    
C12   O41   1.385107 S    
C18   H6    1.082823 S    
C141  C142  1.525578 S    
O6    C4    1.283276 A    
C48   C59   1.496685 S    
C21   C27   1.410224 A    
C22   C24   1.409464 A    
C61   O15   1.349174 S    
Cu1   Cu2   2.659304 S    
C103  H33   1.111138 S    
C140  H109  1.114003 S    
C119  H61   1.108886 S    
C51   C53   1.415055 A    
C143  H116  1.118428 S    
C43   C53   1.421915 A    
C120  H65   1.118582 S    
C134  H98   1.110464 S    
C46   O24   1.383569 S    
C118  H59   1.111835 S    
C51   O25   1.383111 S    
C40   O44   1.385915 S    
C63   C81   1.424167 A    
N3    C73   1.463614 S    
H1    C68   1.076955 S    
C83   C87   1.411261 A    
C71   O33   1.385070 S    
O23   C99   1.414941 S    
C138  H103  1.111753 S    
C124  H74   1.110868 S    
C47   C49   1.396661 A    
C14   C135  1.482340 S    
C43   C97   1.495448 S    
C65   O38   1.397324 S    
C116  O32   1.221414 D    
C144  H118  1.110763 S    
C132  C133  1.536570 S    
C33   C42   1.409862 A    
C61   N3    1.373025 A    
Cu1   N6    1.997264 S    
C5    C79   1.404808 A    
C93   O17   1.221240 D    
C104  H35   1.110288 S    
C7    N1    1.367473 A    
O36   C126  1.425292 S    
C86   C88   1.419926 A    
C99   H24   1.114386 S    
C94   H18   1.085588 S    
C130  C131  1.523549 S    
C78   C80   1.394376 A    
C27   C40   1.418332 A    
C136  O40   1.220835 D    
C123  C124  1.530955 S    
C28   C39   1.414234 A    
C75   C81   1.412261 A    
C129  H85   1.110992 S    
C95   O19   1.219736 D    
C70   C72   1.416628 A    
C131  H91   1.110179 S    
C31   C37   1.425525 A    
C104  H36   1.110814 S    
C72   C74   1.420787 A    
C16   C18   1.388310 A    
C26   H8    1.083294 S    
C114  H54   1.083985 S    
C25   C41   1.388722 A    
C15   H3    1.082980 S    
C75   C88   1.426412 A    
C115  O31   1.219513 D    
C119  H63   1.110706 S    
C111  O27   1.221339 D    
N4    C74   1.493961 S    
C100  H26   1.111849 S    
C45   C47   1.410815 A    
C3    C29   1.469964 S    
C124  H73   1.111621 S    
O9    C64   1.338202 S    
C4    C30   1.466547 S    
O34   C120  1.418788 S    
C121  H67   1.109359 S    
H2    C67   1.071969 S    
O33   C117  1.415233 S    
C118  C119  1.525467 S    
C80   H16   1.081808 S    
O1    C1    1.284034 A    
C5    C86   1.424126 A    
C62   N4    1.380435 A    
C145  H120  1.110595 S    
C138  C139  1.525438 S    
C104  H34   1.108538 S    
C101  H29   1.110700 S    
C25   H7    1.083130 S    
O35   C123  1.417968 S    
C84   C88   1.420476 A    
C9    C27   1.415053 A    
C145  H121  1.110772 S    
C147  H124  1.111348 S    
C13   C29   1.419193 A    
C132  H92   1.110955 S    
C101  H28   1.109559 S    
C14   C30   1.414069 A    
C97   O21   1.220276 D    
C141  H111  1.112019 S    
C71   C73   1.412667 A    
C142  H114  1.110706 S    
C126  H79   1.110166 S    
C92   C114  1.488155 S    
C115  H55   1.084731 S    
C102  C103  1.527999 S    
C39   O43   1.387642 S    
C44   C46   1.416997 A    
C6    C80   1.407589 A    
C127  H80   1.109573 S    
C117  C118  1.530843 S    
O43   C143  1.420659 S    
C90   C92   1.403846 A    
O7    Cu2   1.939330 S    
C110  H49   1.109400 S    
O41   C137  1.416422 S    
C128  H84   1.110712 S    
C99   C100  1.529020 S    
C49   C51   1.395550 A    
C125  H75   1.109948 S    
C122  H69   1.110451 S    
C61   C77   1.408372 A    
O3    Cu2   1.980503 S    
C7    C23   1.400038 A    
O4    C2    1.290473 A    
C58   C60   1.412399 A    
N4    C64   1.385874 A    
C7    O11   1.350154 S    
C93   H17   1.085189 S    
C8    O12   1.349681 S    
C66   C74   1.426246 A    
C64   C82   1.429607 A    
C107  H41   1.111168 S    
O24   C102  1.412427 S    
C134  H97   1.110002 S    
N2    C20   1.440138 S    
C98   O22   1.220624 D    
O3    C1    1.295834 A    
C56   C59   1.402219 A    
C18   C20   1.398337 A    
C10   O13   1.348655 S    
C135  H99   1.084208 S    
C15   C17   1.387839 A    
C108  H44   1.109644 S    
C128  H82   1.111085 S    
C123  H72   1.116909 S    
C117  H58   1.114904 S    
C148  H126  1.110892 S    
C91   C113  1.486484 S    
C105  H38   1.118746 S    
C146  H122  1.113432 S    
C32   C36   1.413798 A    
O38   C132  1.417209 S    
C131  H90   1.110320 S    
C106  H39   1.111636 S    
C8    N2    1.368075 A    
C31   C34   1.419886 A    
C11   C19   1.411908 A    
C96   H20   1.080792 S    
C69   N5    1.375133 A    
C68   N6    1.360251 A    
C76   C82   1.410863 A    
C144  H117  1.111401 S    
C113  H53   1.084219 S    
C102  H30   1.115437 S    
C119  H62   1.110422 S    
C62   C78   1.404074 A    
O25   C105  1.418757 S    
O26   C108  1.419530 S    
O5    C3    1.290508 A    
C139  H105  1.111066 S    
C17   C19   1.399044 A    
C137  H101  1.110932 S    
C38   C94   1.487992 S    
O4    Cu1   1.980501 S    
N1    C19   1.441020 S    
C112  H52   1.085166 S    
C107  H43   1.110873 S    
C146  C147  1.528579 S    
C22   C35   1.413965 A    
C83   C89   1.409362 A    
O2    C2    1.289994 A    
N3    C63   1.375220 A    
C69   C115  1.473279 S    
C55   C57   1.415945 A    
C16   H4    1.083541 S    
C13   C136  1.484825 S    
C98   H22   1.083559 S    
C94   O18   1.221252 D    
C130  H88   1.110976 S    
C117  H57   1.111083 S    
C108  C109  1.531029 S    
C44   C98   1.492420 S    
C2    C57   1.470755 S    
C109  H46   1.110138 S    
C41   H9    1.080931 S    
C148  H128  1.110858 S    
C129  H86   1.114904 S    
O44   C146  1.414326 S    
C6    O36   1.387270 S    
C106  C107  1.526889 S    
C120  H64   1.111463 S    
C99   H23   1.111410 S    
C66   C68   1.407523 A    
O7    C3    1.288858 A    
O8    C4    1.294115 A    
C133  H95   1.110770 S    
C114  O30   1.221562 D    
C103  H32   1.111946 S    
C140  C141  1.526876 S    
C26   C42   1.390919 A    
C129  C130  1.535458 S    
O1    Cu1   1.972428 S    
C143  H115  1.111230 S    
O6    Cu2   1.935195 S    
C70   N6    1.375384 A    
C139  H107  1.110801 S    
C67   N5    1.363973 A    
O8    Cu1   1.939327 S    
C126  H78   1.110742 S    
O10   C63   1.344546 S    
N1    C9    1.371520 A    
N2    C10   1.370867 A    
C66   O37   1.380287 S    
C132  H93   1.114917 S    
C11   C13   1.410021 A    
C12   C14   1.412548 A    
C8    C24   1.402179 A    
C138  H104  1.109759 S    
C124  C125  1.524875 S    
C96   O20   1.220643 D    
C118  H60   1.110012 S    
C103  C104  1.524654 S    
C42   H10   1.080444 S    
C116  H56   1.068206 S    
C144  C145  1.525608 S    
C122  H68   1.109083 S    
C45   O23   1.384209 S    
C84   C85   1.440885 A    
C89   C91   1.405982 A    
