data_mof_unit_68024.cif
_audit_creation_date              2012-12-11T14:03:30-0500
_audit_creation_method            fapswitch 2.2
_symmetry_space_group_name_H-M    P1
_symmetry_Int_Tables_number       1
_space_group_crystal_system       monoclinic
_cell_length_a                    7.001886
_cell_length_b                    12.085159
_cell_length_c                    18.288471
_cell_angle_alpha                 90.0
_cell_angle_beta                  92.993072
_cell_angle_gamma                 90.0
_cell_volume                      1545.43931929

loop_
_atom_site_label
_atom_site_type_symbol
_atom_type_description
_atom_site_fract_x
_atom_site_fract_y
_atom_site_fract_z
_atom_type_partial_charge
O1    O     O_R   0.330540 0.606360 0.598870 -0.546181
O2    O     O_R   0.669460 0.106360 0.401130 -0.546181
O3    O     O_R   0.026770 0.620470 0.750430 -0.538017
O4    O     O_R   0.973230 0.120470 0.249570 -0.538018
O5    O     O_R   0.856460 0.393640 0.750930 -0.550506
O6    O     O_R   0.143540 0.893640 0.249070 -0.550506
C1    C     C_R   0.198532 0.648386 0.773523 0.714603
C2    C     C_R   0.801468 0.148386 0.226477 0.714604
O7    O     O_R   0.000920 0.620350 0.599420 -0.523837
O8    O     O_R   0.999080 0.120350 0.400580 -0.523838
O9    O     O_R   0.830430 0.393520 0.598850 -0.524478
O10   O     O_R   0.169570 0.893520 0.401150 -0.524477
C3    C     C_R   0.167330 0.649979 0.576393 0.752538
C4    C     C_R   0.832670 0.149979 0.423607 0.752538
O11   O     O_R   0.356570 0.606480 0.750960 -0.533809
O12   O     O_R   0.643430 0.106480 0.249040 -0.533809
O13   O     O_3   0.176990 0.425580 0.674890 -0.378642
O14   O     O_3   0.823010 0.925580 0.325110 -0.378642
V1    V     V_3+5 0.902170 0.513810 0.674910 1.504433
V2    V     V_3+5 0.097830 0.013810 0.325090 1.504433
O15   O     O_R   0.500800 0.379530 0.599380 -0.540173
O16   O     O_R   0.499200 0.879530 0.400620 -0.540174
C5    C     C_R   0.666967 0.356848 0.571984 0.769907
C6    C     C_R   0.333032 0.856848 0.428016 0.769908
O17   O     O_R   0.526650 0.379650 0.750390 -0.556600
O18   O     O_R   0.473350 0.879650 0.249610 -0.556600
C7    C     C_R   0.699493 0.346288 0.770153 0.687287
C8    C     C_R   0.300507 0.846288 0.229847 0.687287
V3    V     V_3+5 0.402160 0.486190 0.674900 1.458422
V4    V     V_3+5 0.597840 0.986190 0.325100 1.458422
O19   O     O_3   0.677210 0.574420 0.674910 -0.362879
O20   O     O_3   0.322790 0.074420 0.325090 -0.362879
C9    C     C_R   0.762024 0.074828 0.877705 0.249828
C10   C     C_R   0.237976 0.574828 0.122295 0.249828
C11   C     C_R   0.718199 0.260963 0.828327 -0.233649
C12   C     C_R   0.281801 0.760963 0.171673 -0.233648
C13   C     C_R   0.736908 0.337734 0.185787 -0.258590
C14   C     C_R   0.263091 0.837735 0.814213 -0.258590
C15   C     C_R   0.721804 0.420490 0.132159 0.504968
C16   C     C_R   0.278196 0.920490 0.867841 0.504968
C17   C     C_R   0.722353 0.390401 0.057285 0.160552
C18   C     C_R   0.277647 0.890400 0.942715 0.160552
C19   C     C_R   0.769735 0.279097 0.036048 0.039063
C20   C     C_R   0.230265 0.779097 0.963952 0.039062
C21   C     C_R   0.817195 0.204458 0.094183 0.003431
C22   C     C_R   0.182805 0.704458 0.905816 0.003430
C23   C     C_R   0.766706 0.235173 0.961934 0.012841
C24   C     C_R   0.233295 0.735173 0.038066 0.012841
C25   C     C_R   0.791586 0.119017 0.950024 -0.056139
C26   C     C_R   0.208414 0.619017 0.049976 -0.056138
C27   C     C_R   0.851059 0.052082 0.010674 0.493694
C28   C     C_R   0.148943 0.552081 0.989325 0.493694
C29   C     C_R   0.886224 0.100506 0.078806 -0.247086
C30   C     C_R   0.113778 0.600505 0.921194 -0.247086
C31   C     C_R   0.745337 0.301815 0.899251 -0.244279
C32   C     C_R   0.254663 0.801815 0.100748 -0.244278
C33   C     C_R   0.726496 0.144571 0.816632 0.373644
C34   C     C_R   0.273504 0.644571 0.183368 0.373643
C35   C     C_R   0.786815 0.231434 0.167614 -0.070346
C36   C     C_R   0.213185 0.731434 0.832386 -0.070346
H1    H     H_    0.777767 0.387120 0.901849 0.186984
H2    H     H_    0.222234 0.887119 0.098151 0.186984
H3    H     H_    0.713646 0.356080 0.242584 0.115696
H4    H     H_    0.286353 0.856080 0.757416 0.115695
H5    H     H_    0.950952 0.050261 0.122151 0.128303
H6    H     H_    0.049049 0.550261 0.877849 0.128302
C37   C     C_2   0.832756 0.242583 0.477434 -0.019846
C38   C     C_2   0.167244 0.742583 0.522566 -0.019846
C39   C     C_2   0.673326 0.271381 0.513052 -0.366596
C40   C     C_2   0.326674 0.771381 0.486948 -0.366596
H7    H     H_    0.540805 0.227567 0.499696 0.157437
H8    H     H_    0.459195 0.727567 0.500304 0.157437
O21   O     O_3   0.742874 0.092352 0.749095 -0.559063
C41   C     C_3   0.648404 0.141978 0.688201 0.094380
H9    H     H_    0.746143 0.203031 0.665330 0.122493
H10   H     H_    0.511177 0.180562 0.701214 0.122307
C42   C     C_3   0.606953 0.053246 0.630390 -0.665322
H11   H     H_    0.541697 0.979315 0.655117 0.233786
H12   H     H_    0.506111 0.085256 0.586656 0.171129
H13   H     H_    0.742007 0.028110 0.605892 0.235596
O22   O     O_3   0.257124 0.592352 0.250905 -0.559064
C43   C     C_3   0.351595 0.641978 0.311799 0.094380
H14   H     H_    0.253857 0.703031 0.334671 0.122493
H15   H     H_    0.488822 0.680562 0.298786 0.122306
C44   C     C_3   0.393046 0.553245 0.369609 -0.665321
H16   H     H_    0.458302 0.479315 0.344883 0.233786
H17   H     H_    0.493888 0.585256 0.413344 0.171128
H18   H     H_    0.257992 0.528110 0.394108 0.235596
O23   O     O_3   0.878954 0.939372 0.003811 -0.537810
C45   C     C_3   0.797499 0.880481 0.061739 0.070402
H19   H     H_    0.677207 0.923193 0.086956 0.143264
H20   H     H_    0.905181 0.865573 0.106666 0.118990
C46   C     C_3   0.724599 0.771965 0.033141 -0.580084
H21   H     H_    0.623739 0.784870 0.985345 0.254692
H22   H     H_    0.846732 0.722081 0.016116 0.243777
H23   H     H_    0.649319 0.728350 0.076383 0.224272
O24   O     O_3   0.121048 0.439371 0.996189 -0.537810
C47   C     C_3   0.202502 0.380481 0.938261 0.070405
H24   H     H_    0.322796 0.423192 0.913045 0.143264
H25   H     H_    0.094820 0.365573 0.893334 0.118989
C48   C     C_3   0.275401 0.271964 0.966859 -0.580083
H26   H     H_    0.376258 0.284869 0.014656 0.254692
H27   H     H_    0.153267 0.222079 0.983882 0.243775
H28   H     H_    0.350684 0.228349 0.923617 0.224272
I1    I     I_    0.767238 0.901032 0.850748 -0.358406
I2    I     I_    0.232762 0.401032 0.149252 -0.358407
I3    I     I_    0.630792 0.522853 0.987728 -0.503774
I4    I     I_    0.369210 0.022853 0.012272 -0.503775
O25   O     O_3   0.687828 0.530592 0.150235 -0.548198
C49   C     C_3   0.780922 0.561768 0.217622 0.078851
H29   H     H_    0.921596 0.520562 0.227309 0.183335
H30   H     H_    0.690042 0.540802 0.263300 0.140285
C50   C     C_3   0.815372 0.685367 0.217866 -0.668342
H31   H     H_    0.679702 0.730055 0.207006 0.215903
H32   H     H_    0.882520 0.711658 0.271386 0.204251
H33   H     H_    0.909873 0.706337 0.173654 0.210109
O26   O     O_3   0.312172 0.030592 0.849765 -0.548198
C51   C     C_3   0.219078 0.061768 0.782378 0.078853
H34   H     H_    0.078403 0.020563 0.772691 0.183334
H35   H     H_    0.309957 0.040802 0.736700 0.140285
C52   C     C_3   0.184629 0.185367 0.782134 -0.668344
H36   H     H_    0.320299 0.230055 0.792995 0.215904
H37   H     H_    0.117483 0.211658 0.728614 0.204251
H38   H     H_    0.090126 0.206337 0.826346 0.210108
I5    I     I_    0.098807 0.330485 0.487993 -0.408798
I6    I     I_    0.901193 0.830485 0.512007 -0.408798

loop_
_geom_bond_atom_site_label_1
_geom_bond_atom_site_label_2
_ccdc_geom_bond_type
V4    O20   S    
C46   H21   S    
O13   V3    S    
O21   C41   S    
C5    C39   S    
O4    C2    A    
V1    O19   S    
O22   C43   S    
C6    C40   S    
C23   C25   A    
C42   H11   S    
O9    V1    S    
C48   H26   S    
C41   H10   S    
O16   C6    A    
C46   H23   S    
O5    V1    S    
O3    C1    A    
C37   I5    S    
C2    C35   S    
V2    O20   S    
C44   H18   S    
C9    C25   A    
C47   H24   S    
O24   C47   S    
C28   O24   S    
C33   O21   S    
C39   H7    S    
O7    C3    A    
C51   H34   S    
C52   H38   S    
C49   H30   S    
O5    C7    A    
O7    V1    S    
O6    C8    A    
C20   C22   A    
C25   C27   A    
C41   C42   S    
C26   C28   A    
C4    C37   S    
O3    V1    S    
O14   V4    S    
C29   H5    S    
C50   H33   S    
C16   C18   A    
C16   O26   S    
C21   C29   A    
C2    O12   A    
C17   C19   A    
O10   V2    S    
C18   C20   A    
C13   H3    S    
C28   C30   A    
O11   V3    S    
C14   H4    S    
C42   H12   S    
O17   V3    S    
C13   C15   A    
C10   C26   A    
C41   H9    S    
C44   H17   S    
C11   C31   A    
C10   I2    S    
C9    I1    S    
C15   C17   A    
O8    C4    A    
C34   O22   S    
O8    V2    S    
C1    O11   A    
C7    C11   S    
C44   H16   S    
O15   V3    S    
C49   H29   S    
C37   C39   D    
C51   C52   S    
C12   C32   A    
C45   H20   S    
C22   C30   A    
O1    V3    S    
C24   C26   A    
C19   C21   A    
C49   C50   S    
C52   H36   S    
C13   C35   A    
C14   C36   A    
O18   V4    S    
C48   H28   S    
C43   H15   S    
O15   C5    A    
C32   H2    S    
O1    C3    A    
C47   C48   S    
C38   I6    S    
C1    C36   S    
C45   C46   S    
C23   C31   A    
C50   H31   S    
C48   H27   S    
C42   H13   S    
C24   C32   A    
C21   C35   A    
C9    C33   A    
O16   V4    S    
C22   C36   A    
O18   C8    A    
C19   C23   A    
C30   H6    S    
O17   C7    A    
C43   C44   S    
O6    V2    S    
O10   C6    A    
C12   C34   A    
O2    V4    S    
C11   C33   A    
V3    O19   S    
O25   C49   S    
C27   O23   S    
C14   C16   A    
C45   H19   S    
C46   H22   S    
C18   I4    S    
C31   H1    S    
O9    C5    A    
O13   V1    S    
O14   V2    S    
O2    C4    A    
C47   H25   S    
C51   H35   S    
C52   H37   S    
O4    V2    S    
C17   I3    S    
C15   O25   S    
C8    C12   S    
C38   C40   D    
C43   H14   S    
C10   C34   A    
C40   H8    S    
C27   C29   A    
O23   C45   S    
O26   C51   S    
O12   V4    S    
C20   C24   A    
C50   H32   S    
C3    C38   S    
