data_mof_unit_59172.cif
_audit_creation_date              2013-03-05T15:40:29-0500
_audit_creation_method            fapswitch 2.2
_symmetry_space_group_name_H-M    P1
_symmetry_Int_Tables_number       1
_space_group_crystal_system       triclinic
_cell_length_a                    19.129072
_cell_length_b                    10.962883
_cell_length_c                    18.785382
_cell_angle_alpha                 90.002315
_cell_angle_beta                  90.221633
_cell_angle_gamma                 89.999849
_cell_volume                      3939.44881654

loop_
_atom_site_label
_atom_site_type_symbol
_atom_site_description
_atom_site_fract_x
_atom_site_fract_y
_atom_site_fract_z
_atom_type_partial_charge
O1    O     O_R   0.215090 0.709860 0.828130 -0.443491
O2    O     O_R   0.784910 0.709860 0.171870 -0.450790
O3    O     O_R   0.715090 0.209860 0.828130 -0.450824
O4    O     O_R   0.284910 0.209860 0.171870 -0.443493
O5    O     O_R   0.236990 0.958390 0.823710 -0.436113
O6    O     O_R   0.763010 0.958390 0.176290 -0.436263
O7    O     O_R   0.736990 0.458390 0.823710 -0.436267
O8    O     O_R   0.263010 0.458390 0.176290 -0.436115
C1    C     C_R   0.271137 0.046032 0.851678 0.579618
C2    C     C_R   0.728862 0.046025 0.148320 0.582607
C3    C     C_R   0.771138 0.546029 0.851680 0.582532
C4    C     C_R   0.228863 0.546028 0.148322 0.579610
O9    O     O_R   0.332380 0.074750 0.830850 -0.511885
O10   O     O_R   0.667620 0.074750 0.169150 -0.511486
O11   O     O_R   0.832380 0.574750 0.830850 -0.511511
O12   O     O_R   0.167620 0.574750 0.169150 -0.511891
O13   O     O_R   0.445800 0.917770 0.825070 -0.516591
O14   O     O_R   0.554200 0.917770 0.174930 -0.517102
O15   O     O_R   0.945800 0.417770 0.825070 -0.517075
O16   O     O_R   0.054200 0.417770 0.174930 -0.516585
C5    C     C_R   0.471187 0.822602 0.853190 0.554210
C6    C     C_R   0.528817 0.822600 0.146807 0.554285
C7    C     C_R   0.971181 0.322602 0.853194 0.554322
C8    C     C_R   0.028812 0.322600 0.146811 0.554249
O17   O     O_R   0.456410 0.716580 0.829970 -0.498232
O18   O     O_R   0.543590 0.716580 0.170030 -0.496830
O19   O     O_R   0.956410 0.216580 0.829970 -0.496815
O20   O     O_R   0.043590 0.216580 0.170030 -0.498266
O21   O     O_R   0.321080 0.625290 0.822650 -0.527985
O22   O     O_R   0.678920 0.625290 0.177350 -0.532911
O23   O     O_R   0.821080 0.125290 0.822650 -0.532948
O24   O     O_R   0.178920 0.125290 0.177350 -0.527989
C9    C     C_R   0.262185 0.638401 0.852516 0.558393
C10   C     C_R   0.737817 0.638389 0.147486 0.549700
C11   C     C_R   0.762183 0.138392 0.852514 0.549626
C12   C     C_R   0.237815 0.138398 0.147483 0.558387
O25   O     O_R   0.214930 0.711450 0.668160 -0.492711
O26   O     O_R   0.785070 0.711450 0.331840 -0.510591
O27   O     O_R   0.714930 0.211450 0.668160 -0.510296
O28   O     O_R   0.285070 0.211450 0.331840 -0.492708
O29   O     O_R   0.236850 0.959870 0.675420 -0.469652
O30   O     O_R   0.763150 0.959870 0.324580 -0.476644
O31   O     O_R   0.736850 0.459870 0.675420 -0.475909
O32   O     O_R   0.263150 0.459870 0.324580 -0.469645
C13   C     C_R   0.270872 0.049529 0.649784 0.533774
C14   C     C_R   0.726806 0.045138 0.352180 0.579326
C15   C     C_R   0.773220 0.545058 0.647787 0.579249
C16   C     C_R   0.229126 0.549530 0.350217 0.533778
O33   O     O_R   0.332230 0.076350 0.670880 -0.543749
O34   O     O_R   0.667770 0.076350 0.329120 -0.538344
O35   O     O_R   0.832230 0.576350 0.670880 -0.538810
O36   O     O_R   0.167770 0.576350 0.329120 -0.543782
O37   O     O_R   0.445660 0.919250 0.676780 -0.506548
O38   O     O_R   0.554340 0.919250 0.323220 -0.511028
O39   O     O_R   0.945660 0.419250 0.676780 -0.511055
O40   O     O_R   0.054340 0.419250 0.323220 -0.506558
C17   C     C_R   0.471604 0.824345 0.649092 0.563801
C18   C     C_R   0.531472 0.823540 0.353185 0.572419
C19   C     C_R   0.968503 0.323532 0.646795 0.572489
C20   C     C_R   0.028383 0.324354 0.350902 0.563898
O41   O     O_R   0.456260 0.718170 0.670000 -0.501976
O42   O     O_R   0.543740 0.718170 0.330000 -0.483095
O43   O     O_R   0.956260 0.218170 0.670000 -0.482992
O44   O     O_R   0.043740 0.218170 0.330000 -0.502054
O45   O     O_R   0.320940 0.626760 0.674370 -0.494663
O46   O     O_R   0.679060 0.626760 0.325630 -0.505931
O47   O     O_R   0.820940 0.126760 0.674370 -0.506137
O48   O     O_R   0.179060 0.126760 0.325630 -0.494634
C21   C     C_R   0.274502 0.688498 0.638338 0.547657
C22   C     C_R   0.739978 0.633682 0.352198 0.561506
C23   C     C_R   0.760030 0.133683 0.647798 0.561584
C24   C     C_R   0.225498 0.188498 0.361663 0.547681
Cr1   Cr    Cr6+3 0.230530 0.836340 0.748870 1.145126
Cr2   Cr    Cr6+3 0.769470 0.836340 0.251130 1.131070
Cr3   Cr    Cr6+3 0.730530 0.336340 0.748870 1.131494
Cr4   Cr    Cr6+3 0.269470 0.336340 0.251130 1.145133
Cr5   Cr    Cr6+3 0.387420 0.989430 0.750820 1.031193
Cr6   Cr    Cr6+3 0.612580 0.989430 0.249180 1.045323
Cr7   Cr    Cr6+3 0.887420 0.489430 0.750820 1.045185
Cr8   Cr    Cr6+3 0.112580 0.489430 0.249180 1.031170
Cr9   Cr    Cr6+3 0.385640 0.677860 0.749230 1.067490
Cr10  Cr    Cr6+3 0.614360 0.677860 0.250770 1.075873
Cr11  Cr    Cr6+3 0.885640 0.177860 0.749230 1.075750
Cr12  Cr    Cr6+3 0.114360 0.177860 0.250770 1.067398
O49   O     O_3   0.334530 0.834540 0.749640 -0.298859
O50   O     O_3   0.665470 0.834540 0.250360 -0.283545
O51   O     O_3   0.834530 0.334540 0.749640 -0.283590
O52   O     O_3   0.165470 0.334540 0.250360 -0.298846
H1    H     H_    0.499186 0.635491 0.937582 0.200118
H2    H     H_    0.500844 0.635489 0.062399 0.200208
H3    H     H_    0.999148 0.135489 0.937596 0.200217
H4    H     H_    0.000806 0.135491 0.062413 0.200106
C25   C     C_R   0.501906 0.832885 0.074341 0.023628
C26   C     C_R   0.498109 0.832888 0.925651 0.024019
C27   C     C_R   0.001885 0.332886 0.074353 0.024032
C28   C     C_R   0.998088 0.332887 0.925662 0.023632
C29   C     C_R   0.499316 0.946590 0.037695 0.073237
C30   C     C_R   0.500697 0.946590 0.962302 0.073786
C31   C     C_R   0.999298 0.446590 0.037707 0.073790
C32   C     C_R   0.000679 0.446591 0.962314 0.073229
C33   C     C_R   0.500655 0.723555 0.963724 -0.133736
C34   C     C_R   0.499372 0.723553 0.036262 -0.133932
C35   C     C_R   0.000621 0.223554 0.963737 -0.133919
C36   C     C_R   0.999338 0.223554 0.036275 -0.133748
C37   C     C_R   0.496132 0.060200 0.073725 -0.015275
C38   C     C_R   0.503877 0.060198 0.926274 -0.015398
C39   C     C_R   0.996120 0.560198 0.073740 -0.015392
C40   C     C_R   0.003866 0.560201 0.926289 -0.015276
C41   C     C_R   0.999687 0.670010 0.036871 0.012129
C42   C     C_R   0.000312 0.670011 0.963167 0.012671
C43   C     C_R   0.499689 0.170011 0.036854 0.012658
C44   C     C_R   0.500314 0.170010 0.963149 0.012149
H5    H     H_    0.486508 0.067310 0.130108 0.146038
H6    H     H_    0.513503 0.067304 0.869891 0.143601
H7    H     H_    0.986493 0.567305 0.130124 0.143604
H8    H     H_    0.013488 0.567310 0.869906 0.146043
H9    H     H_    0.998510 0.755390 0.065704 0.184689
H10   H     H_    0.001494 0.755393 0.934339 0.185716
H11   H     H_    0.498507 0.255393 0.065685 0.185700
H12   H     H_    0.501492 0.255390 0.934320 0.184717
C45   C     C_2   0.254111 0.584556 0.923233 0.193290
C46   C     C_2   0.745888 0.584526 0.076774 0.195685
C47   C     C_2   0.754107 0.084531 0.923223 0.195667
C48   C     C_2   0.245884 0.084551 0.076764 0.193294
C49   C     C_2   0.255447 0.603178 0.083274 -0.044137
C50   C     C_2   0.744559 0.603172 0.916735 -0.043203
C51   C     C_2   0.755442 0.103161 0.083265 -0.043149
C52   C     C_2   0.244554 0.103189 0.916727 -0.044142
C53   C     C_2   0.307651 0.554793 0.043959 0.200725
C54   C     C_2   0.692352 0.554788 0.956045 0.200858
C55   C     C_2   0.807643 0.054765 0.043949 0.200853
C56   C     C_2   0.192344 0.054816 0.956035 0.200734
C57   C     C_2   0.310717 0.579241 0.966677 -0.115694
C58   C     C_2   0.689285 0.579232 0.033328 -0.114543
C59   C     C_2   0.810711 0.079213 0.966668 -0.114540
C60   C     C_2   0.189278 0.079260 0.033319 -0.115693
H13   H     H_    0.362457 0.596528 0.945293 0.138619
H14   H     H_    0.637546 0.596544 0.054708 0.138949
H15   H     H_    0.862451 0.096503 0.945287 0.138960
H16   H     H_    0.137540 0.096569 0.054702 0.138613
H17   H     H_    0.222462 0.673463 0.060257 0.150866
H18   H     H_    0.777547 0.673448 0.939759 0.150629
H19   H     H_    0.722458 0.173446 0.060247 0.150632
H20   H     H_    0.277543 0.173465 0.939749 0.150866
C61   C     C_2   0.508850 0.836770 0.583017 -0.061353
C62   C     C_2   0.510961 0.830101 0.426680 -0.054832
C63   C     C_2   0.988931 0.330074 0.573267 -0.054749
C64   C     C_2   0.991073 0.336848 0.416944 -0.061043
C65   C     C_2   0.536651 0.743471 0.470017 -0.069178
C66   C     C_2   0.519545 0.737059 0.544193 -0.043844
C67   C     C_2   0.980112 0.237155 0.455701 -0.044194
C68   C     C_2   0.963065 0.243604 0.529913 -0.069626
H21   H     H_    0.567593 0.667849 0.449854 0.181467
H22   H     H_    0.512729 0.646011 0.565995 0.187599
H23   H     H_    0.986708 0.146107 0.433827 0.187071
H24   H     H_    0.932022 0.168126 0.550093 0.181024
H25   H     H_    0.480327 0.906698 0.445789 0.104206
H26   H     H_    0.518645 0.927470 0.561915 0.087247
H27   H     H_    0.981445 0.427574 0.438091 0.087257
H28   H     H_    0.019668 0.406544 0.554163 0.104203
C69   C     C_2   0.268533 0.656769 0.564057 -0.058123
C70   C     C_2   0.753126 0.563053 0.415594 -0.027629
C71   C     C_2   0.746920 0.062990 0.584415 -0.028296
C72   C     C_2   0.231468 0.156769 0.435944 -0.058071
C73   C     C_2   0.260643 0.620760 0.408156 0.197055
C74   C     C_2   0.759891 0.582044 0.575580 0.234802
C75   C     C_2   0.740130 0.082226 0.424374 0.234345
C76   C     C_2   0.239348 0.120756 0.591846 0.197012
C77   C     C_2   0.219045 0.694922 0.446534 -0.140887
C78   C     C_2   0.810472 0.551152 0.528583 -0.117921
C79   C     C_2   0.689701 0.050758 0.471414 -0.118097
C80   C     C_2   0.280940 0.194934 0.553476 -0.140893
C81   C     C_2   0.235758 0.732831 0.519245 -0.125389
C82   C     C_2   0.809733 0.585098 0.454414 -0.101073
C83   C     C_2   0.690326 0.084890 0.545557 -0.100926
C84   C     C_2   0.264229 0.232840 0.480764 -0.125405
H29   H     H_    0.166072 0.715018 0.429119 0.139076
H30   H     H_    0.856570 0.501145 0.546193 0.126865
H31   H     H_    0.643822 0.000090 0.453858 0.127077
H32   H     H_    0.333908 0.215051 0.570897 0.139113
H33   H     H_    0.212743 0.816954 0.538840 0.166767
H34   H     H_    0.853944 0.636112 0.433810 0.149440
H35   H     H_    0.646098 0.135949 0.566085 0.149703
H36   H     H_    0.287237 0.316971 0.461175 0.166722
H37   H     H_    0.289059 0.569354 0.546692 0.146091
H38   H     H_    0.710829 0.507762 0.436940 0.139879
H39   H     H_    0.789246 0.007722 0.563104 0.139156
H40   H     H_    0.210950 0.069348 0.453302 0.146115
N1    N     N_R   0.334672 0.611209 0.422985 0.061675
O53   O     O_R   0.369117 0.705818 0.445876 -0.364071
O54   O     O_R   0.369003 0.511814 0.408623 -0.330443
N2    N     N_R   0.701994 0.662061 0.560557 0.042693
O55   O     O_R   0.707167 0.747063 0.512513 -0.386110
O56   O     O_R   0.651760 0.669639 0.606799 -0.358884
N3    N     N_R   0.797603 0.163271 0.439267 0.042810
O57   O     O_R   0.792256 0.247649 0.487664 -0.385734
O58   O     O_R   0.847479 0.172288 0.392714 -0.358994
N4    N     N_R   0.165320 0.111173 0.577010 0.061715
O59   O     O_R   0.130859 0.205765 0.554122 -0.363913
O60   O     O_R   0.131005 0.011760 0.591363 -0.330430
N5    N     N_R   0.363836 0.486000 0.075533 0.094204
O61   O     O_R   0.398594 0.409293 0.036510 -0.339631
O62   O     O_R   0.390393 0.519722 0.136333 -0.328297
N6    N     N_R   0.636165 0.486005 0.924466 0.094291
O63   O     O_R   0.601405 0.409297 0.963482 -0.339765
O64   O     O_R   0.609605 0.519746 0.863672 -0.332081
N7    N     N_R   0.863824 0.985963 0.075521 0.094292
O65   O     O_R   0.898571 0.909239 0.036500 -0.339766
O66   O     O_R   0.890396 0.019700 0.136313 -0.332131
N8    N     N_R   0.136154 0.986042 0.924454 0.094207
O67   O     O_R   0.101382 0.909351 0.963472 -0.339639
O68   O     O_R   0.109607 0.019768 0.863651 -0.328298
N9    N     N_R   0.185432 0.560259 0.948669 0.039910
O69   O     O_R   0.170199 0.455342 0.977055 -0.378164
O70   O     O_R   0.142036 0.650537 0.953706 -0.332475
N10   N     N_R   0.814564 0.560194 0.051343 0.039290
O71   O     O_R   0.829783 0.455265 0.022959 -0.378750
O72   O     O_R   0.857967 0.650458 0.046295 -0.332653
N11   N     N_R   0.685428 0.060229 0.948655 0.039268
O73   O     O_R   0.670196 0.955308 0.977036 -0.378792
O74   O     O_R   0.642035 0.150509 0.953702 -0.332639
N12   N     N_R   0.314560 0.060225 0.051329 0.039909
O75   O     O_R   0.329780 0.955300 0.022940 -0.378152
O76   O     O_R   0.357965 0.150487 0.046291 -0.332486

loop_
_geom_bond_atom_site_label_1
_geom_bond_atom_site_label_2
_geom_bond_distance
_ccdc_geom_bond_type
C18   O42   1.256946 A    
Cr11  O51   1.976449 S    
O4    C12   1.277505 A    
C57   H13   1.086253 S    
C33   C34   1.362970 A    
O39   C19   1.269332 A    
C41   C42   1.384665 A    
O20   Cr12  2.073043 S    
N5    O62   1.301832 A    
N5    O61   1.300128 A    
O37   Cr5   1.944099 S    
C43   C44   1.384667 A    
C64   C67   1.330323 D    
C40   H8    1.078572 S    
C60   H16   1.086253 S    
C55   N7    1.439016 S    
C82   H34   1.086432 S    
O29   Cr1   1.937485 S    
Cr7   O51   1.976683 S    
C29   C30   1.416635 A    
C41   H9    1.081692 S    
O27   Cr3   2.063671 S    
C62   H25   1.085813 S    
C38   C44   1.390699 A    
N9    O69   1.301324 A    
O7    C3    1.274033 A    
C80   C84   1.461948 S    
O39   Cr7   1.944099 S    
C76   N4    1.446019 S    
C38   H6    1.078581 S    
O24   C12   1.268685 A    
C37   H5    1.078574 S    
C12   C48   1.462426 S    
C21   C69   1.442190 S    
C17   C61   1.440039 S    
O38   C18   1.269289 A    
C27   C31   1.424773 A    
O46   Cr10  1.951873 S    
C5    C26   1.457859 S    
C50   C54   1.352672 D    
O21   C9    1.268689 A    
O8    Cr4   1.944459 S    
O23   Cr11  1.942371 S    
C7    C28   1.457882 S    
C71   H39   1.088776 S    
O30   C14   1.276211 A    
O32   Cr4   1.937408 S    
C1    O9    1.276014 A    
C46   C58   1.354637 D    
C65   H21   1.087574 S    
C3    O11   1.276019 A    
N8    O67   1.300127 A    
O11   Cr7   2.062942 S    
C16   C73   1.467233 S    
C68   H24   1.087573 S    
C26   C33   1.396552 A    
C49   H17   1.084756 S    
C73   N1    1.445992 S    
C67   C68   1.434693 S    
N4    O59   1.301004 A    
O32   C16   1.274396 A    
C67   H23   1.086947 S    
O7    Cr3   1.944383 S    
O3    Cr3   2.056776 S    
Cr4   O52   1.989516 S    
O47   C23   1.268081 A    
C61   C66   1.330319 D    
O2    Cr2   2.056695 S    
C56   C60   1.477699 S    
C53   N5    1.439023 S    
C80   H32   1.086196 S    
O42   Cr10  2.061779 S    
C81   H33   1.086761 S    
C10   C46   1.462383 S    
O14   C6    1.265458 A    
C9    C45   1.462432 S    
C39   C41   1.390699 A    
C79   H31   1.088703 S    
C54   C58   1.477682 S    
C47   N11   1.424805 S    
C63   H28   1.085794 S    
C52   C56   1.352666 D    
C77   H29   1.086197 S    
C71   C83   1.325272 D    
O6    Cr2   1.944459 S    
O35   Cr7   2.065320 S    
N9    O70   1.295441 A    
C73   C77   1.348462 D    
O24   Cr12  1.942338 S    
O9    Cr5   2.062942 S    
C32   C40   1.418921 A    
C1    C52   1.466008 S    
O30   Cr2   1.937408 S    
C14   C75   1.437642 S    
O22   C10   1.268684 A    
O1    C9    1.277497 A    
N7    O65   1.300128 A    
O48   Cr12  1.951873 S    
O14   Cr6   1.948765 S    
C4    O12   1.276018 A    
C3    C50   1.466022 S    
C56   N8    1.439025 S    
N10   O71   1.301322 A    
C2    O10   1.276022 A    
C8    C27   1.457856 S    
H3    C35   1.083459 S    
N11   O73   1.301323 A    
C44   H12   1.081690 S    
C15   C74   1.437594 S    
O16   Cr8   1.948765 S    
C48   C60   1.354653 D    
C15   O35   1.255502 A    
C4    C49   1.466013 S    
Cr10  O50   1.976455 S    
C79   C83   1.442184 S    
C50   H18   1.084756 S    
O13   C5    1.265482 A    
O28   Cr4   2.063751 S    
C47   C59   1.354638 D    
O48   C24   1.304117 A    
O12   Cr8   2.062999 S    
C64   H27   1.086986 S    
N2    O56   1.300520 A    
O22   Cr10  1.942338 S    
O15   C7    1.265476 A    
N3    O58   1.300502 A    
O5    C1    1.274035 A    
C76   C80   1.348465 D    
N11   O74   1.295436 A    
C62   C65   1.342837 D    
C69   C81   1.339026 D    
O25   C21   1.296416 A    
O45   Cr9   1.951843 S    
C31   C32   1.416637 A    
O3    C11   1.277509 A    
O8    C4    1.274036 A    
Cr1   O49   1.989520 S    
O13   Cr5   1.948806 S    
C13   O33   1.271815 A    
C24   C72   1.442211 S    
C51   H19   1.084756 S    
O47   Cr11  1.951843 S    
Cr2   O50   1.989516 S    
N12   O76   1.295437 A    
C42   H10   1.081690 S    
C52   H20   1.084756 S    
C39   H7    1.078583 S    
C40   C42   1.390705 A    
C23   C71   1.441817 S    
C53   C57   1.477705 S    
C43   H11   1.081690 S    
Cr3   O51   1.989520 S    
O26   C22   1.272684 A    
N6    O64   1.301830 A    
O21   Cr9   1.942371 S    
C74   C78   1.355327 D    
C7    O19   1.272850 A    
C46   N10   1.424802 S    
C66   H22   1.086954 S    
C6    C25   1.457879 S    
O23   C11   1.268689 A    
C19   O43   1.256937 A    
C2    C51   1.466025 S    
C25   C29   1.424794 A    
O34   Cr6   2.065262 S    
C54   N6    1.439017 S    
C27   C36   1.396540 A    
O31   Cr3   1.937485 S    
C70   H38   1.088755 S    
O26   Cr2   2.063751 S    
O25   Cr1   2.063671 S    
C84   H36   1.086765 S    
C5    O17   1.272847 A    
O37   C17   1.265427 A    
O28   C24   1.296421 A    
H1    C33   1.083457 S    
C48   N12   1.424816 S    
C83   H35   1.086433 S    
C75   N3    1.440132 S    
O5    Cr1   1.944383 S    
C8    O20   1.272856 A    
N10   O72   1.295431 A    
N4    O60   1.301058 A    
C72   H40   1.086231 S    
O17   Cr9   2.073015 S    
O40   Cr8   1.944144 S    
C25   C34   1.396545 A    
C58   H14   1.086251 S    
C75   C79   1.355387 D    
C18   C62   1.438563 S    
C17   O41   1.263409 A    
C70   C82   1.325385 D    
C78   C82   1.442177 S    
C31   C39   1.418924 A    
C14   O34   1.255508 A    
C55   C59   1.477687 S    
C30   C38   1.418921 A    
O29   C13   1.274400 A    
C69   H37   1.086233 S    
C20   O44   1.263493 A    
C59   H15   1.086250 S    
O1    Cr1   2.056776 S    
N2    O55   1.301322 A    
N8    O68   1.301833 A    
C11   C47   1.462388 S    
C63   C68   1.342971 D    
C29   C37   1.418926 A    
Cr8   O52   1.976680 S    
O43   Cr11  2.061806 S    
H2    C34   1.083460 S    
C65   C66   1.434292 S    
C61   H26   1.086989 S    
C77   C81   1.461927 S    
O2    C10   1.277516 A    
O46   C22   1.268182 A    
Cr12  O52   1.976455 S    
O45   C21   1.304118 A    
C28   C32   1.424783 A    
O19   Cr11  2.073015 S    
O33   Cr5   2.065320 S    
C72   C84   1.339025 D    
C74   N2    1.439906 S    
C26   C30   1.424761 A    
O10   Cr6   2.062999 S    
C37   C43   1.390704 A    
N1    O53   1.300989 A    
C13   C76   1.467279 S    
C51   C55   1.352677 D    
O4    Cr4   2.056695 S    
O6    C2    1.274036 A    
H4    C36   1.083457 S    
Cr5   O49   1.976683 S    
N3    O57   1.301287 A    
C49   C53   1.352668 D    
C16   O36   1.271790 A    
O40   C20   1.265428 A    
N6    O63   1.300129 A    
O44   Cr12  2.061779 S    
O18   Cr10  2.073043 S    
Cr6   O50   1.976680 S    
C6    O18   1.272859 A    
C28   C35   1.396560 A    
C22   C70   1.441811 S    
C35   C36   1.362968 A    
N7    O66   1.301830 A    
O27   C23   1.272778 A    
O41   Cr9   2.061806 S    
C20   C64   1.440177 S    
C45   C57   1.354652 D    
C78   H30   1.088724 S    
O36   Cr8   2.065262 S    
O31   C15   1.276132 A    
N12   O75   1.301325 A    
O16   C8    1.265462 A    
Cr9   O49   1.976449 S    
O15   Cr7   1.948806 S    
C45   N9    1.424821 S    
N1    O54   1.301059 A    
O38   Cr6   1.944144 S    
C19   C63   1.438709 S    
