data_mof_unit_21247.cif
_audit_creation_date              2012-12-10T18:11:08-0500
_audit_creation_method            fapswitch 2.2
_symmetry_space_group_name_H-M    P1
_symmetry_Int_Tables_number       1
_space_group_crystal_system       triclinic
_cell_length_a                    10.871593
_cell_length_b                    9.563355
_cell_length_c                    10.621789
_cell_angle_alpha                 89.133028
_cell_angle_beta                  91.844992
_cell_angle_gamma                 90.311071
_cell_volume                      1103.62339818

loop_
_atom_site_label
_atom_site_type_symbol
_atom_type_description
_atom_site_fract_x
_atom_site_fract_y
_atom_site_fract_z
_atom_type_partial_charge
C1    C     C_R   0.260407 0.499674 0.496394 0.808479
C2    C     C_3   0.498387 0.501908 0.123469 -0.050936
C3    C     C_3   0.083482 0.591770 0.612633 0.287698
C4    C     C_3   0.074434 0.345509 0.518340 0.285496
C5    C     C_3   0.940997 0.588767 0.624535 0.089815
C6    C     C_3   0.932897 0.342860 0.531389 0.026990
C7    C     C_3   0.063581 0.559090 0.379714 -0.607859
C8    C     C_3   0.123122 0.498396 0.502397 0.019708
C9    C     C_3   0.879991 0.495831 0.518130 -0.107250
C10   C     C_3   0.921839 0.556795 0.388674 -0.480575
C11   C     C_3   0.592357 0.081705 0.594539 0.142350
C12   C     C_3   0.610656 0.921159 0.570587 0.131591
C13   C     C_3   0.379808 0.081523 0.538935 -0.319755
C14   C     C_3   0.387156 0.916331 0.557209 -0.334899
C15   C     C_3   0.521791 0.085730 0.374947 0.298211
C16   C     C_3   0.505597 0.918857 0.372218 0.324503
C17   C     C_R   0.499964 0.500801 0.260053 0.805481
C18   C     C_R   0.740095 0.499227 0.512190 0.831573
C19   C     C_R   0.496390 0.499192 0.740360 0.854592
C20   C     C_3   0.391754 0.558182 0.040381 -0.228954
C21   C     C_3   0.504742 0.368821 0.045863 -0.169393
C22   C     C_3   0.398689 0.425333 0.960318 0.233044
C23   C     C_3   0.493558 0.498216 0.877846 -0.037957
C24   C     C_3   0.486997 0.631803 0.956398 -0.156519
C25   C     C_3   0.599863 0.442088 0.962176 -0.141738
C26   C     C_3   0.593695 0.575377 0.042274 -0.112916
Cu1   Cu    Cu3+1 0.499860 0.642410 0.500060 0.975278
Cu2   Cu    Cu3+1 0.499860 0.357590 0.500060 0.993321
H1    H     H_    0.886813 0.665269 0.374471 0.225327
H2    H     H_    0.881612 0.493430 0.310308 0.206298
H3    H     H_    0.679690 0.133528 0.577247 0.181203
H4    H     H_    0.692263 0.912876 0.510336 0.170358
H5    H     H_    0.346998 0.130065 0.625596 0.247300
H6    H     H_    0.384226 0.887990 0.658976 0.210372
H7    H     H_    0.451579 0.130263 0.306857 0.067500
H8    H     H_    0.417427 0.893793 0.320058 0.048448
H9    H     H_    0.307616 0.106595 0.465393 0.135409
H10   H     H_    0.303426 0.870372 0.511608 0.166078
H11   H     H_    0.306646 0.605994 0.075094 0.159171
H12   H     H_    0.511826 0.260432 0.084076 0.158158
H13   H     H_    0.478332 0.740255 0.918569 0.187634
H14   H     H_    0.683652 0.390356 0.929330 0.204681
H15   H     H_    0.673641 0.637017 0.078739 0.173618
H16   H     H_    0.109753 0.702639 0.590781 0.048587
H17   H     H_    0.096419 0.287638 0.431153 0.044868
H18   H     H_    0.908309 0.697326 0.606865 0.113951
H19   H     H_    0.893596 0.280983 0.451601 0.124906
H20   H     H_    0.095865 0.668335 0.363329 0.205721
H21   H     H_    0.091231 0.497063 0.297498 0.206470
N1    N     N_3   0.500250 0.143650 0.502780 -0.182048
N2    N     N_3   0.500250 0.856350 0.502780 -0.162915
O1    O     O_R   0.317570 0.620260 0.500070 -0.633224
O2    O     O_R   0.317570 0.379740 0.500070 -0.561699
O3    O     O_R   0.499850 0.620240 0.316900 -0.545586
O4    O     O_R   0.499850 0.379760 0.316900 -0.584379
O5    O     O_R   0.682190 0.620260 0.500030 -0.545927
O6    O     O_R   0.682190 0.379740 0.500030 -0.553320
O7    O     O_R   0.499910 0.620280 0.683200 -0.574961
O8    O     O_R   0.499910 0.379720 0.683200 -0.541211
I1    I     I_    0.243806 0.296290 0.913918 -0.225836
I2    I     I_    0.549997 0.114095 0.795324 -0.354721
I3    I     I_    0.695255 0.818133 0.731287 -0.321271
O9    O     O_3   0.639579 0.126588 0.336312 -0.700113
H22   H     H_    0.637858 0.125510 0.242854 0.321015
O10   O     O_3   0.602734 0.859466 0.307056 -0.686241
H23   H     H_    0.584853 0.876310 0.215808 0.310020
O11   O     O_3   0.144504 0.549176 0.725480 -0.623527
H24   H     H_    0.219823 0.607599 0.736172 0.313218
O12   O     O_3   0.134844 0.279977 0.622093 -0.619094
H25   H     H_    0.134245 0.178044 0.605606 0.318616
I4    I     I_    0.893922 0.548214 0.820218 -0.235543
I5    I     I_    0.884730 0.216991 0.696230 -0.256689

loop_
_geom_bond_atom_site_label_1
_geom_bond_atom_site_label_2
_ccdc_geom_bond_type
C7    C10   S    
C1    C8    S    
C16   N2    S    
C4    C8    S    
C6    C9    S    
Cu1   O3    S    
C7    C8    S    
Cu2   O6    S    
C13   H5    S    
C24   C26   S    
C22   I1    S    
C15   C16   S    
C15   N1    S    
C1    O2    A    
Cu2   N1    S    
C20   C24   S    
C23   C24   S    
C9    C10   S    
C17   O4    A    
C13   H9    S    
C18   O5    A    
C11   H3    S    
C13   C14   S    
C12   H4    S    
C2    C17   S    
C24   H13   S    
C15   H7    S    
C4    O12   S    
Cu2   O4    S    
Cu1   N2    S    
C26   H15   S    
C4    H17   S    
C19   O7    A    
C3    H16   S    
C6    H19   S    
C2    C20   S    
O11   H24   S    
C7    H21   S    
C4    C6    S    
C3    C8    S    
C20   H11   S    
Cu1   O5    S    
C19   O8    A    
C25   C26   S    
C6    I5    S    
O9    H22   S    
C19   C23   S    
C5    C9    S    
C14   H10   S    
C12   I3    S    
C10   H2    S    
C18   O6    A    
C14   N2    S    
C11   C12   S    
C2    C21   S    
C2    C26   S    
C20   C22   S    
C3    C5    S    
C12   N2    S    
Cu1   O1    S    
Cu2   O8    S    
C21   C25   S    
C3    O11   S    
C11   I2    S    
Cu1   O7    S    
C25   H14   S    
C14   H6    S    
Cu2   O2    S    
C5    H18   S    
C7    H20   S    
C5    I4    S    
C11   N1    S    
C16   H8    S    
C10   H1    S    
C21   H12   S    
C23   C25   S    
O12   H25   S    
C1    O1    A    
C13   N1    S    
C9    C18   S    
O10   H23   S    
Cu1   Cu2   S    
C15   O9    S    
C22   C23   S    
C16   O10   S    
C21   C22   S    
C17   O3    A    
