data_mof_unit_30551.cif
_audit_creation_date              2012-12-10T17:02:03-0500
_audit_creation_method            fapswitch 2.2
_symmetry_space_group_name_H-M    P1
_symmetry_Int_Tables_number       1
_space_group_crystal_system       triclinic
_cell_length_a                    10.80377
_cell_length_b                    10.879606
_cell_length_c                    9.829133
_cell_angle_alpha                 109.932852
_cell_angle_beta                  97.786474
_cell_angle_gamma                 92.4268
_cell_volume                      1071.22550721

loop_
_atom_site_label
_atom_site_type_symbol
_atom_type_description
_atom_site_fract_x
_atom_site_fract_y
_atom_site_fract_z
_atom_type_partial_charge
C1    C     C_R   0.484880 0.253634 0.442351 0.899125
C2    C     C_R   0.084157 0.619965 0.604954 -0.022284
C3    C     C_R   0.130316 0.510213 0.506872 -0.100070
C4    C     C_R   0.048880 0.407740 0.404465 -0.279538
C5    C     C_R   0.919984 0.409712 0.398266 0.451696
C6    C     C_R   0.871901 0.515924 0.497065 -0.192646
C7    C     C_2   0.464562 0.113027 0.414154 -0.436349
C8    C     C_2   0.429026 0.067404 0.515411 0.533668
C9    C     C_2   0.484036 0.884119 0.590949 -0.348121
C10   C     C_2   0.429646 0.926398 0.487043 -0.321591
C11   C     C_2   0.503471 0.522328 0.085126 0.558982
C12   C     C_R   0.263017 0.502278 0.502155 0.784774
C13   C     C_2   0.478702 0.502804 0.923821 -0.161659
C14   C     C_R   0.499727 0.745373 0.558502 0.903959
C15   C     C_R   0.737611 0.506087 0.499600 0.946393
C16   C     C_R   0.165557 0.726505 0.707157 -0.296942
C17   C     C_R   0.118411 0.835287 0.803795 0.466766
C18   C     C_R   0.989876 0.844839 0.784502 -0.264293
C19   C     C_R   0.907989 0.745931 0.676112 0.438918
C20   C     C_R   0.952921 0.626144 0.594904 -0.081391
Cu1   Cu    Cu3+1 0.521920 0.521810 0.644910 0.978787
Cu2   Cu    Cu3+1 0.478080 0.478190 0.355090 0.992889
H1    H     H_    0.085979 0.323593 0.331316 0.159214
H2    H     H_    0.393784 0.444603 0.857223 0.158574
H3    H     H_    0.953542 0.934400 0.847541 0.172538
H4    H     H_    0.394820 0.858403 0.377148 0.154439
N1    N     N_2   0.445130 0.445430 0.137370 -0.317109
N2    N     N_2   0.554930 0.554500 0.862630 -0.287824
O1    O     O_R   0.511700 0.332330 0.577400 -0.517413
O2    O     O_R   0.474680 0.295500 0.332650 -0.581860
O3    O     O_R   0.338160 0.518420 0.622400 -0.595393
O4    O     O_R   0.301140 0.481590 0.377650 -0.588136
O5    O     O_R   0.525320 0.704500 0.667350 -0.567151
O6    O     O_R   0.488300 0.667670 0.422600 -0.537099
O7    O     O_R   0.698860 0.518410 0.622350 -0.573507
O8    O     O_R   0.661840 0.481580 0.377600 -0.526049
H5    H     H_    0.478969 0.045133 0.308370 0.093321
O9    O     O_3   0.592229 0.620961 0.180067 -0.547360
C21   C     C_3   0.561952 0.745017 0.175176 -0.324202
H6    H     H_    0.459332 0.751054 0.148147 0.129781
H7    H     H_    0.612548 0.773271 0.097997 0.157220
H8    H     H_    0.595146 0.820412 0.284116 0.182978
H9    H     H_    0.641976 0.594581 0.922054 0.224763
H10   H     H_    0.380362 0.372203 0.064882 0.147516
H11   H     H_    0.265605 0.728318 0.710547 0.169446
O10   O     O_3   0.194544 0.942809 0.904455 -0.586313
C22   C     C_3   0.298092 0.904019 0.978815 -0.332281
H12   H     H_    0.375601 0.884545 0.912936 0.172284
H13   H     H_    0.272128 0.817730 0.009288 0.153268
H14   H     H_    0.333787 0.986601 0.081954 0.191337
O11   O     O_3   0.789206 0.776725 0.636581 -0.584299
C23   C     C_3   0.795956 0.834668 0.528609 -0.325328
H15   H     H_    0.799332 0.757913 0.420496 0.194800
H16   H     H_    0.877193 0.910546 0.557312 0.151799
H17   H     H_    0.711520 0.886519 0.518621 0.188157
O12   O     O_3   0.840642 0.301675 0.305607 -0.586796
C24   C     C_3   0.834735 0.298487 0.160141 -0.266628
H18   H     H_    0.807664 0.392785 0.149186 0.175042
H19   H     H_    0.761449 0.220106 0.088754 0.189710
H20   H     H_    0.925071 0.274208 0.119644 0.152386
O13   O     O_3   0.411448 0.153014 0.651828 -0.559084
C25   C     C_3   0.290685 0.123011 0.678207 -0.286656
H21   H     H_    0.282986 0.026935 0.694408 0.203962
H22   H     H_    0.216548 0.124239 0.588240 0.145917
H23   H     H_    0.273672 0.199285 0.780705 0.177356
H24   H     H_    0.518505 0.952736 0.700960 0.193608

loop_
_geom_bond_atom_site_label_1
_geom_bond_atom_site_label_2
_ccdc_geom_bond_type
C16   H11   S    
C14   O6    A    
C11   O9    S    
C9    C14   S    
C13   N2    D    
C25   H21   S    
Cu1   O7    S    
C2    C16   A    
C21   H8    S    
N2    H9    S    
C6    C20   A    
C9    C10   D    
C19   C20   A    
C5    O12   S    
C22   H12   S    
C23   H17   S    
C11   N1    D    
C8    O13   S    
C9    H24   S    
C10   H4    S    
C14   O5    A    
C1    O1    A    
C2    C3    A    
C7    H5    S    
C7    C8    D    
C22   H13   S    
Cu1   Cu2   S    
C12   O4    A    
Cu1   O3    S    
C24   H18   S    
C5    C6    A    
C18   H3    S    
Cu2   O4    S    
C15   O7    A    
C1    O2    A    
Cu1   N2    S    
C23   H16   S    
C17   C18   A    
C22   H14   S    
Cu2   N1    S    
C12   O3    A    
O13   C25   S    
Cu2   O6    S    
C24   H19   S    
Cu1   O5    S    
O12   C24   S    
C2    C20   A    
O11   C23   S    
C19   O11   S    
C15   O8    A    
C11   C13   S    
O9    C21   S    
C17   O10   S    
C21   H7    S    
C18   C19   A    
C21   H6    S    
C4    H1    S    
O10   C22   S    
C16   C17   A    
C24   H20   S    
C25   H22   S    
C3    C12   S    
Cu2   O2    S    
C25   H23   S    
C6    C15   S    
C1    C7    S    
Cu1   O1    S    
N1    H10   S    
C8    C10   S    
Cu2   O8    S    
C3    C4    A    
C13   H2    S    
C23   H15   S    
C4    C5    A    
