data_mof_unit_11529.cif
_audit_creation_date              2012-12-11T17:15:54-0500
_audit_creation_method            fapswitch 2.2
_symmetry_space_group_name_H-M    P1
_symmetry_Int_Tables_number       1
_space_group_crystal_system       triclinic
_cell_length_a                    14.637929
_cell_length_b                    7.251418
_cell_length_c                    13.426692
_cell_angle_alpha                 90.00003
_cell_angle_beta                  99.541538
_cell_angle_gamma                 89.999758
_cell_volume                      1405.46971095

loop_
_atom_site_label
_atom_site_type_symbol
_atom_type_description
_atom_site_fract_x
_atom_site_fract_y
_atom_site_fract_z
_atom_type_partial_charge
O1    O     O_R   0.398210 0.494340 0.401550 -0.534672
O2    O     O_R   0.601790 0.994340 0.598450 -0.534667
O3    O     O_R   0.586310 0.821730 0.403360 -0.542223
O4    O     O_R   0.413690 0.321730 0.596640 -0.542190
C1    C     C_R   0.613035 0.655416 0.379484 0.725502
C2    C     C_R   0.386964 0.155417 0.620516 0.725551
O5    O     O_R   0.397970 0.823900 0.389580 -0.532394
O6    O     O_R   0.602030 0.323900 0.610420 -0.532387
O7    O     O_R   0.412100 0.996500 0.584560 -0.544488
O8    O     O_R   0.587900 0.496500 0.415440 -0.544490
C3    C     C_R   0.365169 0.655275 0.363016 0.739743
C4    C     C_R   0.634831 0.155275 0.636984 0.739761
O9    O     O_3   0.504860 0.661550 0.563990 -0.383622
O10   O     O_3   0.495140 0.161550 0.436010 -0.383663
V1    V     V_3+5 0.499100 0.935510 0.488130 1.429155
V2    V     V_3+5 0.500900 0.435510 0.511870 1.429209
C5    C     C_1   0.715902 0.144731 0.716958 -0.161700
C6    C     C_1   0.284098 0.644732 0.283042 -0.161714
C7    C     C_1   0.783870 0.134115 0.783344 -0.153698
C8    C     C_1   0.216130 0.634114 0.216656 -0.153718
C9    C     C_3   0.260088 0.286038 0.845843 -0.416136
C10   C     C_3   0.739915 0.786048 0.154162 -0.416007
H1    H     H_    0.224835 0.419160 0.852639 0.227671
H2    H     H_    0.775170 0.919169 0.147373 0.227681
H3    H     H_    0.298145 0.253975 0.922712 0.138063
H4    H     H_    0.701859 0.754003 0.077290 0.138097
C11   C     C_3   0.329654 0.308493 0.770493 0.318462
C12   C     C_3   0.670347 0.808492 0.229509 0.318446
H5    H     H_    0.313090 0.439520 0.727265 0.116321
H6    H     H_    0.686911 0.939518 0.272740 0.116280
H7    H     H_    0.211736 0.289485 0.583226 0.193044
H8    H     H_    0.788263 0.789477 0.416775 0.193042
C13   C     C_3   0.142478 0.161816 0.700170 0.285963
C14   C     C_3   0.857522 0.661812 0.299831 0.285953
C15   C     C_3   0.245688 0.946014 0.816358 0.182271
C16   C     C_3   0.754311 0.446017 0.183640 0.182277
C17   C     C_3   0.188321 0.130049 0.812466 -0.072880
C18   C     C_3   0.811680 0.630052 0.187534 -0.072931
H9    H     H_    0.276971 0.915794 0.896004 0.090495
H10   H     H_    0.723029 0.415802 0.103993 0.090500
C19   C     C_3   0.316646 0.147303 0.692258 -0.041690
C20   C     C_3   0.683353 0.647301 0.307742 -0.041689
C21   C     C_3   0.217315 0.162267 0.630186 -0.418481
C22   C     C_3   0.782684 0.662261 0.369814 -0.418463
C23   C     C_3   0.324411 0.962928 0.752356 -0.353124
C24   C     C_3   0.675589 0.462929 0.247641 -0.353147
H11   H     H_    0.392689 0.955496 0.802954 0.144911
H12   H     H_    0.607310 0.455497 0.197044 0.144930
H13   H     H_    0.322425 0.843944 0.699771 0.190433
H14   H     H_    0.677575 0.343944 0.300226 0.190425
H15   H     H_    0.092797 0.048336 0.675795 0.169108
H16   H     H_    0.907203 0.548330 0.324205 0.169114
H17   H     H_    0.204737 0.043903 0.576879 0.175086
H18   H     H_    0.795262 0.543896 0.423120 0.175085
O11   O     O_R   0.912140 0.786650 0.084610 -0.519114
O12   O     O_R   0.087860 0.286650 0.915390 -0.519112
O13   O     O_R   0.102040 0.454810 0.110430 -0.540225
O14   O     O_R   0.897960 0.954810 0.889570 -0.540224
C25   C     C_R   0.134946 0.623527 0.136827 0.727209
C26   C     C_R   0.865054 0.123527 0.863173 0.727221
O15   O     O_R   0.913690 0.457060 0.096650 -0.514779
O16   O     O_R   0.086310 0.957060 0.903350 -0.514784
O17   O     O_R   0.898200 0.284560 0.901540 -0.531964
O18   O     O_R   0.101800 0.784560 0.098460 -0.531964
C27   C     C_R   0.884239 0.624562 0.117372 0.711355
C28   C     C_R   0.115761 0.124561 0.882628 0.711349
O19   O     O_3   0.995160 0.617270 0.936040 -0.355313
O20   O     O_3   0.004840 0.117270 0.063960 -0.355312
V3    V     V_3+5 0.000900 0.343280 0.011870 1.578307
V4    V     V_3+5 0.999100 0.843280 0.988130 1.578304
O21   O     O_3   0.422017 0.308361 0.823691 -0.560249
C29   C     C_3   0.449051 0.488023 0.857333 0.093767
H19   H     H_    0.398032 0.550831 0.900337 0.123482
H20   H     H_    0.456338 0.577719 0.791822 0.126530
C30   C     C_3   0.542339 0.478460 0.926690 -0.714686
H21   H     H_    0.595188 0.418042 0.885736 0.217602
H22   H     H_    0.564730 0.619204 0.952633 0.186043
H23   H     H_    0.536835 0.391890 0.993670 0.215343
O22   O     O_3   0.577989 0.808352 0.176297 -0.560268
C31   C     C_3   0.550905 0.988062 0.142788 0.093702
H24   H     H_    0.601959 0.051163 0.099919 0.123416
H25   H     H_    0.543499 0.077507 0.208370 0.126626
C32   C     C_3   0.457679 0.978490 0.073302 -0.714521
H26   H     H_    0.404821 0.917546 0.114074 0.217604
H27   H     H_    0.435189 0.119299 0.047579 0.185934
H28   H     H_    0.463337 0.892375 0.006186 0.215272
Cl1   Cl    Cl    0.073382 0.366670 0.682581 -0.565439
Cl2   Cl    Cl    0.926619 0.866664 0.317423 -0.565445
Cl3   Cl    Cl    0.175643 0.750735 0.771287 -0.649034
Cl4   Cl    Cl    0.824356 0.250737 0.228710 -0.649038

loop_
_geom_bond_atom_site_label_1
_geom_bond_atom_site_label_2
_ccdc_geom_bond_type
C1    C20   S    
C3    C6    S    
C11   H5    S    
C29   H20   S    
O1    C3    A    
O2    C4    A    
C2    O7    A    
O3    V1    S    
O5    C3    A    
C25   O18   A    
H7    C21   S    
C26   O17   A    
C15   C17   S    
C31   C32   S    
C31   H24   S    
O13   C25   A    
O14   C26   A    
C10   C18   S    
O16   V4    S    
C20   C24   S    
C12   O22   S    
C21   H17   S    
O17   V3    S    
O20   V3    S    
C2    C19   S    
C4    C5    S    
C16   C24   S    
O18   V4    S    
O5    V1    S    
C9    C11   S    
O6    V2    S    
C10   C12   S    
C19   C21   S    
C20   C22   S    
C29   C30   S    
C16   Cl4   S    
O11   C27   A    
C23   H11   S    
C24   H12   S    
O16   C28   A    
C13   C21   S    
C16   H10   S    
C14   C22   S    
C31   H25   S    
O14   V4    S    
C13   C17   S    
O4    V2    S    
C15   H9    S    
C30   H21   S    
C22   H18   S    
C11   C19   S    
C32   H26   S    
C18   C27   S    
C23   H13   S    
O6    C4    A    
C17   C28   S    
H8    C22   S    
O1    V2    S    
C14   Cl2   S    
C8    C25   S    
O2    V1    S    
C30   H22   S    
C15   Cl3   S    
O4    C2    A    
C32   H27   S    
C9    H1    S    
C10   H2    S    
C16   C18   S    
C15   C23   S    
C11   O21   S    
O15   V3    S    
C9    H3    S    
C14   C18   S    
C29   H19   S    
O3    C1    A    
C7    C26   S    
C13   H15   S    
C24   H14   S    
C14   H16   S    
O19   V4    S    
C12   H6    S    
C13   Cl1   S    
O21   C29   S    
O8    V2    S    
O12   C28   A    
C12   C20   S    
C5    C7    T    
C6    C8    T    
O7    V1    S    
C30   H23   S    
O11   V4    S    
O22   C31   S    
O15   C27   A    
C1    O8    A    
C32   H28   S    
C9    C17   S    
O12   V3    S    
C10   H4    S    
O9    V2    S    
C19   C23   S    
O10   V1    S    
O13   V3    S    
