data_mof_unit_47019.cif
_audit_creation_date              2012-12-11T15:18:32-0500
_audit_creation_method            fapswitch 2.2
_symmetry_space_group_name_H-M    P1
_symmetry_Int_Tables_number       1
_space_group_crystal_system       triclinic
_cell_length_a                    6.93092
_cell_length_b                    19.94512
_cell_length_c                    23.774743
_cell_angle_alpha                 93.327465
_cell_angle_beta                  91.191977
_cell_angle_gamma                 89.056897
_cell_volume                      3279.93983803

loop_
_atom_site_label
_atom_site_type_symbol
_atom_type_description
_atom_site_fract_x
_atom_site_fract_y
_atom_site_fract_z
_atom_type_partial_charge
O1    O     O_R   0.620100 0.812200 0.810870 -0.551835
O2    O     O_R   0.379900 0.187800 0.189130 -0.551834
O3    O     O_R   0.296960 0.671650 0.794750 -0.533734
O4    O     O_R   0.703040 0.328350 0.205250 -0.533734
O5    O     O_R   0.120160 0.687800 0.689130 -0.534493
O6    O     O_R   0.879840 0.312200 0.310870 -0.534493
C1    C     C_R   0.467807 0.647035 0.804675 0.695744
C2    C     C_R   0.532193 0.352965 0.195325 0.695746
O7    O     O_R   0.290810 0.810670 0.817290 -0.542769
O8    O     O_R   0.709190 0.189330 0.182710 -0.542770
O9    O     O_R   0.113980 0.827820 0.711840 -0.538154
O10   O     O_R   0.886020 0.172180 0.288160 -0.538154
C3    C     C_R   0.461002 0.830381 0.835206 0.713926
C4    C     C_R   0.538998 0.169619 0.164794 0.713927
O11   O     O_R   0.626290 0.672180 0.788160 -0.534075
O12   O     O_R   0.373710 0.327820 0.211840 -0.534074
O13   O     O_3   0.451520 0.755460 0.715370 -0.368697
O14   O     O_3   0.548480 0.244540 0.284630 -0.368698
V1    V     V_3+5 0.179200 0.748980 0.756420 1.429129
V2    V     V_3+5 0.820800 0.251020 0.243580 1.429130
O15   O     O_R   0.783880 0.828350 0.705250 -0.538961
O16   O     O_R   0.216120 0.171650 0.294750 -0.538961
C5    C     C_R   0.950732 0.852630 0.694775 0.669354
C6    C     C_R   0.049268 0.147369 0.305225 0.669353
O17   O     O_R   0.790030 0.689320 0.682700 -0.548123
O18   O     O_R   0.209970 0.310680 0.317300 -0.548124
C7    C     C_R   0.959140 0.670548 0.664140 0.715691
C8    C     C_R   0.040861 0.329452 0.335859 0.715695
V3    V     V_3+5 0.678400 0.751010 0.743570 1.421294
V4    V     V_3+5 0.321600 0.248990 0.256430 1.421298
O19   O     O_3   0.955950 0.744540 0.784620 -0.368441
O20   O     O_3   0.044050 0.255460 0.215380 -0.368440
C9    C     C_R   0.174156 0.424118 0.396625 -0.241519
C10   C     C_R   0.825843 0.575882 0.603375 -0.241533
C11   C     C_R   0.030379 0.375695 0.387442 -0.096355
C12   C     C_R   0.969621 0.624306 0.612558 -0.096350
C13   C     C_R   0.876841 0.373902 0.426378 0.105576
C14   C     C_R   0.123157 0.626099 0.573622 0.105583
C15   C     C_R   0.860141 0.425672 0.470073 0.086259
C16   C     C_R   0.139857 0.574329 0.529926 0.086259
C17   C     C_R   0.005843 0.474612 0.477787 0.026666
C18   C     C_R   0.994155 0.525389 0.522212 0.026669
C19   C     C_R   0.164036 0.472759 0.441429 0.092274
C20   C     C_R   0.835963 0.527241 0.558570 0.092273
C21   C     C_R   0.701651 0.429856 0.506588 -0.187083
C22   C     C_R   0.298345 0.570146 0.493410 -0.187085
C23   C     C_R   0.690572 0.479627 0.550194 -0.147562
C24   C     C_R   0.309425 0.520374 0.449805 -0.147556
H1    H     H_    0.293443 0.424797 0.367903 0.139819
H2    H     H_    0.706557 0.575203 0.632096 0.139815
H3    H     H_    0.582973 0.395358 0.501602 0.146277
H4    H     H_    0.417022 0.604645 0.498396 0.146277
H5    H     H_    0.566938 0.480929 0.577451 0.153147
H6    H     H_    0.433059 0.519073 0.422548 0.153141
C25   C     C_R   0.953255 0.915283 0.664456 -0.121107
C26   C     C_R   0.046745 0.084717 0.335544 -0.121107
C27   C     C_R   0.920552 0.036282 0.662802 -0.131448
C28   C     C_R   0.079448 0.963718 0.337198 -0.131449
C29   C     C_R   0.923151 0.978199 0.693358 -0.023320
C30   C     C_R   0.076849 0.021801 0.306642 -0.023320
C31   C     C_R   0.981096 0.911664 0.605826 -0.208954
C32   C     C_R   0.018904 0.088336 0.394174 -0.208954
C33   C     C_R   0.977868 0.970291 0.574313 0.089596
C34   C     C_R   0.022132 0.029709 0.425687 0.089596
C35   C     C_R   0.946637 0.032850 0.604300 0.090671
C36   C     C_R   0.053363 0.967150 0.395700 0.090671
C37   C     C_R   0.003354 0.969191 0.514309 0.062656
C38   C     C_R   0.996646 0.030808 0.485691 0.062655
C39   C     C_R   0.964837 0.091376 0.518060 -0.181723
C40   C     C_R   0.035163 0.908623 0.481940 -0.181724
C41   C     C_R   0.940792 0.092153 0.575915 -0.181701
C42   C     C_R   0.059208 0.907847 0.424085 -0.181701
H7    H     H_    0.916723 0.140094 0.598782 0.133953
H8    H     H_    0.083277 0.859906 0.401218 0.133952
H9    H     H_    0.997139 0.137864 0.413778 0.098180
H10   H     H_    0.002861 0.862136 0.586222 0.098181
H11   H     H_    0.897373 0.084861 0.684730 0.163598
H12   H     H_    0.102628 0.915139 0.315269 0.163598
H13   H     H_    0.957347 0.139610 0.499986 0.124173
H14   H     H_    0.042654 0.860389 0.500014 0.124173
C43   C     C_R   0.483948 0.584425 0.834783 -0.130031
C44   C     C_R   0.516050 0.415575 0.165218 -0.130032
C45   C     C_R   0.549053 0.464821 0.835992 -0.126622
C46   C     C_R   0.450911 0.535177 0.164007 -0.126624
C47   C     C_R   0.524008 0.522461 0.805439 -0.023189
C48   C     C_R   0.475963 0.477537 0.194560 -0.023185
C49   C     C_R   0.468654 0.587578 0.893781 -0.185926
C50   C     C_R   0.531358 0.412423 0.106219 -0.185924
C51   C     C_R   0.495327 0.529528 0.925293 0.086817
C52   C     C_R   0.504670 0.470472 0.074707 0.086817
C53   C     C_R   0.536025 0.467887 0.894911 0.084881
C54   C     C_R   0.463954 0.532112 0.105088 0.084882
C55   C     C_R   0.484769 0.530458 0.985685 0.056984
C56   C     C_R   0.515227 0.469542 0.014315 0.056984
C57   C     C_R   0.554875 0.409800 0.981574 -0.156012
C58   C     C_R   0.445110 0.590199 0.018425 -0.156012
C59   C     C_R   0.564645 0.409205 0.923318 -0.169569
C60   C     C_R   0.435330 0.590794 0.076681 -0.169569
H15   H     H_    0.595821 0.361955 0.900161 0.141269
H16   H     H_    0.404141 0.638043 0.099838 0.141269
H17   H     H_    0.560826 0.363524 0.086355 0.117730
H18   H     H_    0.439209 0.636478 0.913646 0.117731
H19   H     H_    0.579679 0.416944 0.813738 0.163676
H20   H     H_    0.420269 0.583053 0.186261 0.163674
H21   H     H_    0.579689 0.362094 0.999612 0.141029
H22   H     H_    0.420288 0.637905 0.000387 0.141028
C61   C     C_R   0.677009 0.075758 0.104109 -0.203347
C62   C     C_R   0.322992 0.924242 0.895891 -0.203345
C63   C     C_R   0.524586 0.121727 0.114411 -0.135789
C64   C     C_R   0.475415 0.878273 0.885589 -0.135791
C65   C     C_R   0.360950 0.120534 0.077062 -0.055515
C66   C     C_R   0.639050 0.879466 0.922938 -0.055514
C67   C     C_R   0.350599 0.071564 0.031280 0.062927
C68   C     C_R   0.649401 0.928436 0.968720 0.062930
C69   C     C_R   0.504575 0.024831 0.022602 0.049642
C70   C     C_R   0.495425 0.975169 0.977398 0.049640
C71   C     C_R   0.667857 0.027523 0.059002 0.096427
C72   C     C_R   0.332144 0.972477 0.940998 0.096426
C73   C     C_R   0.188559 0.067288 0.994318 -0.149647
C74   C     C_R   0.811442 0.932712 0.005682 -0.149644
C75   C     C_R   0.180103 0.018619 0.949840 -0.178374
C76   C     C_R   0.819898 0.981381 0.050160 -0.178376
H23   H     H_    0.802410 0.076579 0.132210 0.120395
H24   H     H_    0.197591 0.923421 0.867790 0.120395
H25   H     H_    0.065542 0.100978 0.999649 0.163732
H26   H     H_    0.934459 0.899022 0.000351 0.163735
H27   H     H_    0.053231 0.016913 0.922371 0.150221
H28   H     H_    0.946769 0.983087 0.077629 0.150221
C77   C     C_2   0.461725 0.482737 0.257023 0.375653
H29   H     H_    0.490992 0.439364 0.281504 0.022498
O21   O     O_2   0.417563 0.535768 0.282102 -0.527863
C78   C     C_2   0.538224 0.517260 0.742976 0.375652
H30   H     H_    0.509009 0.560638 0.718496 0.022503
O22   O     O_2   0.582309 0.464223 0.717894 -0.527860
C79   C     C_2   0.204031 0.171427 0.084568 0.353080
H31   H     H_    0.108393 0.170261 0.120002 0.072836
O23   O     O_2   0.180449 0.214644 0.050666 -0.523071
C80   C     C_2   0.795968 0.828572 0.915432 0.353071
H32   H     H_    0.891602 0.829736 0.879997 0.072842
O24   O     O_2   0.819555 0.785357 0.949337 -0.523071
C81   C     C_3   0.739203 0.315348 0.424187 -0.755796
H33   H     H_    0.721390 0.297355 0.467066 0.194210
H34   H     H_    0.596644 0.331104 0.406824 0.211092
H35   H     H_    0.794141 0.270745 0.399197 0.203930
C82   C     C_3   0.260794 0.684653 0.575811 -0.755808
H36   H     H_    0.278586 0.702650 0.532933 0.194211
H37   H     H_    0.205871 0.729254 0.600806 0.203938
H38   H     H_    0.403363 0.668895 0.593167 0.211090
C83   C     C_2   0.104894 0.016112 0.244629 0.379880
H39   H     H_    0.100766 0.060423 0.220209 0.016915
O25   O     O_2   0.132782 0.961585 0.219811 -0.523003
C84   C     C_2   0.895106 0.983888 0.755371 0.379881
H40   H     H_    0.899234 0.939577 0.779791 0.016915
O26   O     O_2   0.867219 0.038415 0.780189 -0.523003

loop_
_geom_bond_atom_site_label_1
_geom_bond_atom_site_label_2
_ccdc_geom_bond_type
C4    C63   S    
V4    O20   S    
C33   C35   A    
C55   C56   A    
O11   V3    S    
C25   C29   A    
O13   V3    S    
C17   C18   A    
C50   C52   A    
C61   H23   S    
C6    C26   S    
O4    C2    A    
V1    O19   S    
C66   C68   A    
C82   H36   S    
C54   C60   A    
C79   H31   S    
C15   C17   A    
C29   C84   S    
C24   H6    S    
O9    V1    S    
C13   C81   S    
C2    C44   S    
C34   C38   A    
O16   C6    A    
C11   C13   A    
C46   C48   A    
C75   H27   S    
O3    C1    A    
C83   O25   D    
C47   C78   S    
C74   H26   S    
C27   C29   A    
C21   H3    S    
C28   C30   A    
C69   C70   A    
C22   H4    S    
C31   C33   A    
C39   C41   A    
O7    C3    A    
C32   C34   A    
C57   H21   S    
C63   C65   A    
C82   H37   S    
O5    C7    A    
O7    V1    S    
C36   C42   A    
C8    C11   S    
O8    V2    S    
C38   C39   A    
C69   C71   A    
C58   C60   A    
O3    V1    S    
O14   V4    S    
C51   C53   A    
C19   C24   A    
C10   C12   A    
C20   C23   A    
C43   C47   A    
C23   H5    S    
C16   C18   A    
C2    O12   A    
C67   C73   A    
C51   C55   A    
C17   C19   A    
C18   C20   A    
C62   H24   S    
C59   H15   S    
C74   C76   A    
C52   C56   A    
C22   C24   A    
C21   C23   A    
C31   H10   S    
O17   V3    S    
C33   C37   A    
C10   H2    S    
C40   H14   S    
C37   C38   A    
C9    C19   A    
C62   C72   A    
C10   C20   A    
C42   H8    S    
O8    C4    A    
C81   H35   S    
C41   H7    S    
C78   H30   S    
C1    O11   A    
C44   C48   A    
O15   V3    S    
C26   C30   A    
C72   C75   A    
C34   C36   A    
C16   C22   A    
C71   C76   A    
C14   C82   S    
C3    C64   S    
C66   C80   S    
C49   H18   S    
C52   C54   A    
O10   V2    S    
O1    V3    S    
C65   C67   A    
C53   C59   A    
C43   C49   A    
C73   C75   A    
C45   H19   S    
O5    V1    S    
C73   H25   S    
C78   O22   D    
C45   C47   A    
C84   O26   D    
O18   V4    S    
C55   C58   A    
C60   H16   S    
O15   C5    A    
C46   H20   S    
C26   C32   A    
C32   H9    S    
C39   H13   S    
O1    C3    A    
O12   V4    S    
O13   V1    S    
C12   C14   A    
C82   H38   S    
O6    V2    S    
C28   C36   A    
C77   H29   S    
V2    O20   S    
C79   O23   D    
C58   H22   S    
O16   V4    S    
C1    C43   S    
C50   H17   S    
C27   C35   A    
C68   C70   A    
C57   C59   A    
C48   C77   S    
C5    C25   S    
C80   O24   D    
C7    C12   S    
O17   C7    A    
C45   C53   A    
O10   C6    A    
O18   C8    A    
C15   C21   A    
O2    V4    S    
C37   C40   A    
C27   H11   S    
C81   H34   S    
C13   C15   A    
C35   C41   A    
C83   H39   S    
C14   C16   A    
C65   C79   S    
C61   C63   A    
C62   C64   A    
C44   C50   A    
C25   C31   A    
O9    C5    A    
C9    C11   A    
C70   C72   A    
O14   V2    S    
C30   C83   S    
C76   H28   S    
C56   C57   A    
O2    C4    A    
C64   C66   A    
C80   H32   S    
C28   H12   S    
O4    V2    S    
O6    C8    A    
C84   H40   S    
V3    O19   S    
C49   C51   A    
C40   C42   A    
C46   C54   A    
C77   O21   D    
C81   H33   S    
C9    H1    S    
C61   C71   A    
C68   C74   A    
C67   C69   A    
