data_mof_unit_63428.cif
_audit_creation_date              2012-12-10T17:16:45-0500
_audit_creation_method            fapswitch 2.2
_symmetry_space_group_name_H-M    P1
_symmetry_Int_Tables_number       1
_space_group_crystal_system       triclinic
_cell_length_a                    18.737731
_cell_length_b                    18.966622
_cell_length_c                    18.799211
_cell_angle_alpha                 109.25528
_cell_angle_beta                  109.388029
_cell_angle_gamma                 109.517705
_cell_volume                      5159.05068341

loop_
_atom_site_label
_atom_site_type_symbol
_atom_type_description
_atom_site_fract_x
_atom_site_fract_y
_atom_site_fract_z
_atom_type_partial_charge
C1    C     C_R   0.619331 0.117695 0.999031 0.820302
C2    C     C_R   0.827098 0.249496 0.007022 0.527656
C3    C     C_R   0.812365 0.314579 0.997988 -0.158393
C4    C     C_R   0.733761 0.313523 0.986829 0.021832
C5    C     C_R   0.671985 0.247708 0.987194 -0.227655
C6    C     C_R   0.687227 0.183741 0.998679 -0.145181
C7    C     C_R   0.495735 0.741475 0.819283 -0.051799
C8    C     C_R   0.502837 0.682968 0.757845 0.576509
C9    C     C_R   0.493629 0.685777 0.682273 -0.193403
C10   C     C_R   0.479663 0.749215 0.666809 -0.005329
C11   C     C_R   0.491111 0.819597 0.736308 0.071143
C12   C     C_R   0.497333 0.115647 0.118004 0.835941
C13   C     C_R   0.496614 0.814019 0.812045 -0.173530
C14   C     C_R   0.331810 0.806175 0.073337 0.566905
C15   C     C_R   0.270560 0.742965 0.076985 -0.106270
C16   C     C_R   0.188082 0.683926 0.002128 -0.251425
C17   C     C_R   0.167467 0.687920 0.925573 0.576120
C18   C     C_R   0.227855 0.751782 0.921527 -0.052248
C19   C     C_R   0.312044 0.811256 0.996689 -0.296171
C20   C     C_R   0.618998 0.502584 0.621225 0.978472
C21   C     C_R   0.502978 0.385841 0.387276 0.747909
C22   C     C_R   0.381088 0.502834 0.384168 0.895744
C23   C     C_R   0.380399 0.879622 0.998353 0.870718
C24   C     C_R   0.498394 0.620687 0.619792 0.869413
C25   C     C_R   0.881080 0.500659 0.881704 0.990566
C26   C     C_R   0.879698 0.381519 0.998678 0.830152
C27   C     C_R   0.116314 0.497195 0.118534 0.829758
C28   C     C_R   0.120857 0.618171 0.002029 0.902844
C29   C     C_R   0.759060 0.580168 0.757969 0.503504
C30   C     C_R   0.822597 0.579663 0.822073 0.512318
C31   C     C_R   0.814397 0.501075 0.815033 -0.472448
C32   C     C_R   0.741998 0.422993 0.744175 0.477001
C33   C     C_R   0.677529 0.423498 0.680990 0.491118
C34   C     C_R   0.499755 0.881948 0.881197 0.786155
C35   C     C_R   0.686133 0.502095 0.687528 -0.465161
C36   C     C_R   0.317455 0.496138 0.242691 0.547014
C37   C     C_R   0.250544 0.491446 0.177267 -0.284208
C38   C     C_R   0.180780 0.495586 0.186833 -0.188453
C39   C     C_R   0.176136 0.501169 0.262464 -0.007331
C40   C     C_R   0.242205 0.501618 0.325885 0.495484
C41   C     C_R   0.313218 0.501191 0.316876 -0.282169
C42   C     C_2   0.496428 0.246998 0.320807 -0.266825
C43   C     C_2   0.512304 0.323554 0.325984 0.481303
C44   C     C_2   0.510139 0.186484 0.261039 -0.098276
C45   C     C_2   0.489187 0.176677 0.181689 -0.225003
C46   C     C_R   0.766018 0.184376 0.009044 -0.031899
Cu1   Cu    Cu3+1 0.438200 0.000380 0.938580 0.943511
Cu2   Cu    Cu3+1 0.561800 0.999620 0.061420 0.993124
Cu3   Cu    Cu3+1 0.438220 0.441470 0.503160 1.075323
Cu4   Cu    Cu3+1 0.561830 0.565070 0.503150 1.073881
Cu5   Cu    Cu3+1 0.999900 0.438590 0.938490 1.074754
Cu6   Cu    Cu3+1 0.999930 0.561410 0.061340 0.976833
H1    H     H_    0.477417 0.230164 0.364123 0.162025
H2    H     H_    0.254668 0.487444 0.120042 0.190645
H3    H     H_    0.532430 0.146395 0.280439 0.181084
H4    H     H_    0.457251 0.209533 0.159165 0.203718
H5    H     H_    0.611465 0.246692 0.978866 0.174275
O1    O     O_R   0.537990 0.090490 0.948120 -0.586439
O2    O     O_R   0.642390 0.554900 0.592760 -0.553009
O3    O     O_R   0.447840 0.361480 0.413570 -0.617989
O4    O     O_R   0.552220 0.465860 0.413560 -0.530230
O5    O     O_R   0.357660 0.451630 0.413550 -0.548296
O6    O     O_R   0.462040 0.556010 0.413540 -0.573690
O7    O     O_R   0.447820 0.540680 0.592750 -0.545536
O8    O     O_R   0.552200 0.645050 0.592740 -0.600063
O9    O     O_R   0.909730 0.448730 0.858460 -0.532909
O10   O     O_R   0.909750 0.552440 0.962210 -0.563006
O11   O     O_R   0.909720 0.357980 0.948050 -0.524808
O12   O     O_R   0.642370 0.089850 0.051860 -0.591101
O13   O     O_R   0.909750 0.461690 0.051790 -0.621775
O14   O     O_R   0.090070 0.447560 0.037620 -0.574375
O15   O     O_R   0.090100 0.551270 0.141360 -0.618324
O16   O     O_R   0.090070 0.538310 0.948030 -0.565656
O17   O     O_R   0.090100 0.642020 0.051770 -0.583352
O18   O     O_R   0.447800 0.089920 0.037730 -0.583310
O19   O     O_R   0.552180 0.089280 0.141460 -0.561828
O20   O     O_R   0.357630 0.910150 0.948140 -0.607270
O21   O     O_R   0.462010 0.909510 0.051880 -0.523436
O22   O     O_R   0.447820 0.910720 0.858540 -0.603623
O23   O     O_R   0.552200 0.910080 0.962270 -0.603213
O24   O     O_R   0.538000 0.450530 0.592770 -0.540307
F1    F     F_    0.517750 0.621638 0.770875 -0.668272
C47   C     C_3   0.449938 0.740031 0.576241 -0.370520
C48   C     C_3   0.356679 0.725447 0.534932 -0.349596
C49   C     C_3   0.332241 0.729188 0.450846 -0.826033
H6    H     H_    0.262828 0.712517 0.419204 0.244713
H7    H     H_    0.373721 0.795055 0.464776 0.253727
H8    H     H_    0.341280 0.682806 0.405519 0.249979
H9    H     H_    0.310238 0.661238 0.520673 0.267937
H10   H     H_    0.348945 0.773960 0.579482 0.214236
H11   H     H_    0.497278 0.796478 0.579096 0.202093
H12   H     H_    0.448025 0.684293 0.530072 0.204852
C50   C     C_3   0.502656 0.901554 0.731085 -0.382606
C51   C     C_3   0.597304 0.974938 0.791390 -0.368453
C52   C     C_3   0.610911 0.053536 0.779759 -0.772769
H13   H     H_    0.593855 0.036425 0.711605 0.258956
H14   H     H_    0.569902 0.078934 0.796774 0.261049
H15   H     H_    0.680420 0.104735 0.822725 0.253684
H16   H     H_    0.614563 0.993731 0.859506 0.203292
H17   H     H_    0.641562 0.952910 0.777333 0.233802
H18   H     H_    0.485772 0.892375 0.665479 0.202324
H19   H     H_    0.457179 0.921553 0.743927 0.219890
F2    F     F_    0.410385 0.865123 0.146561 -0.655626
C53   C     C_3   0.296278 0.740173 0.161255 -0.324002
C54   C     C_3   0.356701 0.701830 0.173507 -0.329224
C55   C     C_3   0.390323 0.708023 0.262456 -0.811897
H20   H     H_    0.431223 0.776552 0.314675 0.262883
H21   H     H_    0.334859 0.675615 0.270928 0.241490
H22   H     H_    0.430538 0.676327 0.268305 0.277244
H23   H     H_    0.320261 0.633066 0.122174 0.206056
H24   H     H_    0.413571 0.736482 0.167743 0.268003
H25   H     H_    0.329431 0.806602 0.216470 0.243485
H26   H     H_    0.239064 0.702027 0.164279 0.189711
F3    F     F_    0.086835 0.629496 0.854859 -0.653443
C56   C     C_3   0.198849 0.754310 0.836822 -0.270778
C57   C     C_3   0.240659 0.722280 0.785138 -0.370641
C58   C     C_3   0.194685 0.623994 0.735238 -0.748686
H27   H     H_    0.203189 0.598596 0.781064 0.270816
H28   H     H_    0.123936 0.596454 0.691884 0.269996
H29   H     H_    0.222703 0.603128 0.694256 0.224917
H30   H     H_    0.235252 0.745559 0.737563 0.211308
H31   H     H_    0.311099 0.748494 0.828471 0.216345
H32   H     H_    0.126807 0.715204 0.794424 0.245392
H33   H     H_    0.211369 0.819618 0.849072 0.188126
F4    F     F_    0.767604 0.656709 0.765659 -0.583155
F5    F     F_    0.892954 0.655671 0.889999 -0.578359
F6    F     F_    0.732846 0.346545 0.737368 -0.602989
F7    F     F_    0.549826 0.351026 0.282381 -0.638875
F8    F     F_    0.607731 0.347418 0.612571 -0.602119
F9    F     F_    0.385250 0.493655 0.232700 -0.635290
C59   C     C_3   0.101704 0.504227 0.276878 -0.352541
C60   C     C_3   0.018305 0.416236 0.218593 -0.306047
C61   C     C_3   0.943236 0.419155 0.232263 -0.839347
H34   H     H_    0.960795 0.439959 0.301129 0.262063
H35   H     H_    0.927452 0.464461 0.214355 0.258772
H36   H     H_    0.884422 0.354068 0.190842 0.243512
H37   H     H_    0.999340 0.395671 0.149722 0.249094
H38   H     H_    0.030464 0.367874 0.233352 0.238074
H39   H     H_    0.118586 0.523421 0.345381 0.243374
H40   H     H_    0.090410 0.554919 0.267372 0.206810
F10   F     F_    0.238477 0.503800 0.397571 -0.682043
C62   C     C_3   0.787193 0.116752 0.020172 -0.329011
C63   C     C_3   0.848099 0.150226 0.116090 -0.315416
C64   C     C_3   0.866975 0.081625 0.128592 -0.792492
H41   H     H_    0.805498 0.024138 0.106633 0.255315
H42   H     H_    0.898666 0.062240 0.091216 0.266889
H43   H     H_    0.911559 0.107849 0.198443 0.245923
H44   H     H_    0.910787 0.207758 0.140655 0.245268
H45   H     H_    0.817743 0.169477 0.155156 0.230146
H46   H     H_    0.727971 0.055368 0.993669 0.188236
H47   H     H_    0.818937 0.099795 0.981810 0.236152
F11   F     F_    0.902129 0.249973 0.014779 -0.683819
C65   C     C_3   0.711726 0.378487 0.970230 -0.349041
C66   C     C_3   0.728585 0.448805 0.053659 -0.346613
C67   C     C_3   0.711066 0.517026 0.038503 -0.778629
H48   H     H_    0.754948 0.548621 0.017461 0.264266
H49   H     H_    0.642117 0.487326 0.988030 0.258951
H50   H     H_    0.723341 0.566827 0.099762 0.248314
H51   H     H_    0.685469 0.419613 0.076631 0.230079
H52   H     H_    0.797463 0.480395 0.105322 0.237270
H53   H     H_    0.749510 0.407999 0.943231 0.202686
H54   H     H_    0.641877 0.345011 0.919902 0.204788
C68   C     C_3   0.486772 0.723683 0.890488 -0.333127
C69   C     C_3   0.408707 0.634636 0.853260 -0.329755
C70   C     C_3   0.382585 0.628571 0.920792 -0.853435
H55   H     H_    0.438641 0.641869 0.978661 0.269088
H56   H     H_    0.360441 0.675392 0.940997 0.248850
H57   H     H_    0.328040 0.562789 0.892419 0.254686
H58   H     H_    0.351976 0.621921 0.796769 0.220989
H59   H     H_    0.425078 0.583382 0.830888 0.283254
H60   H     H_    0.547791 0.727881 0.932479 0.227627
H61   H     H_    0.476594 0.771083 0.932601 0.209529

loop_
_geom_bond_atom_site_label_1
_geom_bond_atom_site_label_2
_ccdc_geom_bond_type
C16   C28   S    
C7    C13   A    
C54   H23   S    
C30   F5    S    
Cu6   O13   S    
C25   C31   S    
C50   C51   S    
C29   F4    S    
C67   H49   S    
Cu2   O19   S    
C69   H59   S    
C52   H13   S    
C25   O10   A    
Cu1   O22   S    
Cu2   O12   S    
C28   O17   A    
C69   H58   S    
C52   H15   S    
C7    C8    A    
C46   C62   S    
C49   H6    S    
C2    C46   A    
C47   H12   S    
C70   H55   S    
Cu3   O3    S    
C42   C44   S    
C8    F1    S    
Cu4   O2    S    
C32   F6    S    
C69   C70   S    
C37   C38   A    
Cu6   O17   S    
C58   H28   S    
C42   H1    S    
C5    C6    A    
C39   C59   S    
C22   C41   S    
C55   H20   S    
C27   C38   S    
C60   H38   S    
C63   C64   S    
C10   C47   S    
C57   C58   S    
C18   C19   A    
Cu2   O21   S    
C3    C26   S    
C59   H40   S    
C34   O23   A    
C22   O6    A    
C21   C43   S    
C20   C35   S    
Cu1   Cu2   S    
C45   H4    S    
C60   C61   S    
C61   H36   S    
C56   H33   S    
C15   C53   S    
C68   H60   S    
C9    C10   A    
C21   O4    A    
C11   C50   S    
C4    C65   S    
C54   H24   S    
C70   H56   S    
Cu3   O7    S    
C20   O24   A    
C67   H50   S    
Cu4   O6    S    
C36   C41   A    
Cu5   O14   S    
C64   H43   S    
C28   O16   A    
C53   C54   S    
C17   F3    S    
C49   H7    S    
C2    F11   S    
C63   H44   S    
C56   H32   S    
C57   H30   S    
Cu5   Cu6   S    
C38   C39   A    
C48   C49   S    
C21   O3    A    
C64   H42   S    
C58   H29   S    
C50   H18   S    
C39   C40   A    
C53   H25   S    
C16   C17   A    
C60   H37   S    
C7    C68   S    
C15   C16   A    
C1    O12   A    
C1    C6    S    
C65   H53   S    
Cu5   O9    S    
C62   H47   S    
C50   H19   S    
C19   C23   S    
C66   H52   S    
C29   C30   A    
Cu6   O15   S    
C36   F9    S    
C34   O22   A    
C22   O5    A    
C47   C48   S    
C51   H17   S    
C66   H51   S    
C17   C18   A    
C8    C9    A    
C23   O20   A    
C20   O2    A    
C68   H61   S    
C66   C67   S    
Cu6   O10   S    
C57   H31   S    
C24   O8    A    
C37   H2    S    
C40   C41   A    
C70   H57   S    
C12   O19   A    
C61   H34   S    
C26   O13   A    
C42   C43   D    
Cu1   O20   S    
C3    C4    A    
C27   O14   A    
C44   C45   D    
C49   H8    S    
C33   F8    S    
C36   C37   A    
Cu3   O5    S    
C6    C46   A    
C14   C15   A    
C14   C19   A    
C31   C32   A    
C25   O9    A    
Cu5   O16   S    
C12   C45   S    
C59   C60   S    
C18   C56   S    
C52   H14   S    
C9    C24   S    
C47   H11   S    
C54   C55   S    
C29   C35   A    
C58   H27   S    
C5    H5    S    
C65   H54   S    
C64   H41   S    
C26   O11   A    
C32   C33   A    
C62   H46   S    
C2    C3    A    
Cu1   O18   S    
C13   C34   S    
C1    O1    A    
Cu1   O1    S    
C11   C13   A    
C44   H3    S    
Cu2   O23   S    
C14   F2    S    
C30   C31   A    
C43   F7    S    
C55   H21   S    
C51   H16   S    
C4    C5    A    
C33   C35   A    
Cu3   O24   S    
Cu5   O11   S    
C23   O21   A    
C51   C52   S    
Cu4   O8    S    
C68   C69   S    
C59   H39   S    
C10   C11   A    
C48   H10   S    
C53   H26   S    
C63   H45   S    
C24   O7    A    
Cu3   Cu4   S    
C48   H9    S    
C12   O18   A    
C67   H48   S    
C61   H35   S    
Cu4   O4    S    
C62   C63   S    
C65   C66   S    
C40   F10   S    
C27   O15   A    
C56   C57   S    
C55   H22   S    
