data_mof_unit_16890.cif
_audit_creation_date              2012-12-10T17:48:53-0500
_audit_creation_method            fapswitch 2.2
_symmetry_space_group_name_H-M    P1
_symmetry_Int_Tables_number       1
_space_group_crystal_system       triclinic
_cell_length_a                    10.726735
_cell_length_b                    14.712794
_cell_length_c                    14.80141
_cell_angle_alpha                 64.655783
_cell_angle_beta                  104.006973
_cell_angle_gamma                 103.509424
_cell_volume                      2025.72476536

loop_
_atom_site_label
_atom_site_type_symbol
_atom_type_description
_atom_site_fract_x
_atom_site_fract_y
_atom_site_fract_z
_atom_type_partial_charge
C1    C     C_R   0.476091 0.119933 0.312267 0.794614
C2    C     C_3   0.877907 0.000080 0.498465 0.155890
C3    C     C_3   0.956593 0.974567 0.606771 -0.400472
C4    C     C_3   0.937685 0.105888 0.426966 -0.373384
C5    C     C_R   0.452138 0.187653 0.204724 -0.057186
C6    C     C_R   0.512031 0.812161 0.794128 -0.056431
C7    C     C_R   0.389222 0.215174 0.027563 -0.207298
C8    C     C_R   0.414008 0.149248 0.128795 -0.202724
C9    C     C_R   0.463324 0.292173 0.178498 -0.264919
C10   C     C_R   0.434825 0.359805 0.077359 0.089562
C11   C     C_R   0.400575 0.320045 0.001197 0.169544
C12   C     C_R   0.259716 0.000535 0.498719 0.754821
C13   C     C_R   0.444430 0.466133 0.049722 0.068300
C14   C     C_R   0.437230 0.532261 0.945783 0.068045
C15   C     C_R   0.396962 0.489733 0.872008 -0.255562
C16   C     C_R   0.378374 0.385314 0.899568 -0.231624
C17   C     C_R   0.459212 0.508490 0.122124 -0.227714
C18   C     C_R   0.476408 0.613001 0.093946 -0.234846
C19   C     C_R   0.484486 0.678746 0.993706 0.163181
C20   C     C_R   0.468176 0.638921 0.919042 0.090389
C21   C     C_R   0.508846 0.784155 0.967155 -0.199936
C22   C     C_R   0.520307 0.850495 0.867579 -0.203651
C23   C     C_R   0.517634 0.880045 0.687579 0.782356
C24   C     C_R   0.487961 0.707018 0.820684 -0.256624
C25   C     C_R   0.689130 0.277029 0.683014 -0.343048
C26   C     C_R   0.684097 0.209087 0.639105 0.313132
C27   C     C_R   0.508438 0.280135 0.514462 -0.020014
C28   C     C_R   0.526212 0.362359 0.546566 -0.045503
C29   C     C_R   0.613934 0.355622 0.637260 0.082828
C30   C     C_R   0.462110 0.450783 0.492028 0.083110
C31   C     C_R   0.488776 0.529967 0.529136 0.036789
C32   C     C_R   0.565454 0.513877 0.624546 -0.246239
C33   C     C_R   0.630034 0.429272 0.678940 0.106087
C34   C     C_R   0.740092 0.000202 0.499467 0.752178
C35   C     C_R   0.375065 0.464501 0.400376 -0.232966
C36   C     C_R   0.316928 0.552252 0.347116 -0.210097
C37   C     C_R   0.346911 0.631536 0.380697 0.167354
C38   C     C_R   0.435894 0.623025 0.470570 -0.009726
C39   C     C_R   0.290008 0.720240 0.324322 -0.328305
C40   C     C_R   0.324142 0.800965 0.355633 0.070939
C41   C     C_R   0.470962 0.709980 0.495966 -0.005570
C42   C     C_3   0.032434 0.919550 0.460063 -0.370870
C43   C     C_3   0.889705 0.919304 0.460602 -0.363320
C44   C     C_3   0.100137 0.974312 0.606622 -0.372114
C45   C     C_3   0.081599 0.106077 0.426935 -0.384136
C46   C     C_3   0.121509 0.000202 0.497980 0.160035
Cu1   Cu    Cu3+1 0.465900 0.918260 0.475680 0.923500
Cu2   Cu    Cu3+1 0.534100 0.081740 0.524320 0.922023
H1    H     H_    0.058375 0.842381 0.509621 0.176105
H2    H     H_    0.930950 0.165756 0.451918 0.167492
H3    H     H_    0.162906 0.030795 0.636025 0.169335
H4    H     H_    0.951894 0.031924 0.635150 0.174334
H5    H     H_    0.349380 0.355703 0.840723 0.147799
H6    H     H_    0.487818 0.679488 0.763857 0.141972
H7    H     H_    0.534230 0.931479 0.848105 0.145251
H8    H     H_    0.486385 0.642493 0.151496 0.151000
H9    H     H_    0.361666 0.184221 0.969766 0.131767
H10   H     H_    0.404039 0.068498 0.147498 0.150593
H11   H     H_    0.497875 0.319604 0.238231 0.152001
H12   H     H_    0.045713 0.936312 0.381855 0.161573
H13   H     H_    0.377037 0.535562 0.791998 0.147686
H14   H     H_    0.453469 0.462647 0.200951 0.142008
H15   H     H_    0.518224 0.815261 0.023333 0.131788
H16   H     H_    0.545589 0.713154 0.558375 0.118531
H17   H     H_    0.280041 0.869272 0.311852 0.121583
H18   H     H_    0.249862 0.559063 0.277519 0.142829
H19   H     H_    0.761360 0.271891 0.749471 0.140403
H20   H     H_    0.433672 0.274847 0.452846 0.126748
H21   H     H_    0.834108 0.935594 0.382698 0.167843
H22   H     H_    0.574478 0.567261 0.658000 0.123989
H23   H     H_    0.349732 0.408480 0.367671 0.124941
H24   H     H_    0.220218 0.727477 0.255941 0.136889
H25   H     H_    0.848127 0.842121 0.510687 0.169021
H26   H     H_    0.127712 0.898206 0.658466 0.155790
H27   H     H_    0.914708 0.899091 0.659522 0.152863
H28   H     H_    0.143213 0.165749 0.452293 0.170303
H29   H     H_    0.096625 0.125830 0.348469 0.149358
H30   H     H_    0.882766 0.125129 0.348587 0.152404
N1    N     N_R   0.585360 0.204570 0.560800 -0.182489
N2    N     N_R   0.414550 0.795430 0.439160 -0.174204
O1    O     O_R   0.455060 0.022100 0.338110 -0.589788
O2    O     O_R   0.512640 0.160150 0.379180 -0.587670
O3    O     O_R   0.288900 0.930980 0.479450 -0.587837
O4    O     O_R   0.346480 0.069030 0.520520 -0.589418
O5    O     O_R   0.487360 0.839850 0.620820 -0.585823
O6    O     O_R   0.544940 0.977900 0.661890 -0.586481
O7    O     O_R   0.653520 0.930970 0.479480 -0.585213
O8    O     O_R   0.711100 0.069020 0.520550 -0.595556
C47   C     C_3   0.718724 0.417262 0.780594 -0.407541
C48   C     C_3   0.728229 0.499665 0.820914 -0.363627
C49   C     C_3   0.813622 0.474959 0.924765 -0.828404
H31   H     H_    0.771867 0.401719 0.980503 0.256337
H32   H     H_    0.913529 0.469932 0.920283 0.251983
H33   H     H_    0.818842 0.535935 0.951462 0.243581
H34   H     H_    0.770576 0.574479 0.767631 0.213118
H35   H     H_    0.630473 0.504995 0.828770 0.235436
H36   H     H_    0.683871 0.342710 0.838603 0.202646
H37   H     H_    0.818959 0.416438 0.772862 0.195356
C50   C     C_3   0.804999 0.158608 0.671171 -0.375225
C51   C     C_3   0.796110 0.054675 0.760919 -0.304904
C52   C     C_3   0.923846 0.039748 0.835072 -0.917837
H38   H     H_    0.914461 0.962168 0.895840 0.251696
H39   H     H_    0.004513 0.048667 0.795636 0.253308
H40   H     H_    0.947428 0.096053 0.870470 0.257443
H41   H     H_    0.719474 0.047155 0.803394 0.216479
H42   H     H_    0.772664 0.993180 0.732519 0.229545
H43   H     H_    0.837549 0.158169 0.606691 0.191475
H44   H     H_    0.888456 0.210212 0.693559 0.169018

loop_
_geom_bond_atom_site_label_1
_geom_bond_atom_site_label_2
_ccdc_geom_bond_type
C43   H25   S    
C52   H38   S    
C19   C20   A    
C25   H19   S    
C41   N2    A    
C7    C8    A    
C45   C46   S    
C4    H30   S    
C50   H44   S    
C51   H41   S    
C30   C35   A    
C45   H28   S    
C1    C5    S    
Cu1   O5    S    
Cu2   N1    S    
C36   C37   A    
C19   C21   A    
C27   N1    A    
C30   C31   A    
C36   H18   S    
C24   H6    S    
C15   C16   A    
C6    C22   A    
C29   C33   A    
C12   O4    A    
C18   C19   A    
C42   C46   S    
C20   C24   A    
C16   H5    S    
C27   H20   S    
C8    H10   S    
C35   C36   A    
C23   O6    A    
C39   H24   S    
Cu2   O8    S    
Cu1   O3    S    
C3    H27   S    
C9    C10   A    
C18   H8    S    
C26   C50   S    
C2    C34   S    
C35   H23   S    
C43   H21   S    
C21   C22   A    
Cu1   N2    S    
C44   C46   S    
C7    C11   A    
C4    C45   S    
C25   C29   A    
C3    C44   S    
Cu1   Cu2   S    
C14   C20   A    
C48   H34   S    
C38   C41   A    
C12   C46   S    
C42   H12   S    
C39   C40   A    
C32   H22   S    
C1    O2    A    
Cu2   O4    S    
C12   O3    A    
C47   H36   S    
C9    H11   S    
Cu1   O7    S    
C2    C4    S    
C5    C9    A    
C37   C38   A    
C33   C47   S    
C17   H14   S    
C49   H32   S    
C11   C16   A    
C50   C51   S    
C2    C43   S    
C6    C24   A    
C40   N2    A    
C17   C18   A    
C15   H13   S    
C34   O8    A    
C44   H26   S    
C44   H3    S    
C52   H40   S    
C40   H17   S    
Cu2   O6    S    
C42   C43   S    
C49   H31   S    
C28   C29   A    
C31   C32   A    
C10   C13   A    
C5    C8    A    
C3    H4    S    
C48   H35   S    
C22   H7    S    
C50   H43   S    
C51   H42   S    
C26   N1    A    
C31   C38   A    
C13   C17   A    
C47   H37   S    
C32   C33   A    
C28   C30   A    
C2    C3    S    
C25   C26   A    
C37   C39   A    
C49   H33   S    
C48   C49   S    
C6    C23   S    
C51   C52   S    
Cu2   O2    S    
C34   O7    A    
Cu1   O1    S    
C21   H15   S    
C10   C11   A    
C42   H1    S    
C52   H39   S    
C23   O5    A    
C4    H2    S    
C27   C28   A    
C14   C15   A    
C45   H29   S    
C41   H16   S    
C47   C48   S    
C13   C14   A    
C1    O1    A    
C7    H9    S    
