data_mof_unit_66036.cif
_audit_creation_date              2012-12-10T19:27:23-0500
_audit_creation_method            fapswitch 2.2
_symmetry_space_group_name_H-M    P1
_symmetry_Int_Tables_number       1
_space_group_crystal_system       triclinic
_cell_length_a                    13.899086
_cell_length_b                    16.446944
_cell_length_c                    17.716912
_cell_angle_alpha                 90.172535
_cell_angle_beta                  90.194374
_cell_angle_gamma                 84.889345
_cell_volume                      4033.9025916

loop_
_atom_site_label
_atom_site_type_symbol
_atom_type_description
_atom_site_fract_x
_atom_site_fract_y
_atom_site_fract_z
_atom_type_partial_charge
C1    C     C_R   0.496785 0.500399 0.644615 0.826449
C2    C     C_R   0.503216 0.499601 0.355384 0.826400
C3    C     C_R   0.454137 0.563502 0.154710 -0.141159
C4    C     C_R   0.545921 0.436532 0.845289 -0.141142
C5    C     C_R   0.502438 0.499337 0.114487 0.115370
C6    C     C_R   0.497560 0.500667 0.885510 0.115358
C7    C     C_1   0.500604 0.499858 0.033843 -0.042753
C8    C     C_1   0.499393 0.500148 0.966154 -0.042758
C9    C     C_R   0.440251 0.175451 0.450645 -0.263272
C10   C     C_R   0.559760 0.824548 0.549348 -0.263276
C11   C     C_R   0.441259 0.261199 0.451564 0.097999
C12   C     C_R   0.558752 0.738800 0.548429 0.097977
C13   C     C_R   0.559011 0.252645 0.548336 0.093427
C14   C     C_R   0.440979 0.747355 0.451670 0.093416
C15   C     C_R   0.560086 0.166740 0.549187 -0.267986
C16   C     C_R   0.439904 0.833260 0.450819 -0.267987
C17   C     C_R   0.500140 0.126921 0.499930 0.140767
C18   C     C_R   0.499860 0.873078 0.500069 0.140780
C19   C     C_1   0.500048 0.037292 0.499977 -0.032146
C20   C     C_1   0.499952 0.962708 0.500022 -0.032149
C21   C     C_R   0.683364 0.486940 0.500001 0.850808
C22   C     C_R   0.316636 0.513060 0.499998 0.850866
C23   C     C_1   0.213608 0.521012 0.500264 -0.147848
C24   C     C_1   0.786392 0.478988 0.499736 -0.147876
C25   C     C_2   0.023343 0.533688 0.500810 -0.156550
C26   C     C_2   0.976657 0.466311 0.499191 -0.156547
C27   C     C_1   0.873138 0.472646 0.499480 0.017057
C28   C     C_1   0.126862 0.527354 0.500521 0.017058
C29   C     C_R   0.554278 0.435241 0.152445 -0.190078
C30   C     C_R   0.445661 0.564730 0.847551 -0.190072
C31   C     C_R   0.559162 0.434673 0.231480 -0.027609
C32   C     C_R   0.440781 0.565296 0.768516 -0.027628
C33   C     C_R   0.507684 0.498953 0.272492 -0.106786
C34   C     C_R   0.492317 0.501046 0.727506 -0.106771
C35   C     C_R   0.456654 0.563298 0.233244 -0.208095
C36   C     C_R   0.543406 0.436734 0.766755 -0.208117
Cu1   Cu    Cu3+1 0.500000 0.419580 0.500020 0.973274
Cu2   Cu    Cu3+1 0.500000 0.580420 0.499980 0.973261
H1    H     H_    0.015875 0.406143 0.497638 0.159570
H2    H     H_    0.984125 0.593857 0.502362 0.159568
H3    H     H_    0.593177 0.386843 0.120119 0.168169
H4    H     H_    0.406717 0.613104 0.879876 0.168195
H5    H     H_    0.417170 0.612920 0.263506 0.145765
H6    H     H_    0.582934 0.387136 0.736493 0.145741
H7    H     H_    0.414127 0.613480 0.125368 0.138068
H8    H     H_    0.585977 0.386580 0.874632 0.138066
H9    H     H_    0.392912 0.147336 0.411662 0.139659
H10   H     H_    0.607108 0.852663 0.588325 0.139651
H11   H     H_    0.394698 0.297686 0.413250 0.120721
H12   H     H_    0.605321 0.702313 0.586738 0.120714
H13   H     H_    0.605648 0.282365 0.586599 0.114067
H14   H     H_    0.394334 0.717636 0.413412 0.114063
H15   H     H_    0.607483 0.131735 0.588118 0.137623
H16   H     H_    0.392498 0.868266 0.411893 0.137621
N1    N     N_R   0.500030 0.298780 0.500030 -0.167591
N2    N     N_R   0.499970 0.701220 0.499970 -0.167588
O1    O     O_R   0.500010 0.432070 0.608760 -0.592805
O2    O     O_R   0.499990 0.567930 0.391240 -0.592811
O3    O     O_R   0.500000 0.567880 0.608730 -0.566812
O4    O     O_R   0.500000 0.432120 0.391270 -0.566811
O5    O     O_R   0.637850 0.422490 0.500000 -0.556713
O6    O     O_R   0.362150 0.577510 0.500000 -0.556710
O7    O     O_R   0.637840 0.558310 0.499970 -0.590256
O8    O     O_R   0.362160 0.441690 0.500030 -0.590258
C37   C     C_2   0.622475 0.368572 0.268025 0.841697
O9    O     O_2   0.669416 0.382689 0.324317 -0.590711
O10   O     O_R   0.631533 0.290496 0.235919 -0.768373
H17   H     H_    0.677360 0.250821 0.265290 0.337124
C38   C     C_2   0.377409 0.631357 0.731967 0.841690
O11   O     O_2   0.330524 0.617216 0.675653 -0.590750
O12   O     O_R   0.368228 0.709419 0.764096 -0.768372
H18   H     H_    0.322367 0.749065 0.734723 0.337130

loop_
_geom_bond_atom_site_label_1
_geom_bond_atom_site_label_2
_ccdc_geom_bond_type
Cu1   O5    S    
C31   C33   A    
Cu1   O1    S    
Cu1   Cu2   S    
C11   H11   S    
C2    O2    A    
C1    O1    A    
C22   O6    A    
C35   H5    S    
C14   N2    A    
C19   C20   T    
C24   C27   T    
C3    C35   A    
C16   H16   S    
C13   C15   A    
C11   N1    A    
O12   H18   S    
C29   C31   A    
C4    H8    S    
C23   C28   T    
C25   C28   S    
C30   C32   A    
C9    C11   A    
C26   C27   S    
C12   N2    A    
C2    O4    A    
C10   C12   A    
C10   C18   A    
C13   H13   S    
C15   H15   S    
C2    C33   S    
C4    C6    A    
C6    C30   A    
C1    C34   S    
C9    H9    S    
C34   C36   A    
C1    O3    A    
C25   H2    S    
C10   H10   S    
C38   O11   D    
C33   C35   A    
C14   C16   A    
C26   H1    S    
C36   H6    S    
Cu1   O4    S    
C37   O10   S    
C22   O8    A    
O10   H17   S    
Cu1   N1    S    
C5    C29   A    
C3    C5    A    
C38   O12   S    
C7    C8    T    
Cu1   O8    S    
Cu2   N2    S    
C4    C36   A    
C18   C20   S    
C16   C18   A    
C37   O9    D    
C21   C24   S    
C9    C17   A    
C15   C17   A    
C31   C37   S    
C5    C7    S    
C30   H4    S    
C6    C8    S    
C17   C19   S    
C29   H3    S    
C25   C26   D    
Cu2   O7    S    
C32   C38   S    
C21   O5    A    
Cu2   O2    S    
C3    H7    S    
C22   C23   S    
C14   H14   S    
Cu2   O3    S    
C21   O7    A    
Cu2   O6    S    
C12   H12   S    
C13   N1    A    
C32   C34   A    
