data_mof_unit_14772.cif
_audit_creation_date              2012-12-10T17:12:04-0500
_audit_creation_method            fapswitch 2.2
_symmetry_space_group_name_H-M    P1
_symmetry_Int_Tables_number       1
_space_group_crystal_system       triclinic
_cell_length_a                    11.661143
_cell_length_b                    12.997003
_cell_length_c                    15.862664
_cell_angle_alpha                 92.700594
_cell_angle_beta                  73.94038
_cell_angle_gamma                 99.898439
_cell_volume                      2275.92901977

loop_
_atom_site_label
_atom_site_type_symbol
_atom_type_description
_atom_site_fract_x
_atom_site_fract_y
_atom_site_fract_z
_atom_type_partial_charge
C1    C     C_R   0.520602 0.700879 0.501832 0.792268
C2    C     C_R   0.478868 0.299107 0.499317 0.789399
C3    C     C_R   0.354465 0.483754 0.086677 -0.192181
C4    C     C_R   0.643619 0.482573 0.912760 -0.184591
C5    C     C_R   0.274238 0.492004 0.038215 -0.238459
C6    C     C_R   0.723260 0.475305 0.962157 -0.243627
C7    C     C_R   0.466209 0.185660 0.499938 -0.051036
C8    C     C_R   0.531993 0.814299 0.503965 -0.049961
C9    C     C_R   0.650118 0.984901 0.512531 -0.225529
C10   C     C_R   0.347080 0.015011 0.493513 -0.216694
C11   C     C_R   0.639855 0.876771 0.510916 -0.193768
C12   C     C_R   0.358155 0.123161 0.493393 -0.196695
C13   C     C_R   0.434121 0.860629 0.499118 -0.277571
C14   C     C_R   0.563024 0.139327 0.507048 -0.282911
C15   C     C_R   0.444031 0.968657 0.499955 0.176622
C16   C     C_R   0.552866 0.031276 0.506739 0.175014
C17   C     C_R   0.939714 0.595751 0.583214 -0.348507
C18   C     C_R   0.060312 0.404289 0.416746 -0.349108
C19   C     C_R   0.821453 0.586614 0.575084 0.113652
C20   C     C_R   0.178569 0.413421 0.424884 0.116053
C21   C     C_R   0.860012 0.458635 0.463925 0.016548
C22   C     C_R   0.139993 0.541375 0.536064 0.017039
C23   C     C_R   0.426681 0.492784 0.667968 0.818567
C24   C     C_R   0.573204 0.505551 0.331859 0.826438
C25   C     C_R   0.979906 0.465236 0.469720 0.069386
C26   C     C_R   0.020107 0.534783 0.530257 0.069466
C27   C     C_R   0.383165 0.485971 0.763952 -0.155704
C28   C     C_R   0.616055 0.504149 0.235610 -0.135954
C29   C     C_R   0.231853 0.507218 0.899418 -0.201236
C30   C     C_R   0.766463 0.471882 0.102241 -0.200627
C31   C     C_R   0.268788 0.508449 0.808266 -0.268911
C32   C     C_R   0.730313 0.479568 0.193265 -0.275942
C33   C     C_R   0.459164 0.458665 0.811797 0.384907
C34   C     C_R   0.538995 0.522960 0.185718 0.382093
C35   C     C_R   0.432641 0.478026 0.903178 -0.010773
C36   C     C_R   0.565492 0.495686 0.095625 -0.029847
C37   C     C_R   0.312996 0.493430 0.947072 0.110347
C38   C     C_R   0.684933 0.479428 0.053237 0.117698
C39   C     C_R   0.518741 0.481011 0.952768 0.067649
C40   C     C_R   0.479312 0.488094 0.045944 0.060257
Cu1   Cu    Cu3+1 0.386820 0.492450 0.493500 0.943053
Cu2   Cu    Cu3+1 0.613180 0.507550 0.506500 0.940558
H1    H     H_    0.180554 0.495372 0.072380 0.141860
H2    H     H_    0.816864 0.470729 0.928656 0.142046
H3    H     H_    0.240072 0.366159 0.383904 0.125085
H4    H     H_    0.759966 0.633905 0.616039 0.125206
H5    H     H_    0.967928 0.650013 0.630433 0.134354
H6    H     H_    0.032114 0.350052 0.369505 0.134192
H7    H     H_    0.792071 0.467350 0.230381 0.170823
H8    H     H_    0.207688 0.526042 0.772515 0.170546
H9    H     H_    0.141142 0.520737 0.932770 0.139969
H10   H     H_    0.857219 0.457427 0.070251 0.139870
H11   H     H_    0.315825 0.473000 0.156348 0.200306
H12   H     H_    0.683998 0.491874 0.843312 0.207650
H13   H     H_    0.646670 0.187100 0.512361 0.150301
H14   H     H_    0.350404 0.812888 0.493926 0.152141
H15   H     H_    0.282334 0.157724 0.487979 0.155925
H16   H     H_    0.716287 0.842209 0.515033 0.156198
H17   H     H_    0.734002 0.032122 0.517826 0.135042
H18   H     H_    0.263224 0.967773 0.488177 0.134948
H19   H     H_    0.172166 0.594511 0.582348 0.115362
H20   H     H_    0.827841 0.405504 0.417636 0.115668
N1    N     N_R   0.216750 0.481110 0.483710 -0.179352
N2    N     N_R   0.783250 0.518890 0.516290 -0.179475
O1    O     O_R   0.419950 0.645670 0.495380 -0.595144
O2    O     O_R   0.580050 0.354330 0.504620 -0.594557
O3    O     O_R   0.611110 0.658410 0.506370 -0.593673
O4    O     O_R   0.388890 0.341590 0.493630 -0.595268
O5    O     O_R   0.350820 0.490050 0.621260 -0.593548
O6    O     O_R   0.649180 0.509950 0.378740 -0.595941
O7    O     O_R   0.541970 0.502800 0.632250 -0.544333
O8    O     O_R   0.458030 0.497200 0.367750 -0.536484
O9    O     O_3   0.442072 0.573326 0.225167 -0.619954
C41   C     C_3   0.470435 0.680235 0.201031 0.052089
H21   H     H_    0.387162 0.703740 0.192409 0.167366
H22   H     H_    0.541397 0.697238 0.137403 0.130411
C42   C     C_3   0.508117 0.746443 0.274301 -0.329338
H23   H     H_    0.435264 0.730685 0.336511 0.240279
H24   H     H_    0.592155 0.724890 0.283245 0.201829
C43   C     C_3   0.530636 0.862832 0.253591 -0.918481
H25   H     H_    0.602939 0.880476 0.191301 0.255196
H26   H     H_    0.559942 0.908297 0.307188 0.270048
H27   H     H_    0.446409 0.887296 0.247838 0.254672
O10   O     O_3   0.557168 0.411103 0.769047 -0.627780
C44   C     C_3   0.517788 0.305522 0.749870 0.087214
H28   H     H_    0.582350 0.284753 0.688168 0.175834
H29   H     H_    0.426669 0.291013 0.737516 0.112827
C45   C     C_3   0.519640 0.234078 0.823293 -0.365830
H30   H     H_    0.611128 0.248379 0.834347 0.231740
H31   H     H_    0.453058 0.251874 0.885018 0.219394
C46   C     C_3   0.488317 0.119293 0.800098 -0.908277
H32   H     H_    0.396272 0.102948 0.790154 0.258479
H33   H     H_    0.490293 0.069383 0.854423 0.257206
H34   H     H_    0.555000 0.099131 0.739294 0.257983

loop_
_geom_bond_atom_site_label_1
_geom_bond_atom_site_label_2
_ccdc_geom_bond_type
C8    C13   A    
C5    C37   A    
C1    C8    S    
O9    C41   S    
C23   O5    A    
C10   H18   S    
C2    C7    S    
C19   H4    S    
C24   O6    A    
C42   H23   S    
C27   C33   A    
C41   H22   S    
C17   C26   A    
C35   C37   A    
C9    C16   A    
C2    O4    A    
C10   C15   A    
C44   C45   S    
C15   C16   A    
Cu2   O6    S    
C30   C38   A    
Cu1   Cu2   S    
C21   N2    A    
C30   H10   S    
C33   C35   A    
C22   N1    A    
C7    C14   A    
C41   C42   S    
C1    O1    A    
C6    C38   A    
C23   C27   S    
C11   H16   S    
C24   C28   S    
C34   C36   A    
C20   H3    S    
C13   H14   S    
C44   H29   S    
C14   H13   S    
C5    H1    S    
C28   C34   A    
C6    H2    S    
C18   C25   A    
C43   H27   S    
Cu1   O4    S    
C42   H24   S    
C7    C12   A    
C41   H21   S    
C27   C31   A    
C23   O7    A    
C28   C32   A    
O10   C44   S    
C43   H26   S    
C46   H32   S    
Cu1   O1    S    
C2    O2    A    
C25   C26   A    
C44   H28   S    
C9    H17   S    
C35   C39   A    
C46   H33   S    
C4    C39   A    
C36   C40   A    
C19   N2    A    
C9    C11   A    
C21   H20   S    
C10   C12   A    
Cu1   O8    S    
C12   H15   S    
C4    C6    A    
C45   H31   S    
C3    C40   A    
C13   C15   A    
Cu2   O3    S    
C14   C16   A    
Cu1   N1    S    
C31   H8    S    
Cu2   N2    S    
C39   C40   A    
C24   O8    A    
Cu1   O5    S    
C29   H9    S    
C42   C43   S    
C21   C25   A    
C4    H12   S    
C17   H5    S    
C43   H25   S    
C3    C5    A    
C18   H6    S    
C1    O3    A    
C20   N1    A    
C36   C38   A    
C29   C31   A    
C22   H19   S    
C30   C32   A    
C3    H11   S    
C45   C46   S    
C8    C11   A    
Cu2   O7    S    
C17   C19   A    
C18   C20   A    
C33   O10   S    
C32   H7    S    
C34   O9    S    
C45   H30   S    
C22   C26   A    
C29   C37   A    
Cu2   O2    S    
C46   H34   S    
