data_mof_unit_46269.cif
_audit_creation_date              2012-12-11T14:51:48-0500
_audit_creation_method            fapswitch 2.2
_symmetry_space_group_name_H-M    P1
_symmetry_Int_Tables_number       1
_space_group_crystal_system       triclinic
_cell_length_a                    6.990508
_cell_length_b                    16.90458
_cell_length_c                    16.705857
_cell_angle_alpha                 101.116518
_cell_angle_beta                  91.486212
_cell_angle_gamma                 90.886367
_cell_volume                      1936.04363216

loop_
_atom_site_label
_atom_site_type_symbol
_atom_type_description
_atom_site_fract_x
_atom_site_fract_y
_atom_site_fract_z
_atom_type_partial_charge
O1    O     O_R   0.506340 0.439070 0.579550 -0.545811
O2    O     O_R   0.170010 0.404890 0.412100 -0.538329
O3    O     O_R   0.005010 0.560930 0.420450 -0.534777
C1    C     C_R   0.338817 0.381178 0.384183 0.798366
O4    O     O_R   0.176280 0.429360 0.578400 -0.535881
O5    O     O_R   0.011320 0.585570 0.587940 -0.527647
C2    C     C_R   0.345700 0.413182 0.604897 0.759165
O6    O     O_R   0.500030 0.414430 0.412060 -0.525512
O7    O     O_3   0.340950 0.551220 0.502940 -0.361422
V1    V     V_3+5 0.064020 0.490500 0.499460 1.548442
O8    O     O_R   0.681910 0.595110 0.587900 -0.545962
C3    C     C_R   0.856050 0.620136 0.614382 0.741706
O9    O     O_R   0.675640 0.570640 0.421600 -0.500298
C4    C     C_R   0.842153 0.584349 0.392964 0.816414
V2    V     V_3+5 0.564670 0.509500 0.500540 1.586967
O10   O     O_3   0.837610 0.448780 0.497060 -0.389605
C5    C     C_R   0.923996 0.864191 0.170763 -0.167041
C6    C     C_R   0.843265 0.632402 0.326317 -0.238754
C7    C     C_R   0.708034 0.666636 0.200183 0.222010
C8    C     C_R   0.718042 0.613516 0.256571 0.411623
C9    C     C_R   0.963799 0.700750 0.335411 -0.199167
C10   C     C_R   0.958007 0.753880 0.279407 -0.063018
C11   C     C_R   0.823094 0.738468 0.213015 0.005163
C12   C     C_R   0.809526 0.793939 0.159336 -0.224333
C13   C     C_R   0.051949 0.881176 0.239343 0.185032
C14   C     C_R   0.080148 0.823461 0.289672 0.443141
H1    H     H_    0.711549 0.783007 0.107104 0.137164
H2    H     H_    0.054854 0.713987 0.389743 0.216407
C15   C     C_3   0.709839 0.789471 0.749755 -0.137622
C16   C     C_3   0.840564 0.780495 0.675091 -0.225350
H3    H     H_    0.807634 0.801702 0.617458 0.185021
H4    H     H_    0.566763 0.815928 0.753718 0.222747
C17   C     C_3   0.883197 0.692610 0.682660 -0.127845
C18   C     C_3   0.751168 0.700769 0.755568 -0.148313
C19   C     C_3   0.920741 0.730457 0.815245 -0.190033
C20   C     C_3   0.053837 0.723212 0.742350 0.268650
C21   C     C_3   0.013424 0.809885 0.734041 0.408443
C22   C     C_3   0.885337 0.818102 0.807705 -0.163367
H5    H     H_    0.657073 0.648311 0.758025 0.190959
H6    H     H_    0.939328 0.709786 0.874073 0.131804
C23   C     C_3   0.554517 0.272409 0.289253 0.066370
C24   C     C_3   0.454157 0.189027 0.276994 0.261608
H7    H     H_    0.693545 0.288372 0.322509 0.166948
C25   C     C_3   0.409776 0.190460 0.186619 -0.225169
C26   C     C_3   0.505667 0.274870 0.197998 -0.051235
C27   C     C_3   0.314470 0.315223 0.224560 -0.122675
C28   C     C_3   0.219288 0.231124 0.213273 0.416932
C29   C     C_3   0.261225 0.227516 0.303648 -0.312341
C30   C     C_3   0.358811 0.311116 0.314066 -0.170536
H8    H     H_    0.586971 0.296504 0.150252 0.221247
H9    H     H_    0.255533 0.368039 0.202485 0.215449
H10   H     H_    0.158496 0.208343 0.346031 0.144518
C31   C     C_R   0.411808 0.135449 0.830644 -0.118386
C32   C     C_R   0.352323 0.362498 0.669108 -0.160077
C33   C     C_R   0.264598 0.339836 0.803557 -0.208013
C34   C     C_R   0.278082 0.390687 0.747264 0.400491
C35   C     C_R   0.423700 0.283605 0.651720 -0.287029
C36   C     C_R   0.419001 0.233661 0.710732 0.102146
C37   C     C_R   0.336309 0.261852 0.787113 0.057005
C38   C     C_R   0.331318 0.212803 0.846944 0.209241
C39   C     C_R   0.495057 0.108248 0.754861 -0.103082
C40   C     C_R   0.496645 0.156312 0.695177 -0.130461
H11   H     H_    0.558915 0.049323 0.741811 0.178250
H12   H     H_    0.204153 0.362892 0.862201 0.216640
H13   H     H_    0.561188 0.133381 0.637239 0.141258
H14   H     H_    0.482488 0.261211 0.592393 0.119947
O11   O     O_R   0.266070 0.085680 0.087850 -0.544788
O12   O     O_R   0.590090 0.070660 0.921580 -0.542201
O13   O     O_R   0.754780 0.914400 0.912080 -0.543167
C41   C     C_R   0.420754 0.084801 0.893816 0.777673
O14   O     O_R   0.596110 0.095130 0.087880 -0.495813
O15   O     O_R   0.760850 0.939050 0.079570 -0.538913
C42   C     C_R   0.427566 0.119260 0.116075 0.732648
O16   O     O_R   0.260010 0.061030 0.920360 -0.520833
O17   O     O_3   0.425070 0.948840 0.997010 -0.382194
V3    V     V_3+5 0.702100 0.009490 0.000550 1.559269
O18   O     O_R   0.090200 0.929250 0.078500 -0.558933
C43   C     C_R   0.923587 0.915240 0.106794 0.673336
O19   O     O_R   0.084180 0.904770 0.912200 -0.523081
C44   C     C_R   0.911037 0.884753 0.881176 0.749853
V4    V     V_3+5 0.201420 0.990350 0.999580 1.518932
O20   O     O_3   0.928580 0.051150 0.002990 -0.340345
N1    N     N_2   0.248968 0.698500 0.751675 -0.518439
H15   H     H_    0.283478 0.645479 0.714117 0.326080
C45   C     C_3   0.316157 0.711022 0.836841 -0.385908
H16   H     H_    0.469187 0.702621 0.844373 0.180691
H17   H     H_    0.244484 0.667730 0.868932 0.246125
H18   H     H_    0.289297 0.773686 0.868465 0.180737
S1    S     S_3+6 0.177321 0.884599 0.712063 0.008109
O21   O     O_2   0.065542 0.955469 0.696175 -0.307852
O22   O     O_2   0.314094 0.912383 0.782975 -0.371989
O23   O     O_3   0.300107 0.846976 0.628445 -0.447283
H19   H     H_    0.333241 0.791570 0.634162 0.325222
N2    N     N_2   0.533556 0.120482 0.305373 -0.481097
H20   H     H_    0.463161 0.066937 0.281111 0.274646
C46   C     C_3   0.568111 0.131878 0.392559 -0.501966
H21   H     H_    0.636126 0.077451 0.407620 0.212414
H22   H     H_    0.431132 0.141453 0.424987 0.184077
H23   H     H_    0.666365 0.184405 0.413853 0.181676
S2    S     S_3+6 0.987889 0.222596 0.169717 -0.025767
O24   O     O_2   0.901413 0.303125 0.199186 -0.336073
O25   O     O_2   0.990557 0.206620 0.078320 -0.343862
O26   O     O_3   0.867161 0.149558 0.203332 -0.501598
H24   H     H_    0.940347 0.100094 0.184524 0.319706
N3    N     N_2   0.250784 0.242966 0.924081 -0.534324
H25   H     H_    0.161703 0.202727 0.944695 0.304648
C47   C     C_3   0.386557 0.283409 0.985890 -0.447380
H26   H     H_    0.491701 0.239927 0.001842 0.168579
H27   H     H_    0.309120 0.310161 0.041470 0.228574
H28   H     H_    0.463711 0.332775 0.964030 0.224651
N4    N     N_2   0.140627 0.958994 0.262748 -0.469991
H29   H     H_    0.181953 0.986801 0.216227 0.242818
C48   C     C_3   0.040070 0.012608 0.325041 -0.473381
H30   H     H_    0.897897 0.026822 0.300791 0.196597
H31   H     H_    0.124596 0.069293 0.344588 0.191957
H32   H     H_    0.020256 0.984852 0.379413 0.242709
S3    S     S_3+6 0.233590 0.493063 0.782497 -0.059143
O27   O     O_2   0.187877 0.510160 0.871575 -0.347972
O28   O     O_2   0.413760 0.538247 0.770850 -0.377056
O29   O     O_3   0.050817 0.522293 0.728831 -0.512156
H33   H     H_    0.939784 0.488772 0.738830 0.329963
N5    N     N_2   0.578808 0.647767 0.131483 -0.481829
H34   H     H_    0.485274 0.692941 0.125401 0.253717
C49   C     C_3   0.665499 0.611097 0.055726 -0.377545
H35   H     H_    0.762230 0.654611 0.033946 0.144111
H36   H     H_    0.551561 0.591000 0.008281 0.224603
H37   H     H_    0.749080 0.557734 0.064004 0.239645
S4    S     S_3+6 0.277520 0.836887 0.361528 0.001084
O30   O     O_2   0.203304 0.862544 0.446024 -0.301118
O31   O     O_2   0.379762 0.758500 0.356289 -0.361907
O32   O     O_3   0.435955 0.906846 0.343349 -0.488368
H38   H     H_    0.542849 0.906333 0.383340 0.366549
S5    S     S_3+6 0.571260 0.523930 0.240843 0.013069
O33   O     O_2   0.505792 0.496406 0.153400 -0.325762
O34   O     O_2   0.681687 0.456978 0.266453 -0.329011
O35   O     O_3   0.377150 0.541567 0.298484 -0.492253
H39   H     H_    0.308282 0.584323 0.277224 0.348644

loop_
_geom_bond_atom_site_label_1
_geom_bond_atom_site_label_2
_ccdc_geom_bond_type
C36   C40   A    
C33   C34   A    
C7    N5    S    
C33   C37   A    
C6    C9    A    
C23   H7    S    
C34   S3    S    
C4    C6    S    
O2    C1    A    
N4    H29   S    
C12   H1    S    
C35   H14   S    
O15   V3    S    
S4    O30   D    
V4    O20   S    
O18   C43   A    
O29   H33   S    
N3    C47   S    
C27   C30   S    
C21   C22   S    
C49   H36   S    
C20   C21   S    
C15   H4    S    
S3    O28   D    
O5    C3    A    
C16   H3    S    
C20   N1    S    
V2    O10   S    
C46   H23   S    
C17   C20   S    
O13   V3    S    
C18   C19   S    
C23   C24   S    
C39   H11   S    
O23   H19   S    
O15   C43   A    
O8    V2    S    
C7    C8    A    
C46   H22   S    
C15   C22   S    
C41   O16   A    
S5    O35   S    
C11   C12   A    
O11   C42   A    
C8    S5    S    
S1    O22   D    
O7    V1    S    
C39   C40   A    
C16   C17   S    
C25   C28   S    
C1    O6    A    
C48   H32   S    
C37   C38   A    
C24   N2    S    
O9    C4    A    
C33   H12   S    
C47   H27   S    
N2    H20   S    
C24   C25   S    
C31   C41   S    
C23   C30   S    
C31   C38   A    
C45   H17   S    
C32   C34   A    
C5    C12   A    
C18   H5    S    
C28   C29   S    
C19   C22   S    
S3    O29   S    
V3    O20   S    
O19   V4    S    
O17   V4    S    
C24   C29   S    
C36   C37   A    
C45   H16   S    
C27   H9    S    
S2    O26   S    
C28   S2    S    
C16   C21   S    
C19   C20   S    
C7    C11   A    
O17   V3    S    
C15   C16   S    
N1    H15   S    
O18   V4    S    
C47   H26   S    
C46   H21   S    
S2    O25   D    
C17   C18   S    
N4    C48   S    
C14   S4    S    
S1    O23   S    
N2    C46   S    
O3    C4    A    
C49   H37   S    
O1    V2    S    
C29   C30   S    
N1    C45   S    
C9    H2    S    
O11   V4    S    
O6    V2    S    
O9    V2    S    
S5    O33   D    
C47   H28   S    
O16   V4    S    
N5    C49   S    
O32   H38   S    
O2    V1    S    
S4    O32   S    
C25   C26   S    
O4    C2    A    
C48   H30   S    
C45   H18   S    
C27   C28   S    
C40   H13   S    
O1    C2    A    
C31   C39   A    
C5    C43   S    
O35   H39   S    
S4    O31   D    
O5    V1    S    
O8    C3    A    
O12   V3    S    
N3    H25   S    
C21   S1    S    
C1    C30   S    
C5    C13   A    
C9    C10   A    
C19   H6    S    
C13   C14   A    
O4    V1    S    
O3    V1    S    
V1    O10   S    
S3    O27   D    
C35   C36   A    
O14   V3    S    
C22   C44   S    
C26   H8    S    
C3    C17   S    
C15   C18   S    
S2    O24   D    
C6    C8    A    
O7    V2    S    
C25   C42   S    
C13   N4    S    
O19   C44   A    
C26   C27   S    
C29   H10   S    
O12   C41   A    
C10   C14   A    
O14   C42   A    
O26   H24   S    
S5    O34   D    
C23   C26   S    
C10   C11   A    
O13   C44   A    
C2    C32   S    
N5    H34   S    
S1    O21   D    
C38   N3    S    
C49   H35   S    
C48   H31   S    
C32   C35   A    
