data_mof_unit_12236.cif
_audit_creation_date              2012-10-26T20:21:47-0400
_audit_creation_method            fapswitch 2.2
_symmetry_space_group_name_H-M    P1
_symmetry_Int_Tables_number       1
_space_group_crystal_system       triclinic
_cell_length_a                    15.486438
_cell_length_b                    15.296763
_cell_length_c                    9.488419
_cell_angle_alpha                 91.932733
_cell_angle_beta                  89.956116
_cell_angle_gamma                 90.076073
_cell_volume                      2246.45280622

loop_
_atom_site_label
_atom_site_type_symbol
_atom_type_description
_atom_site_fract_x
_atom_site_fract_y
_atom_site_fract_z
_atom_type_partial_charge
C1    C     C_R   0.120675 0.382736 0.498109 0.588013
C2    C     C_R   0.993783 0.576455 0.929551 -0.015194
C3    C     C_R   0.993795 0.576567 0.078556 -0.006772
C4    C     C_R   0.006205 0.423433 0.921444 -0.006772
C5    C     C_R   0.506217 0.923544 0.070449 -0.015194
C6    C     C_R   0.493783 0.076455 0.929551 -0.015194
C7    C     C_R   0.493795 0.076567 0.078556 -0.006772
C8    C     C_R   0.506205 0.923433 0.921444 -0.006772
C9    C     C_R   0.811425 0.248843 0.389622 0.092067
C10   C     C_R   0.188575 0.751157 0.610377 0.092067
C11   C     C_R   0.251925 0.680014 0.398721 0.088233
C12   C     C_R   0.879325 0.617263 0.501891 0.588013
C13   C     C_R   0.748075 0.319986 0.601279 0.088233
C14   C     C_R   0.244325 0.312223 0.613206 0.094838
C15   C     C_R   0.755675 0.687777 0.386794 0.094838
C16   C     C_R   0.801096 0.741403 0.621939 0.093916
C17   C     C_R   0.198904 0.258597 0.378061 0.093916
C18   C     C_R   0.311425 0.748843 0.389622 0.092067
C19   C     C_R   0.688575 0.251157 0.610377 0.092067
C20   C     C_R   0.751925 0.180014 0.398721 0.088233
C21   C     C_R   0.248075 0.819986 0.601279 0.088233
C22   C     C_R   0.744325 0.812223 0.613206 0.094838
C23   C     C_R   0.879928 0.382184 0.498184 0.591162
C24   C     C_R   0.255675 0.187777 0.386794 0.094838
C25   C     C_R   0.301096 0.241403 0.621939 0.093916
C26   C     C_R   0.698904 0.758597 0.378061 0.093916
C27   C     C_R   0.188642 0.683295 0.505457 0.003135
C28   C     C_R   0.811357 0.316704 0.494543 0.003135
C29   C     C_R   0.809735 0.681863 0.505564 0.008436
C30   C     C_R   0.190265 0.318137 0.494436 0.008436
C31   C     C_R   0.688642 0.183296 0.505457 0.003135
C32   C     C_R   0.311358 0.816704 0.494543 0.003135
C33   C     C_R   0.309735 0.181863 0.505564 0.008436
C34   C     C_R   0.120072 0.617816 0.501816 0.591162
C35   C     C_R   0.690265 0.818137 0.494436 0.008436
C36   C     C_3   0.837216 0.292655 0.150935 -0.293041
C37   C     C_3   0.162784 0.707345 0.849065 -0.293041
C38   C     C_3   0.223599 0.602743 0.171750 -0.268906
C39   C     C_3   0.776401 0.397257 0.828250 -0.268906
C40   C     C_3   0.290982 0.456890 0.691501 -0.296707
C41   C     C_3   0.709018 0.543110 0.308499 -0.296707
C42   C     C_3   0.801618 0.680545 0.852082 -0.307164
C43   C     C_3   0.198382 0.319455 0.147918 -0.307163
C44   C     C_3   0.337216 0.792655 0.150935 -0.293041
C45   C     C_R   0.620675 0.882737 0.498109 0.588013
C46   C     C_3   0.662784 0.207344 0.849065 -0.293041
C47   C     C_3   0.723599 0.102743 0.171750 -0.268906
C48   C     C_3   0.276401 0.897257 0.828250 -0.268906
C49   C     C_3   0.790982 0.956890 0.691501 -0.296707
C50   C     C_3   0.209018 0.043110 0.308499 -0.296707
C51   C     C_3   0.301618 0.180545 0.852082 -0.307163
C52   C     C_3   0.698381 0.819455 0.147918 -0.307163
C53   C     C_R   0.379325 0.117263 0.501891 0.588013
C54   C     C_R   0.379928 0.882184 0.498184 0.591162
C55   C     C_R   0.620072 0.117816 0.501816 0.591162
C56   C     C_R   0.006217 0.423545 0.070449 -0.015194
Cu1   Cu    Cu3+1 0.000000 0.500000 0.640660 0.949038
Cu2   Cu    Cu3+1 0.000000 0.500000 0.359340 0.949038
Cu3   Cu    Cu3+1 0.500000 1.000000 0.640660 0.949038
Cu4   Cu    Cu3+1 0.500000 1.000000 0.359340 0.949038
H1    H     H_    0.011211 0.362501 0.123821 0.147601
H2    H     H_    0.772942 0.266810 0.120626 0.121280
H3    H     H_    0.881862 0.281375 0.060656 0.097841
H4    H     H_    0.830185 0.364040 0.171124 0.177173
H5    H     H_    0.100708 0.808893 0.750448 0.242413
H6    H     H_    0.227058 0.733190 0.879374 0.121280
H7    H     H_    0.169815 0.635960 0.828876 0.177173
H8    H     H_    0.118137 0.718625 0.939343 0.097841
H9    H     H_    0.320705 0.572591 0.315821 0.226950
H10   H     H_    0.274740 0.611807 0.091439 0.103727
H11   H     H_    0.173976 0.654722 0.163504 0.150481
H12   H     H_    0.988789 0.637499 0.876179 0.147601
H13   H     H_    0.191831 0.538890 0.148770 0.162189
H14   H     H_    0.679295 0.427409 0.684179 0.226950
H15   H     H_    0.725260 0.388193 0.908561 0.103727
H16   H     H_    0.808169 0.461110 0.851230 0.162189
H17   H     H_    0.826023 0.345278 0.836496 0.150481
H18   H     H_    0.251246 0.359000 0.823741 0.243629
H19   H     H_    0.360946 0.441410 0.683902 0.118305
H20   H     H_    0.281071 0.507100 0.777231 0.125798
H21   H     H_    0.268872 0.484546 0.590950 0.161581
H22   H     H_    0.748754 0.641000 0.176259 0.243629
H23   H     H_    0.989043 0.637943 0.138033 0.110441
H24   H     H_    0.639054 0.558590 0.316098 0.118305
H25   H     H_    0.731128 0.515454 0.409050 0.161581
H26   H     H_    0.718928 0.492900 0.222769 0.125798
H27   H     H_    0.877515 0.785165 0.790188 0.241378
H28   H     H_    0.739492 0.712921 0.879680 0.119294
H29   H     H_    0.840587 0.676098 0.949561 0.115822
H30   H     H_    0.787629 0.613453 0.810196 0.173145
H31   H     H_    0.122485 0.214835 0.209812 0.241378
H32   H     H_    0.260508 0.287078 0.120320 0.119294
H33   H     H_    0.212371 0.386547 0.189804 0.173145
H34   H     H_    0.010957 0.362057 0.861967 0.110441
H35   H     H_    0.159413 0.323903 0.050439 0.115822
H36   H     H_    0.399292 0.691107 0.249552 0.242413
H37   H     H_    0.272942 0.766810 0.120626 0.121280
H38   H     H_    0.381863 0.781375 0.060656 0.097841
H39   H     H_    0.330185 0.864040 0.171124 0.177173
H40   H     H_    0.600708 0.308893 0.750448 0.242413
H41   H     H_    0.727058 0.233190 0.879374 0.121280
H42   H     H_    0.669815 0.135960 0.828876 0.177173
H43   H     H_    0.618137 0.218625 0.939343 0.097841
H44   H     H_    0.820705 0.072591 0.315821 0.226950
H45   H     H_    0.511211 0.862501 0.123821 0.147601
H46   H     H_    0.774740 0.111807 0.091439 0.103727
H47   H     H_    0.673976 0.154722 0.163504 0.150481
H48   H     H_    0.691831 0.038890 0.148770 0.162189
H49   H     H_    0.179295 0.927409 0.684179 0.226950
H50   H     H_    0.225260 0.888193 0.908561 0.103727
H51   H     H_    0.308169 0.961109 0.851230 0.162189
H52   H     H_    0.326024 0.845278 0.836496 0.150481
H53   H     H_    0.751246 0.859000 0.823741 0.243629
H54   H     H_    0.860946 0.941410 0.683902 0.118305
H55   H     H_    0.781071 0.007099 0.777231 0.125798
H56   H     H_    0.488789 0.137499 0.876179 0.147601
H57   H     H_    0.768872 0.984546 0.590950 0.161581
H58   H     H_    0.248754 0.141000 0.176259 0.243629
H59   H     H_    0.139053 0.058590 0.316098 0.118305
H60   H     H_    0.231128 0.015454 0.409050 0.161581
H61   H     H_    0.218929 0.992900 0.222769 0.125798
H62   H     H_    0.377515 0.285165 0.790188 0.241378
H63   H     H_    0.239492 0.212922 0.879680 0.119294
H64   H     H_    0.340587 0.176097 0.949561 0.115822
H65   H     H_    0.287629 0.113453 0.810196 0.173145
H66   H     H_    0.622485 0.714835 0.209812 0.241378
H67   H     H_    0.489043 0.137943 0.138033 0.110441
H68   H     H_    0.760508 0.787078 0.120320 0.119294
H69   H     H_    0.712371 0.886547 0.189804 0.173145
H70   H     H_    0.659413 0.823902 0.050439 0.115822
H71   H     H_    0.510957 0.862057 0.861967 0.110441
H72   H     H_    0.899292 0.191107 0.249552 0.242413
N1    N     N_R   0.000000 0.500000 0.852070 -0.228427
N2    N     N_2   0.757670 0.620998 0.277700 -0.492831
N3    N     N_2   0.848537 0.729393 0.748406 -0.494846
N4    N     N_2   0.151463 0.270607 0.251594 -0.494846
N5    N     N_2   0.370515 0.750350 0.274269 -0.484814
N6    N     N_2   0.629485 0.249650 0.725731 -0.484814
N7    N     N_2   0.761225 0.102564 0.311474 -0.509835
N8    N     N_2   0.238775 0.897436 0.688526 -0.509835
N9    N     N_2   0.742330 0.879002 0.722300 -0.492831
N10   N     N_2   0.257670 0.120998 0.277700 -0.492830
N11   N     N_2   0.348537 0.229393 0.748406 -0.494846
N12   N     N_R   0.000000 0.500000 0.147930 -0.228427
N13   N     N_2   0.651463 0.770607 0.251594 -0.494846
N14   N     N_R   0.500000 1.000000 0.852070 -0.228427
N15   N     N_R   0.500000 1.000000 0.147930 -0.228427
N16   N     N_2   0.870515 0.250350 0.274269 -0.484814
N17   N     N_2   0.129485 0.749649 0.725731 -0.484814
N18   N     N_2   0.261225 0.602564 0.311474 -0.509835
N19   N     N_2   0.738774 0.397436 0.688526 -0.509835
N20   N     N_2   0.242330 0.379002 0.722300 -0.492830
O1    O     O_R   0.090170 0.409820 0.618740 -0.484920
O2    O     O_R   0.409830 0.090180 0.381260 -0.484920
O3    O     O_R   0.409830 0.090180 0.618740 -0.478317
O4    O     O_R   0.590170 0.909820 0.381260 -0.478317
O5    O     O_R   0.409830 0.909820 0.381260 -0.486538
O6    O     O_R   0.590170 0.090180 0.618740 -0.486538
O7    O     O_R   0.590170 0.090180 0.381260 -0.499576
O8    O     O_R   0.409830 0.909820 0.618740 -0.499576
O9    O     O_R   0.909830 0.590180 0.381260 -0.484920
O10   O     O_R   0.909830 0.590180 0.618740 -0.478317
O11   O     O_R   0.090170 0.409820 0.381260 -0.478317
O12   O     O_R   0.909830 0.409820 0.381260 -0.486538
O13   O     O_R   0.090170 0.590180 0.618740 -0.486538
O14   O     O_R   0.090170 0.590180 0.381260 -0.499576
O15   O     O_R   0.909830 0.409820 0.618740 -0.499576
O16   O     O_R   0.590170 0.909820 0.618740 -0.484920

loop_
_geom_bond_atom_site_label_1
_geom_bond_atom_site_label_2
_ccdc_geom_bond_type
C10   C27   A    
C48   H50   S    
C38   H10   S    
C11   C18   A    
C52   N13   S    
C5    N15   A    
C12   C29   S    
C26   N13   S    
C51   H63   S    
C7    H67   S    
Cu4   O7    S    
Cu2   O12   S    
C52   H68   S    
H18   N20   S    
C15   N2    S    
C5    H45   S    
C41   H26   S    
C46   H42   S    
C44   N5    S    
H49   N8    S    
C50   H60   S    
H9    N18   S    
C39   H17   S    
C20   N7    S    
C10   N17   S    
C6    N14   A    
C44   H39   S    
C36   H2    S    
Cu1   O13   S    
C37   H8    S    
C39   N19   S    
C40   N20   S    
Cu3   O8    S    
C11   N18   S    
C12   O9    A    
C44   H38   S    
C36   N16   S    
C55   O6    A    
C49   H57   S    
H31   N4    S    
C24   N10   S    
C49   N9    S    
C43   H35   S    
C40   H20   S    
C13   C28   A    
Cu4   N15   S    
C39   H15   S    
C36   H3    S    
C51   H64   S    
C46   N6    S    
C55   O7    A    
C49   H54   S    
C19   C31   A    
C53   O2    A    
C27   C34   S    
C4    C56   A    
C17   C30   A    
C54   O8    A    
Cu1   N1    S    
C25   N11   S    
C50   H61   S    
H62   N11   S    
C14   C30   A    
C2    H12   S    
Cu2   O11   S    
C32   C54   S    
C41   N2    S    
C46   H41   S    
H66   N13   S    
C15   C29   A    
C7    N15   A    
C10   C21   A    
C33   C53   S    
C21   C32   A    
C2    N1    A    
C48   N8    S    
C50   H59   S    
C17   C24   A    
H27   N3    S    
Cu4   O5    S    
C13   N19   S    
H36   N5    S    
Cu3   O3    S    
C15   C26   A    
C16   C29   A    
C23   C28   S    
C41   H24   S    
Cu1   O1    S    
C42   N3    S    
C42   H30   S    
H72   N16   S    
H22   N2    S    
C18   N5    S    
Cu3   O6    S    
Cu4   O4    S    
C22   C35   A    
C44   H37   S    
C9    C20   A    
C11   C27   A    
C47   H46   S    
C37   H6    S    
C8    H71   S    
C40   H19   S    
C45   O4    A    
C39   H16   S    
C51   H65   S    
C1    O1    A    
C6    H56   S    
H40   N6    S    
C23   O15   A    
C48   H52   S    
C53   O3    A    
C47   H47   S    
C3    H23   S    
C4    H34   S    
H14   N19   S    
C18   C32   A    
C52   H69   S    
C14   N20   S    
C34   O13   A    
C23   O12   A    
C38   H11   S    
C16   C22   A    
C49   H55   S    
C40   H21   S    
C8    N14   A    
C3    N12   A    
C24   C33   A    
C37   N17   S    
H58   N10   S    
C5    C8    A    
C6    C7    A    
Cu1   O15   S    
C51   N11   S    
C41   H25   S    
C46   H43   S    
C9    N16   S    
C43   H32   S    
H44   N7    S    
C42   H29   S    
C52   H70   S    
C2    C3    A    
C34   O14   A    
C54   O5    A    
Cu2   O9    S    
Cu1   Cu2   S    
C19   N6    S    
C37   H7    S    
C22   N9    S    
C1    C30   S    
C43   H33   S    
H53   N9    S    
C38   H13   S    
C17   N4    S    
C14   C25   A    
H5    N17   S    
C43   N4    S    
Cu2   O14   S    
C45   O16   A    
Cu4   O2    S    
C12   O10   A    
C56   N12   A    
Cu3   N14   S    
Cu2   N12   S    
C26   C35   A    
Cu3   Cu4   S    
C48   H51   S    
C42   H28   S    
C1    O11   A    
Cu1   O10   S    
C47   H48   S    
C47   N7    S    
C13   C19   A    
C56   H1    S    
C21   N8    S    
C31   C55   S    
C36   H4    S    
C16   N3    S    
C38   N18   S    
Cu3   O16   S    
C50   N10   S    
C9    C28   A    
C25   C33   A    
C4    N1    A    
C20   C31   A    
C35   C45   S    
