data_mof_unit_67198.cif
_audit_creation_date              2013-03-05T16:01:22-0500
_audit_creation_method            fapswitch 2.2
_symmetry_space_group_name_H-M    P1
_symmetry_Int_Tables_number       1
_space_group_crystal_system       triclinic
_cell_length_a                    20.24259
_cell_length_b                    20.023321
_cell_length_c                    8.499465
_cell_angle_alpha                 90.0
_cell_angle_beta                  92.298846
_cell_angle_gamma                 89.942263
_cell_volume                      3442.26180542

loop_
_atom_site_label
_atom_site_type_symbol
_atom_site_description
_atom_site_fract_x
_atom_site_fract_y
_atom_site_fract_z
_atom_type_partial_charge
P1    P     P_3+3 0.136530 0.426510 0.931350 0.506547
P2    P     P_3+3 0.136530 0.573490 0.431350 0.492823
P3    P     P_3+3 0.636530 0.926510 0.931350 0.502235
P4    P     P_3+3 0.636530 0.073490 0.431350 0.480619
O1    O     O_2   0.130070 0.404060 0.104920 -0.391377
O2    O     O_2   0.130070 0.595940 0.604920 -0.380179
O3    O     O_2   0.630070 0.904060 0.104920 -0.387051
O4    O     O_2   0.630070 0.095940 0.604920 -0.372426
O5    O     O_3   0.075780 0.466370 0.861070 -0.369372
O6    O     O_3   0.075780 0.533630 0.361070 -0.358415
O7    O     O_3   0.575780 0.966370 0.861070 -0.372683
O8    O     O_3   0.575780 0.033630 0.361070 -0.353139
O9    O     O_3   0.022320 0.344950 0.359800 -0.393572
O10   O     O_3   0.022320 0.655050 0.859800 -0.395459
O11   O     O_3   0.522320 0.844950 0.359800 -0.391695
O12   O     O_3   0.522320 0.155050 0.859800 -0.397075
O13   O     O_2   0.133663 0.293090 0.270653 -0.304908
O14   O     O_2   0.130623 0.706979 0.755393 -0.288354
O15   O     O_2   0.634224 0.794034 0.270524 -0.303836
O16   O     O_2   0.629247 0.208690 0.753039 -0.277583
O17   O     O_3   0.203145 0.481990 0.922101 -0.592198
O18   O     O_3   0.203925 0.517558 0.421590 -0.625047
O19   O     O_3   0.704736 0.979658 0.922006 -0.589925
O20   O     O_3   0.700176 0.013493 0.426418 -0.629797
O21   O     O_3   0.040349 0.206381 0.336362 -0.457451
O22   O     O_3   0.040935 0.793058 0.835030 -0.430050
O23   O     O_3   0.541196 0.706759 0.335220 -0.454340
O24   O     O_3   0.539465 0.293625 0.837209 -0.432643
H1    H     H_    0.950321 0.252867 0.283771 0.145709
H2    H     H_    0.947657 0.748462 0.835645 0.107847
H3    H     H_    0.449337 0.752203 0.296717 0.139549
H4    H     H_    0.446730 0.247748 0.833723 0.107984
C1    C     C_3   0.935111 0.149470 0.325866 -0.718223
C2    C     C_3   0.939306 0.854277 0.845672 -0.606062
C3    C     C_3   0.437011 0.647953 0.332214 -0.669006
C4    C     C_3   0.436845 0.353491 0.845017 -0.632558
H5    H     H_    0.945114 0.130806 0.206667 0.307521
H6    H     H_    0.916412 0.850061 0.725665 0.254247
H7    H     H_    0.385348 0.652903 0.369379 0.194953
H8    H     H_    0.415509 0.349782 0.723520 0.253640
H9    H     H_    0.949334 0.110479 0.412000 0.286528
H10   H     H_    0.972712 0.897975 0.846644 0.331473
H11   H     H_    0.436310 0.636601 0.204894 0.306569
H12   H     H_    0.469618 0.397665 0.849395 0.333354
P5    P     P_3+3 0.863410 0.426100 0.379280 0.452463
P6    P     P_3+3 0.863410 0.573900 0.879280 0.460263
P7    P     P_3+3 0.363410 0.926100 0.379280 0.453322
P8    P     P_3+3 0.363410 0.073900 0.879280 0.460383
P9    P     P_3+3 0.918614 0.281619 0.920813 0.443271
P10   P     P_3+3 0.921114 0.720451 0.422656 0.454656
P11   P     P_3+3 0.417913 0.782394 0.921742 0.460959
P12   P     P_3+3 0.420440 0.219916 0.422791 0.452926
O25   O     O_2   0.869860 0.403670 0.205810 -0.381786
O26   O     O_2   0.869860 0.596330 0.705810 -0.384164
O27   O     O_2   0.369860 0.903670 0.205810 -0.381773
O28   O     O_2   0.369860 0.096330 0.705810 -0.384281
O29   O     O_3   0.977590 0.344880 0.951200 -0.353059
O30   O     O_3   0.977590 0.655120 0.451200 -0.350984
O31   O     O_3   0.477590 0.844880 0.951200 -0.355834
O32   O     O_3   0.477590 0.155120 0.451200 -0.349741
O33   O     O_2   0.867483 0.292960 0.048662 -0.379448
O34   O     O_2   0.868857 0.707625 0.547107 -0.387395
O35   O     O_2   0.367227 0.793859 0.050402 -0.374192
O36   O     O_2   0.368347 0.206742 0.547358 -0.390423
O37   O     O_3   0.794251 0.478728 0.366731 -0.547022
O38   O     O_3   0.793513 0.522366 0.869467 -0.542484
O39   O     O_3   0.294153 0.978567 0.366822 -0.546099
O40   O     O_3   0.293462 0.022446 0.869566 -0.541676
O41   O     O_3   0.953380 0.203761 0.972938 -0.605989
O42   O     O_3   0.959484 0.794552 0.490403 -0.559588
O43   O     O_3   0.452934 0.704913 0.974209 -0.583258
O44   O     O_3   0.457975 0.294456 0.490190 -0.561720
C5    C     C_3   0.996720 0.178042 0.860481 0.790506
C6    C     C_3   0.997426 0.827006 0.376478 0.748270
C7    C     C_3   0.496025 0.679383 0.861292 0.827943
C8    C     C_3   0.495472 0.327295 0.376098 0.753097
H13   H     H_    0.004570 0.212685 0.760643 -0.105419
H14   H     H_    0.011035 0.793275 0.279230 -0.117203
H15   H     H_    0.504846 0.714661 0.763325 -0.131920
H16   H     H_    0.509199 0.293745 0.278592 -0.115043
C9    C     C_3   0.967860 0.111591 0.798218 0.048718
C10   C     C_3   0.956968 0.887085 0.313046 0.080211
C11   C     C_3   0.465484 0.614270 0.795878 0.058666
C12   C     C_3   0.454434 0.387076 0.312873 0.071947
H17   H     H_    0.955008 0.080512 0.900078 0.188137
H18   H     H_    0.941772 0.916926 0.414542 0.197615
H19   H     H_    0.448927 0.584441 0.896303 0.200750
H20   H     H_    0.438547 0.416751 0.414211 0.196756
H21   H     H_    0.922596 0.122789 0.725290 0.019834
H22   H     H_    0.911998 0.868641 0.248862 0.038912
H23   H     H_    0.422252 0.627547 0.717849 -0.009124
H24   H     H_    0.409796 0.368171 0.248031 0.041927
C13   C     C_3   0.810405 0.459127 0.813563 0.370676
C14   C     C_3   0.812868 0.542200 0.315594 0.433242
C15   C     C_3   0.310147 0.959300 0.812810 0.368121
C16   C     C_3   0.312576 0.042030 0.315316 0.434863
H25   H     H_    0.832256 0.463401 0.696582 0.095334
H26   H     H_    0.838060 0.538611 0.202545 0.089447
H27   H     H_    0.332025 0.963762 0.695897 0.096179
H28   H     H_    0.337888 0.038420 0.202423 0.089541
H29   H     H_    0.845664 0.433783 0.897551 0.125331
H30   H     H_    0.845869 0.566835 0.405519 0.124574
H31   H     H_    0.345310 0.933662 0.896513 0.123504
H32   H     H_    0.345391 0.066896 0.405261 0.123708
C17   C     C_3   0.747660 0.417358 0.797560 -0.817465
C18   C     C_3   0.750730 0.584396 0.291127 -0.935191
C19   C     C_3   0.247228 0.917822 0.796185 -0.812381
C20   C     C_3   0.250257 0.083880 0.290201 -0.936458
H33   H     H_    0.712505 0.440314 0.709512 0.298971
H34   H     H_    0.718928 0.562906 0.194425 0.279771
H35   H     H_    0.212079 0.941276 0.708882 0.300670
H36   H     H_    0.218630 0.062028 0.193651 0.281353
H37   H     H_    0.759314 0.366063 0.758800 0.214715
H38   H     H_    0.763717 0.636292 0.259941 0.227805
H39   H     H_    0.258618 0.866666 0.756095 0.214307
H40   H     H_    0.262984 0.135764 0.258460 0.227450
H41   H     H_    0.723830 0.414375 0.912833 0.244088
H42   H     H_    0.722757 0.585537 0.400907 0.257730
H43   H     H_    0.223501 0.914439 0.911526 0.243429
H44   H     H_    0.222220 0.085100 0.399876 0.257120
Ba1   Ba    Ba6+2 0.999980 0.452130 0.155200 1.637246
Ba2   Ba    Ba6+2 0.999980 0.547870 0.655200 1.635176
Ba3   Ba    Ba6+2 0.499980 0.952130 0.155200 1.638112
Ba4   Ba    Ba6+2 0.499980 0.047870 0.655200 1.636185
C21   C     C_3   0.224512 0.507083 0.068659 1.006420
C22   C     C_3   0.245600 0.510900 0.557590 1.014452
C23   C     C_3   0.722396 0.011006 0.064174 1.020327
C24   C     C_3   0.745268 0.013286 0.556823 1.040923
H45   H     H_    0.182133 0.517931 0.142600 0.008538
H46   H     H_    0.221774 0.526196 0.666118 0.068600
H47   H     H_    0.678745 0.022549 0.133821 -0.012190
H48   H     H_    0.721648 0.027624 0.666402 0.089721
C25   C     C_3   0.274717 0.459066 0.146734 -0.825116
C26   C     C_3   0.310859 0.548762 0.541862 -0.996647
C27   C     C_3   0.773791 0.968709 0.155790 -0.816417
C28   C     C_3   0.804557 0.059023 0.529435 -1.073660
H49   H     H_    0.249288 0.426221 0.228939 0.248503
H50   H     H_    0.306935 0.601702 0.570234 0.176575
H51   H     H_    0.748650 0.931625 0.228608 0.243343
H52   H     H_    0.815490 0.089801 0.635136 0.250208
H53   H     H_    0.314345 0.485409 0.214230 0.274463
H54   H     H_    0.349168 0.528242 0.625405 0.294685
H55   H     H_    0.805343 0.999937 0.235594 0.270509
H56   H     H_    0.850481 0.031889 0.503323 0.318916
H57   H     H_    0.299764 0.428770 0.057614 0.251176
H58   H     H_    0.329723 0.544625 0.422522 0.292625
H59   H     H_    0.806812 0.942515 0.074787 0.264003
H60   H     H_    0.793883 0.092232 0.428475 0.251721
O45   O     O_3   0.924190 0.533610 0.949240 -0.408708
O46   O     O_3   0.924190 0.466390 0.449240 -0.409481
O47   O     O_3   0.424190 0.033610 0.949240 -0.408453
O48   O     O_3   0.424190 0.966390 0.449240 -0.409517
P13   P     P_3+3 0.080562 0.717913 0.884740 0.570854
P14   P     P_3+3 0.079692 0.281319 0.390871 0.556068
P15   P     P_3+3 0.579937 0.218578 0.884630 0.572161
P16   P     P_3+3 0.580234 0.781766 0.390564 0.557158
C29   C     C_3   0.972349 0.213870 0.362559 0.504817
C30   C     C_3   0.976292 0.790460 0.889898 0.426187
C31   C     C_3   0.473790 0.712559 0.369637 0.471138
C32   C     C_3   0.474458 0.289963 0.889639 0.441032
H61   H     H_    0.964339 0.227190 0.487399 -0.028715
H62   H     H_    0.977775 0.785077 0.019899 0.001838
H63   H     H_    0.468258 0.723863 0.496466 -0.019850
H64   H     H_    0.475247 0.284209 0.019496 -0.000509
H65   H     H_    0.881362 0.158944 0.332771 0.204579
H66   H     H_    0.900082 0.862908 0.930886 0.181053
H67   H     H_    0.460533 0.605618 0.395073 0.302656
H68   H     H_    0.396248 0.361078 0.927146 0.181869
C33   C     C_R   0.237071 0.301122 0.008299 -0.124582
C34   C     C_R   0.233855 0.701272 0.511039 -0.117679
C35   C     C_R   0.739257 0.803368 0.005757 -0.135607
C36   C     C_R   0.734660 0.200712 0.510629 -0.141873
C37   C     C_R   0.147551 0.345343 0.825753 0.329729
C38   C     C_R   0.148432 0.653818 0.322288 0.234077
C39   C     C_R   0.647809 0.845653 0.825847 0.322399
C40   C     C_R   0.649231 0.153418 0.321237 0.218551
C41   C     C_R   0.106837 0.333983 0.691335 -0.360732
C42   C     C_R   0.111364 0.662292 0.181020 -0.407781
C43   C     C_R   0.607144 0.834303 0.691280 -0.358928
C44   C     C_R   0.612286 0.161844 0.179590 -0.395767
C45   C     C_R   0.119973 0.281642 0.588479 0.239352
C46   C     C_R   0.123735 0.715298 0.079454 0.274961
C47   C     C_R   0.620354 0.782022 0.588461 0.230062
C48   C     C_R   0.624014 0.215347 0.078847 0.273696
C49   C     C_R   0.171531 0.236892 0.624326 -0.121151
C50   C     C_R   0.172960 0.761881 0.119322 -0.242962
C51   C     C_R   0.671480 0.736895 0.625342 -0.121315
C52   C     C_R   0.672426 0.262590 0.120375 -0.243460
C53   C     C_R   0.210218 0.243458 0.764503 0.087321
C54   C     C_R   0.209591 0.756859 0.262943 0.097666
C55   C     C_R   0.710349 0.743720 0.765292 0.098657
C56   C     C_R   0.708986 0.257545 0.264321 0.114617
C57   C     C_R   0.198309 0.297515 0.867336 0.024524
C58   C     C_R   0.197207 0.703159 0.366836 0.103773
C59   C     C_R   0.699190 0.798465 0.866759 0.012103
C60   C     C_R   0.697262 0.203280 0.367297 0.096860
H69   H     H_    0.068709 0.369805 0.658125 0.147458
H70   H     H_    0.074925 0.625206 0.145255 0.150335
H71   H     H_    0.568984 0.870083 0.658015 0.147382
H72   H     H_    0.576191 0.124511 0.143266 0.148098
C61   C     C_R   0.800399 0.701625 0.943133 -0.034744
C62   C     C_R   0.797553 0.300684 0.444490 -0.001922
C63   C     C_R   0.300010 0.201117 0.942903 -0.035430
C64   C     C_R   0.297710 0.800474 0.443759 0.005165
C65   C     C_R   0.789389 0.756580 0.044164 0.065337
C66   C     C_R   0.785240 0.246958 0.547769 0.090159
C67   C     C_R   0.287998 0.255193 0.045491 0.060595
C68   C     C_R   0.284689 0.747339 0.548102 0.075085
C69   C     C_R   0.851049 0.654272 0.986377 0.243965
C70   C     C_R   0.849170 0.347008 0.486516 0.232517
C71   C     C_R   0.350944 0.154109 0.986000 0.245716
C72   C     C_R   0.349240 0.846885 0.486068 0.235352
C73   C     C_R   0.890495 0.665148 0.123867 -0.504392
C74   C     C_R   0.887968 0.336753 0.624465 -0.510970
C75   C     C_R   0.390239 0.164939 0.123683 -0.507043
C76   C     C_R   0.387804 0.836791 0.624408 -0.518355
C77   C     C_R   0.877864 0.718099 0.225899 0.180793
C78   C     C_R   0.874106 0.285114 0.727655 0.194835
C79   C     C_R   0.376981 0.217384 0.226485 0.183017
C80   C     C_R   0.373391 0.785671 0.728479 0.198710
C81   C     C_R   0.827119 0.763280 0.186229 -0.311159
C82   C     C_R   0.822986 0.240417 0.689631 -0.308860
C83   C     C_R   0.325487 0.261823 0.187912 -0.313150
C84   C     C_R   0.321812 0.741395 0.691099 -0.318174
C85   C     C_R   0.759760 0.695898 0.804535 -0.056723
C86   C     C_R   0.757619 0.305950 0.304739 -0.119475
C87   C     C_R   0.259815 0.195746 0.803420 -0.056647
C88   C     C_R   0.258309 0.805233 0.303088 -0.112236
H73   H     H_    0.181895 0.197393 0.541662 0.134021
H74   H     H_    0.182821 0.801884 0.037671 0.146775
H75   H     H_    0.681575 0.697077 0.543310 0.135067
H76   H     H_    0.681809 0.303064 0.039660 0.144603
H77   H     H_    0.816020 0.802822 0.268060 0.197053
H78   H     H_    0.812089 0.201214 0.772008 0.193551
H79   H     H_    0.313821 0.300854 0.270542 0.200325
H80   H     H_    0.310189 0.702970 0.774762 0.190087
H81   H     H_    0.928527 0.629323 0.157707 0.165879
H82   H     H_    0.926725 0.371883 0.657274 0.167781
H83   H     H_    0.428619 0.129418 0.157068 0.166276
H84   H     H_    0.426695 0.871804 0.657014 0.168160
H85   H     H_    0.226951 0.338372 0.093149 0.169823
H86   H     H_    0.223383 0.664133 0.597389 0.167249
H87   H     H_    0.731404 0.842895 0.087102 0.165200
H88   H     H_    0.725945 0.162074 0.594656 0.182332
H89   H     H_    0.765120 0.653976 0.726248 0.167824
H90   H     H_    0.763939 0.347186 0.224934 0.164437
H91   H     H_    0.265650 0.154248 0.724170 0.169545
H92   H     H_    0.264873 0.846206 0.222709 0.164552
S1    S     S_3+6 0.264896 0.583911 0.033271 -0.070900
O49   O     O_2   0.220886 0.627511 0.930876 -0.359033
O50   O     O_2   0.282451 0.619132 0.184757 -0.354490
O51   O     O_3   0.334275 0.566833 0.941386 -0.512293
H93   H     H_    0.330187 0.593183 0.843309 0.334958
S2    S     S_3+6 0.266457 0.424442 0.571458 -0.074922
O52   O     O_2   0.208910 0.384092 0.510147 -0.341846
O53   O     O_2   0.324393 0.408933 0.473547 -0.367249
O54   O     O_3   0.286535 0.404263 0.758045 -0.568834
H94   H     H_    0.302287 0.357655 0.751327 0.352196
S3    S     S_3+6 0.759784 0.087659 0.013172 -0.087659
O55   O     O_2   0.715232 0.124755 0.898754 -0.334128
O56   O     O_2   0.773702 0.129579 0.156292 -0.403850
O57   O     O_3   0.831207 0.071828 0.929647 -0.521881
H95   H     H_    0.854459 0.114946 0.941455 0.358526
S4    S     S_3+6 0.773119 0.928992 0.579971 -0.053248
O58   O     O_2   0.717220 0.883400 0.533584 -0.354765
O59   O     O_2   0.828982 0.913921 0.475531 -0.361487
O60   O     O_3   0.798280 0.915088 0.766838 -0.529629
H96   H     H_    0.804173 0.866162 0.771914 0.344289
S5    S     S_3+6 0.020218 0.060336 0.683828 0.053250
O61   O     O_2   0.065109 0.019697 0.791591 -0.183002
O62   O     O_2   0.977105 0.013610 0.587783 -0.257894
O63   O     O_3   0.065527 0.106965 0.564237 -0.520136
H97   H     H_    0.097363 0.075435 0.518991 0.397069
S6    S     S_3+6 0.997847 0.943267 0.185491 0.005174
O64   O     O_2   0.946773 0.976726 0.079437 -0.266134
O65   O     O_2   0.032931 0.995823 0.283163 -0.175344
O66   O     O_3   0.052447 0.902473 0.076626 -0.564647
H98   H     H_    0.083025 0.937287 0.040358 0.407207
S7    S     S_3+6 0.517938 0.560337 0.688003 0.043528
O67   O     O_2   0.560308 0.519454 0.800833 -0.179741
O68   O     O_2   0.474982 0.513869 0.590778 -0.269644
O69   O     O_3   0.566184 0.604595 0.569953 -0.523259
H99   H     H_    0.596934 0.571535 0.526306 0.398747
S8    S     S_3+6 0.495206 0.443462 0.185577 0.008256
O70   O     O_2   0.444311 0.476827 0.078863 -0.252835
O71   O     O_2   0.529990 0.496074 0.283647 -0.182640
O72   O     O_3   0.550114 0.402747 0.077368 -0.560510
H100  H     H_    0.581828 0.437272 0.045103 0.406838
S9    S     S_3+6 0.074157 0.163926 0.962755 0.020511
O73   O     O_2   0.125546 0.137652 0.856768 -0.285620
O74   O     O_2   0.096482 0.229574 0.028063 -0.276656
O75   O     O_3   0.064769 0.109212 0.109650 -0.453262
H101  H     H_    0.106799 0.111194 0.173157 0.387349
S10   S     S_3+6 0.072549 0.854427 0.477507 0.051424
O76   O     O_2   0.055557 0.895209 0.618147 -0.170649
O77   O     O_2   0.110339 0.794172 0.532924 -0.283674
O78   O     O_3   0.122243 0.900609 0.367500 -0.469245
H102  H     H_    0.137055 0.870117 0.285010 0.337580
S11   S     S_3+6 0.573236 0.663629 0.963670 0.023941
O79   O     O_2   0.624438 0.636763 0.857869 -0.285647
O80   O     O_2   0.596861 0.728682 0.030004 -0.274407
O81   O     O_3   0.562419 0.608823 0.109705 -0.449148
H103  H     H_    0.604904 0.608662 0.171614 0.386944
S12   S     S_3+6 0.570592 0.355047 0.476666 0.052305
O82   O     O_2   0.553620 0.395250 0.618285 -0.168478
O83   O     O_2   0.608915 0.294878 0.530463 -0.283169
O84   O     O_3   0.619819 0.401861 0.366868 -0.471129
H104  H     H_    0.636114 0.371258 0.286266 0.336611

loop_
_geom_bond_atom_site_label_1
_geom_bond_atom_site_label_2
_geom_bond_distance
_ccdc_geom_bond_type
C25   H49   1.102369 S    
C20   H44   1.110887 S    
C2    H10   1.106210 S    
C28   H52   1.104645 S    
C63   C87   1.414878 A    
C27   H51   1.104278 S    
O69   H99   0.990439 S    
S8    O70   1.501357 D    
C10   S6    1.788717 S    
C11   S7    1.791687 S    
C15   H27   1.107660 S    
C4    H68   1.109704 S    
S6    O64   1.501364 D    
S2    O53   1.497314 D    
S12   O84   1.678977 S    
C64   C68   1.416781 A    
O63   H97   0.990383 S    
O42   C6    1.417911 S    
P4    O8    1.564968 S    
C51   H75   1.083819 S    
C16   C20   1.521639 S    
C81   H77   1.083188 S    
C55   C85   1.414174 A    
P9    O41   1.759183 S    
C18   H42   1.110911 S    
C53   C87   1.414752 A    
P11   O43   1.755216 S    
C39   C59   1.436822 A    
P16   C47   1.838266 S    
P3    Ba3   3.455794 S    
C54   C58   1.420233 A    
C77   C81   1.399159 A    
C26   H58   1.101155 S    
O27   Ba3   2.856639 S    
O30   Ba2   2.785419 S    
O40   C15   1.399179 S    
Ba2   O45   2.998274 S    
C6    S10   1.802280 S    
C35   C59   1.409431 A    
C13   H29   1.111268 S    
C33   C57   1.407496 A    
P5    Ba1   3.459326 S    
C69   C73   1.405742 A    
C50   C54   1.406159 A    
C61   C85   1.414229 A    
P12   O44   1.760826 S    
P7    Ba3   3.459326 S    
C64   C72   1.432776 A    
O12   P15   1.733820 S    
C42   C46   1.397232 A    
C38   C58   1.437440 A    
S5    O62   1.499297 D    
C36   C60   1.409183 A    
C75   H83   1.082215 S    
C32   H64   1.109186 S    
C8    S12   1.802561 S    
O23   P16   1.753279 S    
Ba3   O48   2.997980 S    
C82   H78   1.080659 S    
C73   C77   1.399571 A    
O21   P14   1.753062 S    
S8    O72   1.681092 S    
C12   H20   1.104613 S    
O3    Ba3   2.851110 S    
S3    O56   1.495543 D    
C33   C67   1.407252 A    
C50   H74   1.083740 S    
C11   H23   1.108749 S    
C21   S1    1.774133 S    
P10   O42   1.761473 S    
P2    O18   1.768721 S    
Ba1   O45   2.803468 S    
O22   C30   1.407669 S    
S7    O68   1.499560 D    
O12   Ba4   2.788047 S    
C23   H47   1.107328 S    
O9    P14   1.736164 S    
P3    O7    1.563707 S    
C21   H45   1.104970 S    
P13   C46   1.841000 S    
C14   H30   1.110620 S    
P8    O47   1.567629 S    
C22   H46   1.101219 S    
P6    Ba2   3.458486 S    
C7    H15   1.111916 S    
C44   C48   1.397866 A    
O51   H93   0.987159 S    
C30   H62   1.109382 S    
C67   C83   1.409019 A    
O7    Ba4   2.803348 S    
Ba3   Ba4   4.662106 S    
P1    C37   1.874031 S    
S1    O49   1.499830 D    
C54   C88   1.414970 A    
C17   H37   1.106716 S    
C74   H82   1.082419 S    
O23   C31   1.411574 S    
O24   C32   1.408115 S    
P9    O29   1.753498 S    
P4    Ba4   3.456618 S    
O54   H94   0.988303 S    
P12   O32   1.747728 S    
S4    O58   1.495158 D    
C3    H11   1.105306 S    
S12   O83   1.494008 D    
P5    O25   1.551756 D    
C41   H69   1.082241 S    
O66   H98   0.990100 S    
C63   C71   1.432101 A    
C61   C69   1.432879 A    
C15   H31   1.111288 S    
C76   H84   1.082438 S    
C74   C78   1.391911 A    
S2    O54   1.670762 S    
C34   C68   1.408830 A    
C44   H72   1.082123 S    
O9    Ba1   2.787345 S    
Ba2   O46   2.805269 S    
S9    O73   1.498150 D    
C22   S2    1.784294 S    
P7    O48   1.568905 S    
C22   C26   1.534229 S    
C28   H60   1.100014 S    
O38   C13   1.399384 S    
Ba4   O47   2.998274 S    
C27   H59   1.110003 S    
P5    O37   1.751227 S    
C23   S3    1.773458 S    
C13   H25   1.107668 S    
C17   H33   1.111015 S    
S12   O82   1.499175 D    
P12   C79   1.855449 S    
C5    H13   1.112440 S    
C35   H87   1.066899 S    
C19   H35   1.111020 S    
C1    H65   1.108115 S    
C8    H16   1.110594 S    
C33   H85   1.062995 S    
O60   H96   0.987512 S    
C49   C53   1.405498 A    
O57   H95   0.986928 S    
C88   H92   1.079337 S    
C68   C84   1.408060 A    
C73   H81   1.082175 S    
C52   C56   1.407829 A    
S8    O71   1.501576 D    
C52   H76   1.083643 S    
O8    Ba3   2.805149 S    
C66   C82   1.407366 A    
S4    O60   1.671633 S    
C41   C45   1.396944 A    
C16   H28   1.108061 S    
S6    O65   1.501720 D    
C7    S11   1.785898 S    
S11   O81   1.677834 S    
C55   C59   1.418280 A    
C87   H91   1.079022 S    
C53   C57   1.417749 A    
C40   C44   1.401679 A    
P6    O45   1.567629 S    
C36   H88   1.072444 S    
O20   C24   1.407300 S    
C61   C65   1.418708 A    
O22   P13   1.748236 S    
C5    S9    1.783941 S    
C12   H24   1.106455 S    
C9    H17   1.105845 S    
C11   H19   1.104979 S    
O10   Ba2   2.788047 S    
O16   P15   1.541309 D    
S10   O77   1.493967 D    
S6    O66   1.680821 S    
C8    C12   1.540745 S    
C62   C86   1.413604 A    
P1    O1    1.552782 D    
C56   C60   1.421333 A    
C23   C27   1.529446 S    
P6    O38   1.751321 S    
P3    O3    1.552782 D    
C24   C28   1.535531 S    
S10   O76   1.498815 D    
P4    O20   1.762406 S    
C14   H26   1.108008 S    
P14   C45   1.837385 S    
S9    O75   1.677693 S    
H2    C30   1.111454 S    
P5    O46   1.568905 S    
C46   C50   1.397329 A    
C5    C9    1.539001 S    
S1    O51   1.669204 S    
O24   P15   1.750077 S    
S7    O67   1.502669 D    
O41   C5    1.419448 S    
C35   C65   1.409107 A    
C38   C42   1.400341 A    
O44   C8    1.417358 S    
C9    H21   1.108162 S    
S3    O57   1.666181 S    
S5    O61   1.502860 D    
O15   P16   1.544582 D    
C17   H41   1.110921 S    
C6    C10   1.539861 S    
O13   P14   1.543781 D    
C19   H43   1.110938 S    
C1    C29   1.520324 S    
C86   H90   1.079535 S    
P2    Ba2   3.456618 S    
O31   Ba3   2.786123 S    
Ba3   O47   2.803468 S    
P9    O33   1.547057 D    
O84   H104  0.985567 S    
P10   O30   1.746941 S    
C76   C80   1.391611 A    
P1    O5    1.563707 S    
S10   O78   1.678856 S    
P12   O36   1.546797 D    
C34   C58   1.407481 A    
O4    Ba4   2.852901 S    
H1    C29   1.110115 S    
C10   H18   1.103059 S    
C1    H5    1.106074 S    
C20   H36   1.110488 S    
C3    H7    1.108864 S    
S11   O79   1.498639 D    
P8    Ba4   3.458486 S    
S2    O52   1.494821 D    
C75   C79   1.398742 A    
C26   H54   1.108859 S    
O72   H100  0.990068 S    
P8    C71   1.866390 S    
P6    O26   1.551832 D    
C9    S5    1.789504 S    
O5    Ba2   2.803348 S    
P11   O35   1.546220 D    
P8    O40   1.751196 S    
Ba1   Ba2   4.662106 S    
C15   C19   1.523018 S    
P3    C39   1.868997 S    
C37   C57   1.437574 A    
O17   C21   1.395854 S    
C29   H61   1.112215 S    
O19   C23   1.395604 S    
P10   C77   1.856876 S    
P6    C69   1.870449 S    
C49   H73   1.083831 S    
C6    H14   1.110466 S    
C25   H53   1.102168 S    
C10   H22   1.106114 S    
P9    C78   1.842046 S    
C1    H9    1.100459 S    
C20   H40   1.106600 S    
C36   C66   1.407625 A    
C84   H80   1.080170 S    
C28   H56   1.106428 S    
O25   Ba1   2.856639 S    
C7    C11   1.537914 S    
C43   H71   1.082255 S    
C24   S4    1.787322 S    
C79   C83   1.398740 A    
O26   Ba2   2.854839 S    
S4    O59   1.495869 D    
P4    C40   1.877105 S    
S5    O63   1.680069 S    
C2    H66   1.109385 S    
C71   C75   1.405289 A    
P1    O17   1.752187 S    
O78   H102  0.985251 S    
P3    O19   1.748379 S    
P4    O4    1.552705 D    
O6    Ba1   2.805149 S    
C12   S8    1.788873 S    
O11   Ba3   2.787345 S    
C18   H38   1.106936 S    
O75   H101  0.989946 S    
C47   C51   1.399253 A    
O18   C22   1.409669 S    
O1    Ba1   2.851110 S    
Ba1   O46   2.997980 S    
S7    O69   1.681128 S    
C65   C81   1.409088 A    
O32   Ba4   2.785419 S    
C13   C17   1.522986 S    
C72   C76   1.399584 A    
C3    H67   1.099770 S    
C64   C88   1.413533 A    
C51   C55   1.406329 A    
O28   Ba4   2.854839 S    
C56   C86   1.414678 A    
Ba4   O48   2.805269 S    
P7    C72   1.855743 S    
P2    O2    1.552705 D    
C62   C70   1.432364 A    
C24   H48   1.101780 S    
P7    O39   1.750853 S    
C78   C82   1.396899 A    
C43   C47   1.396155 A    
C85   H89   1.079245 S    
S1    O50   1.498406 D    
C4    H8    1.105773 S    
C45   C49   1.399127 A    
P15   C48   1.845795 S    
C39   C43   1.400800 A    
C70   C74   1.399827 A    
C63   C67   1.417141 A    
C48   C52   1.397826 A    
C37   C41   1.400395 A    
C40   C60   1.437639 A    
S11   O80   1.490942 D    
C19   H39   1.106496 S    
O11   P16   1.736588 S    
O14   P13   1.540259 D    
C83   H79   1.082929 S    
C2    C30   1.519927 S    
O37   C14   1.400092 S    
O10   P13   1.732701 S    
O21   C29   1.411004 S    
O39   C16   1.399840 S    
P10   O34   1.547299 D    
C31   H63   1.111506 S    
P11   O31   1.751051 S    
O2    Ba2   2.852901 S    
S3    O55   1.496369 D    
P2    O6    1.564968 S    
C80   C84   1.397246 A    
P7    O27   1.551756 D    
C18   H34   1.110494 S    
C21   C25   1.530195 S    
P8    O28   1.551832 D    
O81   H103  0.990045 S    
C14   C18   1.521883 S    
P1    Ba1   3.455794 S    
C2    H6    1.106552 S    
C34   H86   1.072103 S    
C26   H50   1.090653 S    
P11   C80   1.842795 S    
P5    C70   1.855767 S    
C16   H32   1.110631 S    
P2    C38   1.876993 S    
O43   C7    1.417576 S    
C27   H55   1.106834 S    
S9    O74   1.490404 D    
C42   H70   1.082150 S    
C3    C31   1.520489 S    
C4    H12   1.105915 S    
C4    C32   1.522013 S    
O29   Ba1   2.786123 S    
C25   H57   1.108618 S    
C62   C66   1.417066 A    
H3    C31   1.110807 S    
H4    C32   1.111296 S    
