data_mof_unit_5629.cif
_audit_creation_date              2012-12-11T17:36:24-0500
_audit_creation_method            fapswitch 2.2
_symmetry_space_group_name_H-M    P1
_symmetry_Int_Tables_number       1
_space_group_crystal_system       triclinic
_cell_length_a                    25.889263
_cell_length_b                    6.903706
_cell_length_c                    21.693201
_cell_angle_alpha                 90.004545
_cell_angle_beta                  95.974933
_cell_angle_gamma                 89.995624
_cell_volume                      3856.20302352

loop_
_atom_site_label
_atom_site_type_symbol
_atom_type_description
_atom_site_fract_x
_atom_site_fract_y
_atom_site_fract_z
_atom_type_partial_charge
O1    O     O_R   0.208650 0.594520 0.175450 -0.533217
O2    O     O_R   0.791350 0.405480 0.824550 -0.533219
O3    O     O_R   0.291350 0.094520 0.324550 -0.533248
O4    O     O_R   0.708650 0.905480 0.675450 -0.533247
O5    O     O_R   0.192980 0.260780 0.300160 -0.541604
O6    O     O_R   0.807020 0.739220 0.699840 -0.541604
O7    O     O_R   0.307020 0.760780 0.199840 -0.541598
O8    O     O_R   0.692980 0.239220 0.800160 -0.541598
C1    C     C_R   0.178800 0.432886 0.318433 0.685256
C2    C     C_R   0.821200 0.567113 0.681567 0.685257
C3    C     C_R   0.321201 0.932873 0.181568 0.685246
C4    C     C_R   0.678799 0.067127 0.818432 0.685242
O9    O     O_R   0.202550 0.264660 0.174420 -0.535190
O10   O     O_R   0.797450 0.735340 0.825580 -0.535189
O11   O     O_R   0.297450 0.764660 0.325580 -0.535135
O12   O     O_R   0.702550 0.235340 0.674420 -0.535134
O13   O     O_R   0.300990 0.096480 0.197920 -0.539949
O14   O     O_R   0.699010 0.903520 0.802080 -0.539949
O15   O     O_R   0.199010 0.596480 0.302080 -0.539954
O16   O     O_R   0.800990 0.403520 0.697920 -0.539955
C5    C     C_R   0.191199 0.433252 0.151073 0.699402
C6    C     C_R   0.808801 0.566748 0.848927 0.699399
C7    C     C_R   0.308801 0.933245 0.348931 0.699362
C8    C     C_R   0.691199 0.066755 0.651069 0.699363
O17   O     O_3   0.282290 0.427760 0.257860 -0.362813
O18   O     O_3   0.717710 0.572240 0.742140 -0.362811
O19   O     O_3   0.217710 0.927760 0.242140 -0.362824
O20   O     O_3   0.782290 0.072240 0.757860 -0.362825
V1    V     V_3+5 0.244010 0.152080 0.248540 1.447950
V2    V     V_3+5 0.755990 0.847920 0.751460 1.447950
V3    V     V_3+5 0.255990 0.652080 0.251460 1.448039
V4    V     V_3+5 0.744010 0.347920 0.748540 1.448039
C9    C     C_R   0.657612 0.061947 0.591867 -0.087731
C10   C     C_R   0.342390 0.938052 0.408131 -0.087729
C11   C     C_R   0.842390 0.561825 0.908121 -0.087616
C12   C     C_R   0.157611 0.438176 0.091879 -0.087612
C13   C     C_R   0.645179 0.148049 0.483543 -0.119534
C14   C     C_R   0.354826 0.851946 0.516455 -0.119538
C15   C     C_R   0.854698 0.646153 0.016599 -0.119532
C16   C     C_R   0.145304 0.353886 0.983401 -0.119536
C17   C     C_R   0.677638 0.126259 0.538280 -0.155458
C18   C     C_R   0.322365 0.873744 0.461720 -0.155462
C19   C     C_R   0.822282 0.624937 0.961801 -0.155621
C20   C     C_R   0.177720 0.375097 0.038199 -0.155632
C21   C     C_R   0.604641 0.013948 0.589842 -0.117051
C22   C     C_R   0.395362 0.986035 0.410152 -0.117077
C23   C     C_R   0.895401 0.514485 0.910093 -0.117217
C24   C     C_R   0.104599 0.485497 0.089905 -0.117197
C25   C     C_R   0.570729 0.027336 0.533697 0.106471
C26   C     C_R   0.429277 0.972640 0.466295 0.106469
C27   C     C_R   0.929275 0.527245 0.966283 0.106402
C28   C     C_R   0.070726 0.472755 0.033715 0.106405
C29   C     C_R   0.592052 0.104314 0.481236 0.031076
C30   C     C_R   0.407955 0.895670 0.518756 0.031089
C31   C     C_R   0.907861 0.602987 0.018867 0.031015
C32   C     C_R   0.092141 0.397034 0.981131 0.031012
C33   C     C_R   0.516300 0.977257 0.528165 -0.137583
C34   C     C_R   0.483706 0.022711 0.471824 -0.137596
C35   C     C_R   0.983738 0.477651 0.971769 -0.137664
C36   C     C_R   0.016263 0.522348 0.028229 -0.137676
C37   C     C_R   0.506835 0.118455 0.423726 0.628274
C38   C     C_R   0.493174 0.881500 0.576258 0.628255
C39   C     C_R   0.993034 0.616907 0.076487 0.628293
C40   C     C_R   0.006969 0.383104 0.923510 0.628304
C41   C     C_R   0.560015 0.148650 0.427636 -0.239321
C42   C     C_R   0.439994 0.851322 0.572352 -0.239344
C43   C     C_R   0.939833 0.646625 0.072581 -0.239319
C44   C     C_R   0.060170 0.353401 0.927417 -0.239323
H1    H     H_    0.576040 0.217662 0.388935 0.157548
H2    H     H_    0.423971 0.782303 0.611049 0.157546
H3    H     H_    0.923734 0.714704 0.111399 0.157574
H4    H     H_    0.076270 0.285338 0.888599 0.157576
H5    H     H_    0.409053 0.019035 0.366270 0.185773
H6    H     H_    0.590948 0.980939 0.633722 0.185758
H7    H     H_    0.090866 0.517580 0.133834 0.185779
H8    H     H_    0.909132 0.482374 0.866163 0.185799
H9    H     H_    0.281806 0.833642 0.460575 0.104906
H10   H     H_    0.718196 0.166370 0.539429 0.104908
H11   H     H_    0.218318 0.335567 0.039302 0.104864
H12   H     H_    0.781684 0.664486 0.960699 0.104863
H13   H     H_    0.661431 0.205146 0.443196 0.117324
H14   H     H_    0.338575 0.794851 0.556802 0.117324
H15   H     H_    0.838378 0.702287 0.057039 0.117323
H16   H     H_    0.161625 0.297775 0.942961 0.117329
C45   C     C_R   0.427237 0.793632 0.079238 -0.126255
C46   C     C_R   0.572763 0.206368 0.920762 -0.126257
C47   C     C_R   0.072741 0.293667 0.420714 -0.126217
C48   C     C_R   0.927257 0.706333 0.579283 -0.126216
H17   H     H_    0.445366 0.663071 0.064057 0.106929
H18   H     H_    0.554634 0.336929 0.935943 0.106928
H19   H     H_    0.054592 0.163110 0.435855 0.106952
H20   H     H_    0.945404 0.836890 0.564139 0.106951
C49   C     C_R   0.387986 0.778677 0.119199 -0.159048
C50   C     C_R   0.612014 0.221323 0.880801 -0.159051
C51   C     C_R   0.111993 0.278715 0.380754 -0.158993
C52   C     C_R   0.888005 0.721285 0.619243 -0.158991
H21   H     H_    0.376736 0.636277 0.133861 0.120827
H22   H     H_    0.623264 0.363723 0.866139 0.120828
H23   H     H_    0.123221 0.136320 0.366051 0.120869
H24   H     H_    0.876774 0.863681 0.633943 0.120866
C53   C     C_R   0.363549 0.945820 0.139692 -0.054265
C54   C     C_R   0.636451 0.054180 0.860308 -0.054268
C55   C     C_R   0.136454 0.445851 0.360310 -0.054226
C56   C     C_R   0.863546 0.554149 0.639690 -0.054226
C57   C     C_R   0.379686 0.127835 0.119076 -0.152735
C58   C     C_R   0.620314 0.872165 0.880924 -0.152741
C59   C     C_R   0.120342 0.627858 0.380977 -0.152684
C60   C     C_R   0.879661 0.372141 0.619027 -0.152683
H25   H     H_    0.361968 0.260074 0.133525 0.122120
H26   H     H_    0.638032 0.739926 0.866474 0.122121
H27   H     H_    0.138082 0.760088 0.366567 0.122081
H28   H     H_    0.861923 0.239910 0.633440 0.122083
C61   C     C_R   0.418817 0.142289 0.079248 -0.129586
C62   C     C_R   0.581182 0.857711 0.920752 -0.129589
C63   C     C_R   0.081210 0.642309 0.420805 -0.129522
C64   C     C_R   0.918793 0.357690 0.579199 -0.129520
H29   H     H_    0.430267 0.284066 0.064137 0.105701
H30   H     H_    0.569733 0.715934 0.935862 0.105702
H31   H     H_    0.069779 0.784077 0.435956 0.105701
H32   H     H_    0.930226 0.215920 0.564051 0.105701
C65   C     C_R   0.442822 0.975595 0.058977 0.128502
C66   C     C_R   0.557178 0.024405 0.941023 0.128502
C67   C     C_R   0.057180 0.475618 0.441024 0.128502
C68   C     C_R   0.942820 0.524380 0.558976 0.128502
C69   C     C_1   0.483175 0.992335 0.017383 -0.052364
C70   C     C_1   0.516824 0.007665 0.982617 -0.052365
C71   C     C_1   0.016825 0.492345 0.482617 -0.052322
C72   C     C_1   0.983175 0.507654 0.517383 -0.052321
F1    F     F_    0.478930 0.196918 0.373635 -0.704331
F2    F     F_    0.521083 0.802979 0.626338 -0.704323
F3    F     F_    0.020851 0.694688 0.126764 -0.704295
F4    F     F_    0.979153 0.305333 0.873232 -0.704306

loop_
_geom_bond_atom_site_label_1
_geom_bond_atom_site_label_2
_ccdc_geom_bond_type
O17   V3    S    
C48   C52   A    
O1    C5    A    
C47   H19   S    
O19   V1    S    
C9    C21   A    
C38   F2    S    
O3    C7    A    
C10   C18   A    
C48   C68   A    
C11   C23   A    
C25   C33   A    
C33   C38   A    
C5    C12   S    
O7    C3    A    
C6    C11   S    
O5    C1    A    
C26   C30   A    
C58   C62   A    
C36   C39   A    
C40   C44   A    
C57   C61   A    
C23   H8    S    
C14   C18   A    
C58   H26   S    
O4    C8    A    
C51   H23   S    
C44   H4    S    
C50   H22   S    
O1    V3    S    
O13   V1    S    
C31   C43   A    
O2    V4    S    
O3    V1    S    
C16   H16   S    
C46   C50   A    
C65   C69   S    
C45   C49   A    
C1    O15   A    
C15   C31   A    
C48   H20   S    
C2    O16   A    
C16   C32   A    
C47   C51   A    
O2    C6    A    
C45   C65   A    
C10   C22   A    
C39   F3    S    
C11   C19   A    
C16   C20   A    
C43   H3    S    
C37   F1    S    
C68   C72   S    
C13   C29   A    
C34   C37   A    
O11   C7    A    
O15   V3    S    
C35   C36   A    
O12   C8    A    
C14   H14   S    
C53   C57   A    
C24   H7    S    
C13   H13   S    
O10   V2    S    
C51   C55   A    
O5    V1    S    
O17   V1    S    
C39   C43   A    
C63   C67   A    
C38   C42   A    
O19   V3    S    
O8    V4    S    
C40   F4    S    
O20   V4    S    
O7    V3    S    
C46   H18   S    
C49   C53   A    
C17   H10   S    
C45   H17   S    
O18   V4    S    
C15   C19   A    
C19   H12   S    
C32   C44   A    
C60   H28   S    
C21   H6    S    
C26   C34   A    
C66   C70   S    
C4    C54   S    
C37   C41   A    
C67   C71   S    
C14   C30   A    
C21   C25   A    
O8    C4    A    
C7    C10   S    
C35   C40   A    
O9    C5    A    
C3    C53   S    
C59   C63   A    
C62   H30   S    
C61   H29   S    
O6    V2    S    
O18   V2    S    
C63   H31   S    
C52   C56   A    
C69   C70   T    
C12   C20   A    
C27   C35   A    
C71   C72   T    
C49   H21   S    
C56   C60   A    
C29   C41   A    
O16   V4    S    
O9    V1    S    
C57   H25   S    
C3    O13   A    
C64   C68   A    
C59   H27   S    
C20   H11   S    
O6    C2    A    
C23   C27   A    
O11   V3    S    
C30   C42   A    
O12   V4    S    
C22   C26   A    
C8    C9    S    
C9    C17   A    
O10   C6    A    
C2    C56   S    
C15   H15   S    
C47   C67   A    
C60   C64   A    
C33   C34   A    
C42   H2    S    
C41   H1    S    
C52   H24   S    
O20   V2    S    
C1    C55   S    
C12   C24   A    
C27   C31   A    
C13   C17   A    
C46   C66   A    
C25   C29   A    
O14   V2    S    
C62   C66   A    
C64   H32   S    
C24   C28   A    
C61   C65   A    
C50   C54   A    
C18   H9    S    
C28   C36   A    
C54   C58   A    
C4    O14   A    
C55   C59   A    
C22   H5    S    
O4    V2    S    
C28   C32   A    
