data_mof_unit_7438.cif
_audit_creation_date              2012-12-10T17:56:17-0500
_audit_creation_method            fapswitch 2.2
_symmetry_space_group_name_H-M    P1
_symmetry_Int_Tables_number       1
_space_group_crystal_system       triclinic
_cell_length_a                    12.966056
_cell_length_b                    10.799711
_cell_length_c                    9.590966
_cell_angle_alpha                 91.053273
_cell_angle_beta                  97.495699
_cell_angle_gamma                 91.799256
_cell_volume                      1330.54420495

loop_
_atom_site_label
_atom_site_type_symbol
_atom_type_description
_atom_site_fract_x
_atom_site_fract_y
_atom_site_fract_z
_atom_type_partial_charge
C1    C     C_R   0.501602 0.262608 0.499452 0.791115
C2    C     C_R   0.498388 0.737392 0.500546 0.795119
C3    C     C_R   0.496548 0.871306 0.500803 -0.080187
C4    C     C_R   0.503429 0.128695 0.499195 -0.081215
C5    C     C_R   0.451183 0.405521 0.060807 0.117691
C6    C     C_R   0.548775 0.594506 0.939206 0.113461
C7    C     C_R   0.452446 0.406027 0.913468 -0.097364
C8    C     C_R   0.547566 0.593959 0.086545 -0.065423
C9    C     C_R   0.300631 0.504679 0.472411 0.807068
C10   C     C_R   0.699402 0.495664 0.527598 0.809795
C11   C     C_R   0.813065 0.493202 0.545689 -0.196572
C12   C     C_R   0.187041 0.508584 0.454244 -0.113519
C13   C     C_R   0.021990 0.446226 0.319755 0.008187
C14   C     C_R   0.977924 0.559547 0.678999 -0.002743
C15   C     C_R   0.130055 0.454617 0.333790 -0.240947
C16   C     C_R   0.869692 0.548477 0.665601 -0.128130
C17   C     C_R   0.134667 0.567239 0.555366 -0.084158
C18   C     C_R   0.865785 0.435859 0.444207 -0.035478
C19   C     C_R   0.028510 0.534142 0.559202 0.029397
C20   C     C_R   0.971324 0.471097 0.439609 0.124806
C21   C     C_R   0.436568 0.061941 0.396515 -0.204628
C22   C     C_R   0.563406 0.938063 0.603482 -0.203358
C23   C     C_R   0.432352 0.933407 0.396552 -0.027842
C24   C     C_R   0.567613 0.066593 0.603457 -0.029878
Cu1   Cu    Cu3+1 0.500000 0.500020 0.640660 0.996821
Cu2   Cu    Cu3+1 0.500000 0.499980 0.359340 1.007555
H1    H     H_    0.829654 0.578292 0.751695 0.248715
H2    H     H_    0.169548 0.424210 0.247293 0.201857
H3    H     H_    0.385539 0.110054 0.318743 0.180157
H4    H     H_    0.614438 0.889959 0.681252 0.180826
H5    H     H_    0.413438 0.331624 0.847647 0.137025
H6    H     H_    0.586578 0.668353 0.152376 0.141570
N1    N     N_R   0.500030 0.500030 0.852080 -0.174489
N2    N     N_R   0.499970 0.499970 0.147920 -0.174006
O1    O     O_R   0.499990 0.319660 0.618740 -0.583585
O2    O     O_R   0.500010 0.680340 0.381260 -0.585811
O3    O     O_R   0.499990 0.319630 0.381170 -0.573101
O4    O     O_R   0.500010 0.680370 0.618830 -0.579442
O5    O     O_R   0.349000 0.499990 0.599490 -0.612138
O6    O     O_R   0.651000 0.500010 0.400510 -0.589193
O7    O     O_R   0.348990 0.499960 0.361920 -0.515940
O8    O     O_R   0.651010 0.500040 0.638080 -0.516960
C25   C     C_2   0.816257 0.323571 0.366095 0.429072
H7    H     H_    0.732494 0.310149 0.346197 0.087515
O9    O     O_2   0.869175 0.239718 0.331096 -0.531841
C26   C     C_2   0.185470 0.678646 0.633774 0.329039
H8    H     H_    0.269241 0.688830 0.657921 0.095856
O10   O     O_2   0.133796 0.765333 0.664295 -0.499819
C27   C     C_2   0.966823 0.422034 0.175647 0.508835
H9    H     H_    0.005388 0.373374 0.098071 0.065661
O11   O     O_2   0.880657 0.462231 0.139601 -0.513203
C28   C     C_2   0.035800 0.586190 0.821389 0.467615
H10   H     H_    0.117026 0.563438 0.844679 0.048935
O12   O     O_2   0.992960 0.631778 0.915213 -0.495973
C29   C     C_1   0.359075 0.867850 0.292074 0.250417
N3    N     N_1   0.300434 0.815283 0.208535 -0.238561
C30   C     C_1   0.640862 0.132144 0.707975 0.250055
N4    N     N_1   0.699477 0.184708 0.791550 -0.233902
C31   C     C_2   0.395487 0.298994 0.112974 0.381082
H11   H     H_    0.410448 0.206119 0.077176 0.035013
O13   O     O_2   0.326716 0.313221 0.186177 -0.550962
C32   C     C_2   0.604312 0.701166 0.887076 0.423238
H12   H     H_    0.589368 0.793974 0.923108 0.021176
O14   O     O_2   0.672939 0.687124 0.813614 -0.524310

loop_
_geom_bond_atom_site_label_1
_geom_bond_atom_site_label_2
_ccdc_geom_bond_type
C12   C17   A    
Cu1   O8    S    
C6    C8    A    
C25   H7    S    
C12   C15   A    
Cu2   O3    S    
C23   C29   S    
C32   H12   S    
C14   C16   A    
Cu1   O4    S    
C10   O8    A    
C25   O9    D    
C11   C16   A    
C2    O4    A    
C9    O7    A    
C19   C20   A    
C6    N1    A    
C1    O3    A    
C29   N3    T    
C1    C4    S    
C5    N2    A    
C6    C32   S    
C16   H1    S    
C13   C15   A    
C2    C3    S    
C15   H2    S    
C31   H11   S    
C11   C18   A    
C8    N2    A    
C18   C25   S    
Cu1   O5    S    
C4    C21   A    
C7    N1    A    
Cu2   O6    S    
C30   N4    T    
C21   H3    S    
Cu1   O1    S    
C13   C27   S    
Cu2   O2    S    
C17   C19   A    
C28   O12   D    
C18   C20   A    
C21   C23   A    
C4    C24   A    
C9    C12   S    
C22   C24   A    
C31   O13   D    
C7    H5    S    
C10   C11   S    
C5    C31   S    
C8    H6    S    
C26   O10   D    
C9    O5    A    
C17   C26   S    
C1    O1    A    
C10   O6    A    
C27   H9    S    
C2    O2    A    
C5    C7    A    
C26   H8    S    
C3    C22   A    
C32   O14   D    
Cu1   N1    S    
C22   H4    S    
C13   C20   A    
Cu1   Cu2   S    
C3    C23   A    
C14   C19   A    
Cu2   N2    S    
C14   C28   S    
Cu2   O7    S    
C28   H10   S    
C24   C30   S    
C27   O11   D    
