data_mof_unit_19379.cif
_audit_creation_date              2012-12-11T14:29:45-0500
_audit_creation_method            fapswitch 2.2
_symmetry_space_group_name_H-M    P1
_symmetry_Int_Tables_number       1
_space_group_crystal_system       triclinic
_cell_length_a                    6.940384
_cell_length_b                    14.73729
_cell_length_c                    16.238701
_cell_angle_alpha                 90.460275
_cell_angle_beta                  90.005123
_cell_angle_gamma                 89.989684
_cell_volume                      1660.88052448

loop_
_atom_site_label
_atom_site_type_symbol
_atom_type_description
_atom_site_fract_x
_atom_site_fract_y
_atom_site_fract_z
_atom_type_partial_charge
O1    O     O_R   0.494400 0.416610 0.413880 -0.542834
O2    O     O_R   0.823920 0.406790 0.585520 -0.540470
O3    O     O_R   0.994250 0.583390 0.586120 -0.536512
C1    C     C_R   0.654693 0.385136 0.613589 0.745298
O4    O     O_R   0.824110 0.405730 0.414490 -0.541270
O5    O     O_R   0.994440 0.582310 0.413870 -0.540276
C2    C     C_R   0.654874 0.383695 0.386326 0.742923
O6    O     O_R   0.494210 0.417690 0.586130 -0.545843
O7    O     O_3   0.660810 0.557940 0.500000 -0.370110
V1    V     V_3+5 0.935650 0.489250 0.500000 1.409204
O8    O     O_R   0.324160 0.593210 0.414480 -0.544631
C3    C     C_R   0.155428 0.614999 0.386357 0.736476
O9    O     O_R   0.323970 0.594270 0.585510 -0.538742
C4    C     C_R   0.155113 0.616179 0.613887 0.695055
V2    V     V_3+5 0.435660 0.510750 0.500000 1.408490
O10   O     O_3   0.160630 0.442060 0.500000 -0.373995
H1    H     H_    0.834292 0.893667 0.519587 0.114555
C5    C     C_R   0.311228 0.578399 0.775668 -0.141841
C6    C     C_R   0.386379 0.557645 0.852789 -0.123863
C7    C     C_R   0.373717 0.620159 0.917019 -0.119696
C8    C     C_R   0.285956 0.703959 0.904625 -0.131185
C9    C     C_R   0.210562 0.727660 0.826663 0.069642
C10   C     C_R   0.223337 0.663442 0.760728 0.069993
C11   C     C_R   0.119703 0.812793 0.814355 -0.185679
C12   C     C_R   0.041463 0.833500 0.735926 0.069455
C13   C     C_R   0.054174 0.769269 0.669994 0.069267
C14   C     C_R   0.144989 0.684116 0.682307 -0.185887
C15   C     C_R   0.953785 0.918596 0.720977 -0.142081
C16   C     C_R   0.878787 0.939394 0.643840 -0.124975
C17   C     C_R   0.891298 0.876851 0.579620 -0.121176
C18   C     C_R   0.978818 0.792991 0.592031 -0.131446
H2    H     H_    0.321675 0.526545 0.728410 0.110532
H3    H     H_    0.453379 0.492323 0.862916 0.115991
H4    H     H_    0.430809 0.603368 0.977043 0.113095
H5    H     H_    0.943432 0.970464 0.768234 0.110945
H6    H     H_    0.812023 0.004771 0.633703 0.119437
H7    H     H_    0.988181 0.747658 0.539493 0.108287
C19   C     C_2   0.985372 0.709785 0.283028 -0.133964
C20   C     C_2   0.150298 0.682745 0.319502 -0.312742
H8    H     H_    0.849400 0.681765 0.304011 0.136683
C21   C     C_2   0.973083 0.777252 0.215039 -0.134199
C22   C     C_2   0.126271 0.814483 0.177100 -0.311197
H9    H     H_    0.829120 0.796264 0.195416 0.134437
H10   H     H_    0.271356 0.796102 0.194889 0.128824
C23   C     C_2   0.779286 0.207673 0.781108 -0.138595
C24   C     C_2   0.614153 0.179537 0.816557 -0.312370
H11   H     H_    0.915322 0.179504 0.801899 0.135316
H12   H     H_    0.476167 0.206055 0.797159 0.127592
C25   C     C_2   0.791331 0.276087 0.714072 -0.134141
C26   C     C_2   0.638230 0.317736 0.680098 -0.313061
H13   H     H_    0.934892 0.292310 0.692015 0.134894
H14   H     H_    0.493429 0.302865 0.700692 0.127069
C27   C     C_2   0.779185 0.208993 0.213949 -0.130552
C28   C     C_2   0.614070 0.181863 0.177385 -0.311109
H15   H     H_    0.915010 0.180309 0.193087 0.137157
H16   H     H_    0.476568 0.209871 0.196096 0.127248
C29   C     C_2   0.791650 0.277479 0.281888 -0.136275
C30   C     C_2   0.638298 0.315441 0.319547 -0.308751
H17   H     H_    0.935599 0.296592 0.301715 0.135069
H18   H     H_    0.493204 0.296982 0.301626 0.129008
O11   O     O_R   0.770210 0.079270 0.910680 -0.541386
O12   O     O_R   0.440150 0.091160 0.082270 -0.545590
O13   O     O_R   0.269970 0.914530 0.082860 -0.544486
C31   C     C_R   0.608815 0.113256 0.110489 0.743756
O14   O     O_R   0.440480 0.090100 0.911240 -0.545053
O15   O     O_R   0.270310 0.913460 0.910610 -0.536687
C32   C     C_R   0.609149 0.111707 0.883088 0.745368
O16   O     O_R   0.769870 0.080340 0.082930 -0.538611
O17   O     O_3   0.603660 0.938980 0.996790 -0.369946
V3    V     V_3+5 0.328750 0.007610 0.996740 1.402329
O18   O     O_R   0.940600 0.902510 0.911180 -0.539004
C33   C     C_R   0.109485 0.880688 0.882791 0.694438
O19   O     O_R   0.940270 0.903570 0.082200 -0.540202
C34   C     C_R   0.109550 0.881871 0.110350 0.736273
V4    V     V_3+5 0.828770 0.986010 0.996670 1.414974
O20   O     O_3   0.103730 0.054750 0.996710 -0.374075
H19   H     H_    0.287890 0.710198 0.300630 0.128361
H20   H     H_    0.276483 0.749269 0.957172 0.107073

loop_
_geom_bond_atom_site_label_1
_geom_bond_atom_site_label_2
_ccdc_geom_bond_type
O18   V4    S    
O19   V4    S    
O19   C34   A    
C6    C7    A    
C1    O6    A    
C27   C28   D    
O11   V4    S    
O16   V4    S    
C16   H6    S    
C13   C14   A    
C20   H19   S    
C15   C16   A    
O5    C3    A    
C17   C18   A    
C29   H17   S    
C30   H18   S    
O14   V3    S    
O12   V3    S    
C5    C6    A    
C21   C22   D    
O12   C31   A    
O8    V2    S    
O15   C33   A    
C15   H5    S    
O14   C32   A    
C8    H20   S    
C26   H14   S    
O1    V2    S    
C10   C14   A    
C4    C14   S    
O7    V1    S    
C2    C30   S    
C7    H4    S    
C23   H11   S    
C13   C18   A    
O9    C4    A    
H1    C17   S    
C21   H9    S    
C22   H10   S    
C28   H16   S    
C27   H15   S    
C19   C20   D    
C24   H12   S    
C22   C34   S    
C5    C10   A    
C11   C12   A    
C19   C21   S    
C6    H3    S    
O4    C2    A    
C27   C29   S    
C25   H13   S    
C12   C13   A    
C23   C24   D    
C18   H7    S    
C1    C26   S    
C12   C15   A    
O2    C1    A    
V4    O20   S    
C16   C17   A    
O11   C32   A    
O13   V3    S    
C23   C25   S    
O3    C4    A    
O6    V2    S    
O9    V2    S    
V3    O20   S    
C9    C11   A    
C5    H2    S    
O2    V1    S    
C31   O16   A    
C11   C33   S    
O1    C2    A    
O5    V1    S    
O8    C3    A    
O13   C34   A    
C3    C20   S    
O7    V2    S    
C24   C32   S    
O3    V1    S    
V1    O10   S    
C19   H8    S    
C29   C30   D    
O15   V3    S    
C28   C31   S    
O17   V4    S    
O17   V3    S    
O4    V1    S    
O18   C33   A    
C7    C8    A    
C25   C26   D    
C9    C10   A    
C8    C9    A    
V2    O10   S    
