data_mof_unit_55800.cif
_audit_creation_date              2012-10-26T20:02:57-0400
_audit_creation_method            fapswitch 2.2
_symmetry_space_group_name_H-M    P1
_symmetry_Int_Tables_number       1
_space_group_crystal_system       triclinic
_cell_length_a                    10.711586
_cell_length_b                    12.315794
_cell_length_c                    13.242975
_cell_angle_alpha                 116.47849
_cell_angle_beta                  77.451868
_cell_angle_gamma                 101.266138
_cell_volume                      1516.69138845

loop_
_atom_site_label
_atom_site_type_symbol
_atom_type_description
_atom_site_fract_x
_atom_site_fract_y
_atom_site_fract_z
_atom_type_partial_charge
C1    C     C_R   0.515829 0.854946 0.286887 0.534984
C2    C     C_R   0.545808 0.561898 0.019762 0.062355
C3    C     C_R   0.487281 0.649465 0.123653 0.023974
C4    C     C_R   0.740038 0.999424 0.499296 0.539664
C5    C     C_R   0.490243 0.437569 0.980412 0.052029
C6    C     C_R   0.389066 0.401762 0.052720 0.004828
C7    C     C_R   0.332568 0.489547 0.153495 -0.119867
C8    C     C_R   0.375864 0.611946 0.184750 -0.107969
C9    C     C_R   0.524634 0.349043 0.869068 0.345328
C10   C     C_R   0.379003 0.192103 0.911863 -0.187094
C11   C     C_R   0.543558 0.772518 0.166060 0.011846
C12   C     C_3   0.122608 0.000260 0.498088 0.051390
C13   C     C_R   0.706255 0.347389 0.329634 -0.111042
C14   C     C_R   0.324453 0.758968 0.644074 0.047650
C15   C     C_R   0.284241 0.661379 0.675294 0.026959
C16   C     C_R   0.483813 0.145093 0.713117 0.574574
C17   C     C_R   0.351240 0.558003 0.619876 -0.118223
C18   C     C_R   0.457453 0.551041 0.533705 -0.044801
C19   C     C_R   0.493316 0.653093 0.505316 0.117365
C20   C     C_R   0.529275 0.446929 0.474636 -0.051397
C21   C     C_R   0.634360 0.447370 0.388424 0.050446
C22   C     C_R   0.667109 0.547636 0.361714 0.319223
C23   C     C_3   0.045695 0.022816 0.618086 -0.296725
C24   C     C_R   0.598372 0.647851 0.419177 -0.059858
C25   C     C_R   0.502156 0.341607 0.497047 0.097603
C26   C     C_R   0.674691 0.247376 0.356082 0.031581
C27   C     C_R   0.260296 0.999933 0.499154 0.556333
C28   C     C_3   0.960001 0.102794 0.467818 -0.173262
C29   C     C_3   0.103292 0.102778 0.466468 0.249067
C30   C     C_3   0.901350 0.021434 0.618161 -0.254705
C31   C     C_3   0.924416 0.875516 0.409561 -0.232605
C32   C     C_3   0.878365 0.999580 0.498701 -0.012732
C33   C     C_2   0.172094 0.667019 0.765380 0.564594
C34   C     C_3   0.068359 0.875388 0.409959 -0.207406
C35   C     C_R   0.339249 0.278917 0.020172 -0.137414
C36   C     C_R   0.466242 0.228127 0.834276 0.017331
C37   C     C_R   0.647564 0.810234 0.099910 -0.122695
C38   C     C_R   0.705950 0.725061 0.999220 -0.142577
C39   C     C_R   0.660077 0.601985 0.962335 -0.057188
Cu1   Cu    Cu3+1 0.529690 0.098270 0.475420 1.012255
Cu2   Cu    Cu3+1 0.470310 0.901730 0.524580 0.915672
F1    F     F_    0.603471 0.380836 0.789149 -0.655572
F2    F     F_    0.767248 0.549492 0.279225 -0.661406
F3    F     F_    0.170038 0.086084 0.359173 -0.631372
H1    H     H_    0.929851 0.193328 0.531267 0.118172
H2    H     H_    0.792212 0.753681 0.952940 0.151444
H3    H     H_    0.943952 0.090191 0.382745 0.171380
H4    H     H_    0.321241 0.676732 0.258312 0.142697
H5    H     H_    0.729877 0.170135 0.311060 0.116332
H6    H     H_    0.786695 0.346324 0.263618 0.168107
H7    H     H_    0.424335 0.333058 0.560835 0.128974
H8    H     H_    0.274254 0.839597 0.685714 0.157374
H9    H     H_    0.318580 0.484145 0.645256 0.150220
H10   H     H_    0.631661 0.719736 0.392880 0.198170
H11   H     H_    0.140740 0.193388 0.529325 0.130535
H12   H     H_    0.079661 0.800439 0.431381 0.130852
H13   H     H_    0.868098 0.109904 0.683444 0.140435
H14   H     H_    0.082634 0.112395 0.682594 0.113201
H15   H     H_    0.867708 0.799700 0.429406 0.165343
H16   H     H_    0.909141 0.858537 0.322993 0.144412
H17   H     H_    0.122802 0.856371 0.323146 0.173456
H18   H     H_    0.054445 0.583483 0.857429 0.346037
H19   H     H_    0.845002 0.948202 0.642215 0.154575
H20   H     H_    0.058086 0.951155 0.643477 0.153293
H21   H     H_    0.333769 0.098897 0.885909 0.150932
H22   H     H_    0.250578 0.463896 0.205938 0.127218
H23   H     H_    0.264611 0.251013 0.076467 0.146462
H24   H     H_    0.691627 0.904043 0.131233 0.130960
H25   H     H_    0.720628 0.540927 0.892187 0.205749
N1    N     N_R   0.574690 0.246280 0.438200 -0.225445
N2    N     N_R   0.426100 0.754320 0.561190 -0.254997
O1    O     O_R   0.537340 0.972510 0.318130 -0.494099
O2    O     O_R   0.132003 0.568752 0.795331 -0.702821
O3    O     O_R   0.487200 0.806530 0.359650 -0.531357
O4    O     O_R   0.707380 0.082980 0.479220 -0.508002
O5    O     O_R   0.657240 0.917000 0.520740 -0.525076
O6    O     O_R   0.512800 0.193470 0.640350 -0.431529
O7    O     O_R   0.462660 0.027490 0.681870 -0.524037
O8    O     O_R   0.342760 0.083000 0.479260 -0.465313
O9    O     O_R   0.292620 0.917020 0.520780 -0.532508
O10   O     O_2   0.114144 0.757440 0.813670 -0.542287

loop_
_geom_bond_atom_site_label_1
_geom_bond_atom_site_label_2
_ccdc_geom_bond_type
C23   H14   S    
C37   H24   S    
C28   H3    S    
C34   H12   S    
C12   C29   S    
C14   N2    A    
C19   N2    A    
C1    C11   S    
Cu2   O9    S    
C8    H4    S    
C7    C8    A    
C12   C23   S    
C9    F1    S    
Cu1   N1    S    
C1    O3    A    
C28   C29   S    
C18   C19   A    
C27   O8    A    
C5    C6    A    
C20   C25   A    
C24   H10   S    
C30   H13   S    
C6    C35   A    
C16   O6    A    
C31   H15   S    
C11   C37   A    
C4    O4    A    
Cu2   O3    S    
C2    C39   A    
C14   H8    S    
C22   F2    S    
C9    C36   A    
H18   O2    S    
C10   C35   A    
C18   C20   A    
Cu2   N2    S    
C21   C22   A    
C28   H1    S    
C31   C34   S    
C1    O1    A    
C4    O5    A    
C12   C27   S    
C23   C30   S    
C28   C32   S    
C3    C8    A    
C26   H5    S    
Cu2   O7    S    
C29   H11   S    
C34   H17   S    
C31   H16   S    
C25   H7    S    
C5    C9    A    
C37   C38   A    
C31   C32   S    
C35   H23   S    
C17   C18   A    
C39   H25   S    
Cu1   O8    S    
C13   C21   A    
C4    C32   S    
C33   O2    S    
C23   H20   S    
C27   O9    A    
C29   F3    S    
C26   N1    A    
C22   C24   A    
C13   C26   A    
C2    C5    A    
C12   C34   S    
C17   H9    S    
C10   H21   S    
C15   C17   A    
Cu1   Cu2   S    
Cu1   O1    S    
C14   C15   A    
C6    C7    A    
Cu1   O4    S    
C19   C24   A    
C16   C36   S    
C7    H22   S    
C30   C32   S    
C38   C39   A    
C2    C3    A    
C16   O7    A    
C38   H2    S    
C3    C11   A    
C13   H6    S    
C20   C21   A    
Cu1   O6    S    
C10   C36   A    
C25   N1    A    
C30   H19   S    
C33   O10   D    
C15   C33   S    
Cu2   O5    S    
