data_mof_unit_67605.cif
_audit_creation_date              2012-12-10T18:05:42-0500
_audit_creation_method            fapswitch 2.2
_symmetry_space_group_name_H-M    P1
_symmetry_Int_Tables_number       1
_space_group_crystal_system       triclinic
_cell_length_a                    11.139817
_cell_length_b                    10.702213
_cell_length_c                    10.028564
_cell_angle_alpha                 90.143736
_cell_angle_beta                  90.521139
_cell_angle_gamma                 87.531728
_cell_volume                      1194.45100957

loop_
_atom_site_label
_atom_site_type_symbol
_atom_type_description
_atom_site_fract_x
_atom_site_fract_y
_atom_site_fract_z
_atom_type_partial_charge
C1    C     C_R   0.507748 0.263518 0.499094 0.855578
C2    C     C_R   0.495224 0.735481 0.500236 0.871204
C3    C     C_R   0.871582 0.487631 0.506624 -0.179621
C4    C     C_R   0.127085 0.495812 0.500805 -0.187502
C5    C     C_R   0.940766 0.462393 0.622661 0.060293
C6    C     C_R   0.053666 0.509880 0.386057 0.041589
C7    C     C_R   0.609365 0.052927 0.458848 0.033170
C8    C     C_R   0.392765 0.942150 0.524298 0.060029
C9    C     C_R   0.605674 0.922748 0.468423 0.029643
C10   C     C_R   0.397826 0.072721 0.524933 0.068286
C11   C     C_R   0.497772 0.869265 0.500320 -0.049893
C12   C     C_R   0.506617 0.127787 0.495535 -0.067751
C13   C     C_R   0.499555 0.391249 0.070664 0.372366
C14   C     C_R   0.507708 0.608507 0.928560 0.446366
C15   C     C_R   0.494255 0.391159 0.924193 0.489530
C16   C     C_R   0.496355 0.609148 0.073985 0.396871
C17   C     C_R   0.262866 0.500396 0.499512 0.800099
C18   C     C_R   0.736612 0.495564 0.501710 0.794252
C19   C     C_R   0.144701 0.690724 0.087645 0.339079
C20   C     C_R   0.860301 0.218312 0.866503 0.282725
C21   C     C_R   0.090923 0.659121 0.208173 0.035871
C22   C     C_R   0.862237 0.284625 0.745565 -0.028150
C23   C     C_R   0.103367 0.536560 0.256220 0.074863
C24   C     C_R   0.888012 0.411236 0.743311 0.027237
C25   C     C_R   0.160441 0.440656 0.181061 0.109672
C26   C     C_R   0.896436 0.478405 0.861151 -0.047046
C27   C     C_R   0.199983 0.468096 0.051779 0.346611
C28   C     C_R   0.885206 0.415766 0.982545 0.353544
C29   C     C_R   0.195168 0.593401 0.005040 0.324030
C30   C     C_R   0.875151 0.284318 0.986812 0.310874
C31   C     C_R   0.934761 0.471224 0.389118 0.182704
C32   C     C_R   0.068498 0.457125 0.615599 0.094722
Cu1   Cu    Cu3+1 0.500000 0.500020 0.640660 1.045839
Cu2   Cu    Cu3+1 0.500000 0.499980 0.359340 0.982865
N1    N     N_R   0.500030 0.500030 0.852070 -0.259645
N2    N     N_R   0.499970 0.499970 0.147930 -0.300983
O1    O     O_R   0.499990 0.319660 0.618740 -0.533306
O2    O     O_R   0.500010 0.680340 0.381260 -0.530110
O3    O     O_R   0.499990 0.319630 0.381170 -0.546944
O4    O     O_R   0.500010 0.680370 0.618830 -0.540429
O5    O     O_R   0.319650 0.500020 0.618780 -0.475765
O6    O     O_R   0.680350 0.499980 0.381220 -0.615981
O7    O     O_R   0.319640 0.500000 0.381210 -0.594965
O8    O     O_R   0.680360 0.500000 0.618790 -0.601333
O9    O     O_3   0.249619 0.612349 0.882287 -0.536531
C33   C     C_3   0.204126 0.716850 0.809801 -0.101270
H1    H     H_    0.255361 0.800099 0.835628 0.187375
H2    H     H_    0.106350 0.735663 0.821063 0.156558
H3    H     H_    0.218247 0.698260 0.702594 0.177717
O10   O     O_3   0.866843 0.227448 0.110469 -0.582054
C34   C     C_3   0.932353 0.111783 0.121505 -0.217906
H4    H     H_    0.009671 0.101648 0.053005 0.155047
H5    H     H_    0.871095 0.033707 0.107087 0.185103
H6    H     H_    0.969236 0.103086 0.224272 0.151154
O11   O     O_3   0.446856 0.289623 0.858176 -0.484436
C35   C     C_3   0.525636 0.183374 0.854102 -0.238561
H7    H     H_    0.501625 0.125807 0.767202 0.178578
H8    H     H_    0.510958 0.121149 0.939736 0.168182
H9    H     H_    0.620154 0.208115 0.840441 0.157870
O12   O     O_3   0.455185 0.717843 0.136960 -0.544353
C36   C     C_3   0.540715 0.811267 0.136671 -0.268990
H10   H     H_    0.634310 0.773257 0.151041 0.130683
H11   H     H_    0.520575 0.875796 0.220461 0.179780
H12   H     H_    0.530209 0.871073 0.047104 0.179652
O13   O     O_3   0.135659 0.814332 0.046676 -0.623832
C37   C     C_3   0.225610 0.883572 0.109405 -0.310039
H13   H     H_    0.259260 0.844486 0.206378 0.195926
H14   H     H_    0.188256 0.979269 0.129820 0.146811
H15   H     H_    0.302112 0.892443 0.040735 0.210311
O14   O     O_3   0.826862 0.094771 0.869432 -0.585871
C38   C     C_3   0.917621 0.013426 0.815404 -0.375034
H16   H     H_    0.006918 0.055738 0.804833 0.139517
H17   H     H_    0.887294 0.977573 0.717391 0.166574
H18   H     H_    0.930491 0.931211 0.882017 0.203409
N3    N     N_3   0.020934 0.751058 0.282056 -0.590233
H19   H     H_    0.953892 0.789620 0.219051 0.225883
H20   H     H_    0.075882 0.822384 0.312748 0.216610
N4    N     N_3   0.837890 0.224243 0.623198 -0.587321
H21   H     H_    0.910241 0.162172 0.602565 0.205123
H22   H     H_    0.759625 0.176177 0.638360 0.263928
N5    N     N_3   0.184882 0.317593 0.236612 -0.584588
H23   H     H_    0.149923 0.305267 0.331121 0.211730
H24   H     H_    0.277816 0.304579 0.247779 0.286336
N6    N     N_3   0.931333 0.606394 0.855823 -0.609564
H25   H     H_    0.869813 0.657978 0.796931 0.204990
H26   H     H_    0.932830 0.649157 0.949222 0.253988
O15   O     O_3   0.257025 0.378409 0.971015 -0.523010
C39   C     C_3   0.207436 0.258965 0.973184 -0.187994
H27   H     H_    0.109313 0.265129 0.986783 0.125487
H28   H     H_    0.254336 0.197198 0.047217 0.193216
H29   H     H_    0.225427 0.211524 0.876920 0.172585
O16   O     O_3   0.895111 0.482890 0.098101 -0.554858
C40   C     C_3   0.784034 0.545256 0.121502 -0.292048
H30   H     H_    0.718713 0.475480 0.148296 0.187626
H31   H     H_    0.749675 0.599414 0.034464 0.093241
H32   H     H_    0.794529 0.612456 0.204547 0.211945
N7    N     N_3   0.913687 0.357611 0.319395 -0.452852
H33   H     H_    0.822250 0.342012 0.315058 0.267596
H34   H     H_    0.951417 0.283593 0.375844 0.201345
N8    N     N_3   0.137779 0.394140 0.716345 -0.475544
H35   H     H_    0.116801 0.439060 0.805022 0.287558
H36   H     H_    0.110008 0.302272 0.719692 0.182636
N9    N     N_3   0.715194 0.107056 0.407638 -0.621337
H37   H     H_    0.728118 0.073988 0.310916 0.213082
H38   H     H_    0.789670 0.066764 0.457040 0.213300
N10   N     N_3   0.281281 0.882877 0.543427 -0.633702
H39   H     H_    0.223054 0.909587 0.465379 0.203411
H40   H     H_    0.243383 0.915901 0.632274 0.200005
N11   N     N_3   0.710458 0.842828 0.444075 -0.611863
H41   H     H_    0.776647 0.862290 0.514732 0.209908
H42   H     H_    0.742882 0.859919 0.348726 0.208786
N12   N     N_3   0.292903 0.150745 0.553131 -0.583256
H43   H     H_    0.263448 0.130047 0.648828 0.219175
H44   H     H_    0.225231 0.130658 0.484517 0.199262
O17   O     O_3   0.484811 0.279314 0.132872 -0.552129
C41   C     C_3   0.598629 0.219438 0.148982 -0.271627
H45   H     H_    0.653707 0.219588 0.058482 0.155302
H46   H     H_    0.584152 0.120500 0.173532 0.170474
H47   H     H_    0.651071 0.265409 0.227508 0.227139
O18   O     O_3   0.507796 0.722800 0.865402 -0.533026
C42   C     C_3   0.627591 0.750902 0.835951 -0.326603
H48   H     H_    0.673193 0.674949 0.778233 0.196520
H49   H     H_    0.681282 0.770644 0.926192 0.113272
H50   H     H_    0.626226 0.836804 0.774132 0.198242

loop_
_geom_bond_atom_site_label_1
_geom_bond_atom_site_label_2
_ccdc_geom_bond_type
C37   H14   S    
O15   C39   S    
C40   H30   S    
C27   C29   A    
Cu2   O6    S    
O11   C35   S    
N12   H44   S    
N5    H23   S    
C20   C30   A    
O9    C33   S    
C41   H45   S    
C33   H3    S    
C19   C21   A    
C24   C26   A    
N11   H42   S    
N4    H22   S    
C37   H15   S    
N10   H39   S    
O17   C41   S    
C35   H7    S    
C3    C18   S    
C16   O12   S    
C36   H11   S    
O16   C40   S    
C42   H50   S    
N7    H34   S    
Cu2   O3    S    
C35   H8    S    
C10   N12   S    
O14   C38   S    
Cu2   N2    S    
C1    O1    A    
C5    C32   A    
C31   N7    S    
C6    C31   A    
C30   O10   S    
C40   H31   S    
C7    N9    S    
C25   N5    S    
C20   O14   S    
C1    C12   S    
C2    C11   S    
C15   N1    A    
N12   H43   S    
N5    H24   S    
N7    H33   S    
C9    N11   S    
C7    C12   A    
C33   H2    S    
Cu1   O4    S    
C34   H4    S    
C37   H13   S    
N6    H25   S    
C22   N4    S    
C13   N2    A    
C4    C6    A    
C14   N1    A    
C38   H17   S    
N4    H21   S    
O10   C34   S    
Cu1   O1    S    
C32   N8    S    
C29   O9    S    
O12   C36   S    
C34   H5    S    
C15   O11   S    
C36   H12   S    
C27   O15   S    
N3    H19   S    
C17   O7    A    
C18   O8    A    
C9    C11   A    
C2    O2    A    
C39   H29   S    
N8    H36   S    
Cu1   Cu2   S    
N9    H38   S    
C13   O17   S    
C3    C31   A    
N3    H20   S    
C42   H48   S    
C4    C32   A    
C10   C12   A    
C4    C17   S    
C39   H28   S    
C40   H32   S    
C14   O18   S    
C21   C23   A    
C13   C15   A    
C22   C24   A    
C19   C29   A    
O18   C42   S    
C7    C9    A    
C33   H1    S    
C26   N6    S    
Cu2   O2    S    
Cu1   O8    S    
Cu2   O7    S    
C20   C22   A    
C3    C5    A    
C8    N10   S    
C38   H18   S    
C41   H47   S    
C25   C27   A    
C21   N3    S    
C26   C28   A    
C35   H9    S    
C34   H6    S    
Cu1   O5    S    
C18   O6    A    
C38   H16   S    
N11   H41   S    
C16   N2    A    
C5    C24   S    
N10   H40   S    
C8    C11   A    
C6    C23   S    
C28   C30   A    
N8    H35   S    
Cu1   N1    S    
C41   H46   S    
C19   O13   S    
C14   C16   A    
C23   C25   A    
C36   H10   S    
C17   O5    A    
C42   H49   S    
C1    O3    A    
C28   O16   S    
C2    O4    A    
C39   H27   S    
C8    C10   A    
O13   C37   S    
N9    H37   S    
N6    H26   S    
