data_mof_unit_23138.cif
_audit_creation_date              2012-12-11T15:07:34-0500
_audit_creation_method            fapswitch 2.2
_symmetry_space_group_name_H-M    P1
_symmetry_Int_Tables_number       1
_space_group_crystal_system       triclinic
_cell_length_a                    21.759068
_cell_length_b                    7.187659
_cell_length_c                    18.515026
_cell_angle_alpha                 90.072831
_cell_angle_beta                  95.961533
_cell_angle_gamma                 89.991831
_cell_volume                      2880.02743924

loop_
_atom_site_label
_atom_site_type_symbol
_atom_type_description
_atom_site_fract_x
_atom_site_fract_y
_atom_site_fract_z
_atom_type_partial_charge
O1    O     O_R   0.449650 0.506500 0.414480 -0.533577
O2    O     O_R   0.550350 0.006500 0.585520 -0.533823
O3    O     O_R   0.432010 0.173150 0.560250 -0.542224
O4    O     O_R   0.567990 0.673150 0.439750 -0.542654
C1    C     C_R   0.414290 0.345453 0.578542 0.688925
C2    C     C_R   0.585734 0.845240 0.421496 0.690600
O5    O     O_R   0.442320 0.176650 0.413480 -0.532599
O6    O     O_R   0.557680 0.676650 0.586520 -0.534731
O7    O     O_R   0.560730 0.008380 0.437700 -0.528353
O8    O     O_R   0.439270 0.508380 0.562300 -0.529199
C3    C     C_R   0.428694 0.345083 0.387223 0.699294
C4    C     C_R   0.571237 0.845418 0.612731 0.700134
O9    O     O_3   0.538840 0.339860 0.508120 -0.372080
O10   O     O_3   0.461160 0.839860 0.491880 -0.371575
V1    V     V_3+5 0.492800 0.064220 0.498490 1.423973
V2    V     V_3+5 0.507200 0.564220 0.501510 1.420124
C5    C     C_R   0.872021 0.859302 0.692303 -0.171724
C6    C     C_R   0.127860 0.378267 0.309000 -0.170034
H1    H     H_    0.959122 0.858684 0.757298 0.115328
H2    H     H_    0.040538 0.377988 0.244341 0.114790
H3    H     H_    0.792397 0.827901 0.574925 0.124731
H4    H     H_    0.207821 0.356479 0.426653 0.125163
H5    H     H_    0.893142 0.826149 0.643362 0.120739
H6    H     H_    0.106645 0.354683 0.358635 0.120855
C7    C     C_R   0.884999 0.934241 0.820394 -0.043924
C8    C     C_R   0.115108 0.435882 0.179567 -0.043339
C9    C     C_R   0.584052 0.847360 0.746431 -0.244461
C10   C     C_R   0.414894 0.329959 0.253504 -0.198381
C11   C     C_R   0.619817 0.843446 0.813442 0.458799
C12   C     C_R   0.379510 0.318576 0.186217 0.477539
C13   C     C_R   0.684064 0.861383 0.816750 -0.261619
C14   C     C_R   0.314554 0.338518 0.183995 -0.300370
C15   C     C_R   0.714118 0.885975 0.753404 0.023723
C16   C     C_R   0.285610 0.380178 0.246865 0.043541
C17   C     C_R   0.677507 0.867445 0.684886 0.064323
C18   C     C_R   0.322404 0.370553 0.315330 0.065296
C19   C     C_R   0.780038 0.909253 0.755802 0.089131
C20   C     C_R   0.219950 0.409328 0.244313 0.090193
C21   C     C_R   0.807733 0.873466 0.690879 0.108205
C22   C     C_R   0.192247 0.386320 0.309965 0.105109
C23   C     C_R   0.771201 0.849731 0.624725 -0.190281
C24   C     C_R   0.228909 0.369217 0.376348 -0.191079
C25   C     C_R   0.707167 0.853413 0.621366 -0.176579
C26   C     C_R   0.292970 0.368120 0.379240 -0.174144
C27   C     C_R   0.820223 0.963491 0.819169 0.090348
C28   C     C_R   0.180117 0.458140 0.180028 0.099155
C29   C     C_R   0.909777 0.879815 0.757049 -0.204041
C30   C     C_R   0.090057 0.393378 0.244002 -0.206062
C31   C     C_R   0.612028 0.854542 0.681847 -0.138705
C32   C     C_R   0.387606 0.352073 0.318109 -0.151870
H7    H     H_    0.534223 0.837969 0.744708 0.124429
H8    H     H_    0.464569 0.313567 0.255730 0.125154
H9    H     H_    0.709730 0.846484 0.869441 0.150038
H10   H     H_    0.285970 0.310802 0.134243 0.126538
H11   H     H_    0.681072 0.833932 0.568910 0.102616
H12   H     H_    0.319180 0.353196 0.431805 0.101870
C33   C     C_R   0.643600 0.719215 0.322946 -0.228137
C34   C     C_R   0.356810 0.220084 0.677331 -0.230775
C35   C     C_R   0.637993 0.858014 0.375277 -0.114090
C36   C     C_R   0.362269 0.358881 0.625096 -0.114673
C37   C     C_R   0.680170 0.010384 0.379999 0.114467
C38   C     C_R   0.320359 0.512026 0.621023 0.114812
C39   C     C_R   0.722167 0.030550 0.326457 0.123583
C40   C     C_R   0.278458 0.531797 0.674697 0.123162
C41   C     C_R   0.726437 0.889390 0.273511 -0.047941
C42   C     C_R   0.274232 0.390315 0.727394 -0.047662
C43   C     C_R   0.687903 0.730997 0.272860 0.013484
C44   C     C_R   0.312791 0.232014 0.727761 0.014131
C45   C     C_R   0.760487 0.188752 0.324677 -0.125164
C46   C     C_R   0.240163 0.690024 0.676832 -0.125295
C47   C     C_R   0.803023 0.204530 0.273797 -0.186960
C48   C     C_R   0.197617 0.705357 0.727677 -0.188516
C49   C     C_R   0.808661 0.063771 0.222801 0.099370
C50   C     C_R   0.191958 0.564190 0.778325 0.098469
C51   C     C_R   0.769996 0.906024 0.221772 0.019198
C52   C     C_R   0.230675 0.406580 0.779152 0.018865
C53   C     C_R   0.775153 0.765113 0.169451 0.044184
C54   C     C_R   0.225523 0.265411 0.831232 0.043266
C55   C     C_R   0.737856 0.605159 0.171621 -0.311966
C56   C     C_R   0.263164 0.106066 0.829099 -0.316919
C57   C     C_R   0.693285 0.587353 0.221751 0.422982
C58   C     C_R   0.307688 0.088474 0.778861 0.419913
C59   C     C_R   0.853638 0.077547 0.174212 -0.268922
C60   C     C_R   0.146884 0.577546 0.826748 -0.270013
C61   C     C_R   0.860398 0.938195 0.122553 -0.089759
C62   C     C_R   0.139921 0.437734 0.877983 -0.089846
C63   C     C_R   0.818079 0.786023 0.116730 0.131814
C64   C     C_R   0.182246 0.285439 0.883655 0.131422
H13   H     H_    0.611877 0.602627 0.320406 0.182032
H14   H     H_    0.388456 0.103326 0.679523 0.182509
H15   H     H_    0.757735 0.303604 0.361972 0.133392
H16   H     H_    0.242861 0.805207 0.639799 0.134065
H17   H     H_    0.831835 0.327695 0.274566 0.124153
H18   H     H_    0.168785 0.828470 0.727127 0.125028
H19   H     H_    0.884781 0.195805 0.177949 0.134336
H20   H     H_    0.115756 0.695850 0.823130 0.134820
H21   H     H_    0.744895 0.490813 0.135659 0.135672
H22   H     H_    0.256383 0.992003 0.865142 0.135306
O11   O     O_R   0.060820 0.290050 0.937800 -0.530951
O12   O     O_R   0.939180 0.790050 0.062200 -0.530932
O13   O     O_R   0.057690 0.616620 0.086540 -0.536174
O14   O     O_R   0.942310 0.116620 0.913460 -0.536224
C65   C     C_R   0.072149 0.448268 0.112161 0.699296
C66   C     C_R   0.927843 0.948038 0.887854 0.698737
O15   O     O_R   0.068010 0.619890 0.939770 -0.542091
O16   O     O_R   0.931990 0.119890 0.060230 -0.541903
O17   O     O_R   0.949640 0.787940 0.914460 -0.536186
O18   O     O_R   0.050360 0.287940 0.085540 -0.536092
C67   C     C_R   0.086544 0.450309 0.922323 0.704982
C68   C     C_R   0.913597 0.950506 0.077920 0.704520
O19   O     O_3   0.961210 0.453080 0.991940 -0.372716
O20   O     O_3   0.038790 0.953080 0.008060 -0.372503
V3    V     V_3+5 0.007200 0.728820 0.001500 1.402162
V4    V     V_3+5 0.992800 0.228820 0.998500 1.401998
C69   C     C_3   0.683731 0.145076 0.443590 -0.740551
H23   H     H_    0.663766 0.281506 0.425455 0.220146
H24   H     H_    0.660258 0.094097 0.489881 0.208120
H25   H     H_    0.732587 0.163996 0.466349 0.183645
C70   C     C_3   0.316995 0.648703 0.558191 -0.740372
H26   H     H_    0.336586 0.784936 0.577291 0.220106
H27   H     H_    0.340865 0.600454 0.511829 0.209603
H28   H     H_    0.268208 0.667318 0.535130 0.182888
C71   C     C_3   0.815260 0.654211 0.052309 -0.754906
H29   H     H_    0.836808 0.518975 0.069261 0.214412
H30   H     H_    0.766481 0.631427 0.029923 0.188834
H31   H     H_    0.837885 0.711167 0.006207 0.203805
C72   C     C_3   0.184562 0.151883 0.947369 -0.762759
H32   H     H_    0.163875 0.016234 0.929289 0.216075
H33   H     H_    0.233170 0.130622 0.970651 0.179581
H34   H     H_    0.160893 0.205877 0.993173 0.206387
O21   O     O_3   0.657601 0.427149 0.227311 -0.558603
C73   C     C_3   0.645080 0.329348 0.161161 0.078105
H35   H     H_    0.685574 0.242556 0.150863 0.137960
H36   H     H_    0.632647 0.425453 0.114738 0.118689
C74   C     C_3   0.590750 0.199091 0.166942 -0.665357
H37   H     H_    0.581487 0.117457 0.116005 0.184717
H38   H     H_    0.601260 0.101567 0.213086 0.223040
H39   H     H_    0.548888 0.280957 0.175627 0.237192
O22   O     O_3   0.343658 0.928785 0.773115 -0.557932
C75   C     C_3   0.355284 0.828274 0.838652 0.095942
H40   H     H_    0.314273 0.742923 0.848103 0.134898
H41   H     H_    0.368034 0.922409 0.885724 0.117196
C76   C     C_3   0.408904 0.695530 0.832339 -0.706253
H42   H     H_    0.451435 0.775511 0.825015 0.232780
H43   H     H_    0.417094 0.610759 0.882492 0.174702
H44   H     H_    0.398250 0.600912 0.785215 0.228701
C77   C     C_3   0.797746 0.075949 0.880488 -0.812595
H45   H     H_    0.828421 0.197463 0.893180 0.223779
H46   H     H_    0.751525 0.137698 0.865441 0.219794
H47   H     H_    0.797740 0.989331 0.930075 0.193859
C78   C     C_3   0.203606 0.558772 0.116470 -0.826396
H48   H     H_    0.174297 0.681973 0.101547 0.224689
H49   H     H_    0.250682 0.616087 0.129986 0.218501
H50   H     H_    0.202403 0.465300 0.068634 0.190219
O23   O     O_3   0.591514 0.831624 0.876658 -0.553672
C79   C     C_3   0.590614 0.643305 0.898053 0.087839
H51   H     H_    0.637936 0.581838 0.903739 0.114532
H52   H     H_    0.560133 0.560633 0.857928 0.127576
C80   C     C_3   0.565367 0.630253 0.971475 -0.710184
H53   H     H_    0.595636 0.708709 0.012904 0.221862
H54   H     H_    0.517962 0.689121 0.967995 0.224071
H55   H     H_    0.563838 0.482353 0.988461 0.178331
O24   O     O_3   0.411705 0.280244 0.126311 -0.556031
C81   C     C_3   0.375561 0.293023 0.058528 0.091946
H56   H     H_    0.351834 0.430313 0.052278 0.121048
H57   H     H_    0.341455 0.177297 0.052301 0.117713
C82   C     C_3   0.417313 0.274425 0.997921 -0.712265
H58   H     H_    0.451708 0.388946 0.001623 0.222482
H59   H     H_    0.441953 0.138885 0.002229 0.230273
H60   H     H_    0.389181 0.281752 0.944372 0.174888

loop_
_geom_bond_atom_site_label_1
_geom_bond_atom_site_label_2
_ccdc_geom_bond_type
C74   H39   S    
C42   C44   A    
C39   C41   A    
O12   C68   A    
C9    C11   A    
O13   V3    S    
O24   C81   S    
O1    C3    A    
C75   C76   S    
O2    C4    A    
O11   V4    S    
C4    C31   S    
O3    V1    S    
C74   H37   S    
C82   H59   S    
O5    C3    A    
C63   C71   S    
C81   H57   S    
C5    H5    S    
C33   H13   S    
O16   V4    S    
C6    H6    S    
O15   V3    S    
C81   H56   S    
C77   H46   S    
C52   C54   A    
C64   C72   S    
C60   H20   S    
C54   C56   A    
C71   H30   S    
C34   C36   A    
C69   H23   S    
O11   C67   A    
C76   H43   S    
C57   O21   S    
C36   C38   A    
C5    C21   A    
C78   H50   S    
O18   V4    S    
C45   C47   A    
C6    C22   A    
O17   V3    S    
C38   C40   A    
C77   H45   S    
C10   C32   A    
C79   H52   S    
C39   C45   A    
C73   H35   S    
C69   H24   S    
C17   C31   A    
C78   H48   S    
C13   C15   A    
C65   O18   A    
C40   C46   A    
C12   C14   A    
C17   C25   A    
C7    C29   A    
C16   C18   A    
C8    C30   A    
C11   O23   S    
C48   H18   S    
C61   C63   A    
C28   C78   S    
C42   C52   A    
O6    V2    S    
C16   C20   A    
C11   C13   A    
C49   C51   A    
C24   C26   A    
C12   O24   S    
C2    O7    A    
C14   H10   S    
O20   V3    S    
C9    H7    S    
C82   H60   S    
C53   C55   A    
O22   C75   S    
C54   C64   A    
C35   C37   A    
O12   V3    S    
C71   H29   S    
C62   C67   S    
C75   H40   S    
O4    C2    A    
C61   C68   S    
C76   H44   S    
C50   C60   A    
C82   H58   S    
C47   C49   A    
C71   H31   S    
C10   H8    S    
O5    V1    S    
C41   C43   A    
C15   C19   A    
C40   C42   A    
O4    V2    S    
C72   H33   S    
C37   C69   S    
C58   O22   S    
O14   V4    S    
C8    C65   S    
C51   C53   A    
C26   H12   S    
C80   H53   S    
O6    C4    A    
C69   H25   S    
C59   H19   S    
C77   H47   S    
C37   C39   A    
C80   H55   S    
H1    C29   S    
O1    V2    S    
C13   H9    S    
O14   C66   A    
O2    V1    S    
C34   H14   S    
C53   C63   A    
C38   C70   S    
H2    C30   S    
C70   H27   S    
C50   C52   A    
C73   H36   S    
H3    C23   S    
C48   C50   A    
C59   C61   A    
C43   C57   A    
C18   C26   A    
C19   C27   A    
C72   H32   S    
C7    C27   A    
C18   C32   A    
C55   C57   A    
O16   C68   A    
C70   H28   S    
C25   H11   S    
C74   H38   S    
O15   C67   A    
C79   H51   S    
C1    C36   S    
C56   H22   S    
C27   C77   S    
C2    C35   S    
C55   H21   S    
C81   C82   S    
C46   H16   S    
C23   C25   A    
C5    C29   A    
C60   C62   A    
O3    C1    A    
C6    C30   A    
C70   H26   S    
C7    C66   S    
C47   H17   S    
C79   C80   S    
C41   C51   A    
C44   C58   A    
C10   C12   A    
C80   H54   S    
O7    V1    S    
C72   H34   S    
C1    O8    A    
C19   C21   A    
C3    C32   S    
O8    V2    S    
C20   C22   A    
C33   C43   A    
C34   C44   A    
H4    C24   S    
C73   C74   S    
C22   C24   A    
C15   C17   A    
C56   C58   A    
O19   V4    S    
C62   C64   A    
C78   H49   S    
O21   C73   S    
C20   C28   A    
C33   C35   A    
C8    C28   A    
C9    C31   A    
C21   C23   A    
O13   C65   A    
O9    V2    S    
O23   C79   S    
O10   V1    S    
C46   C48   A    
C75   H41   S    
C45   H15   S    
C49   C59   A    
C66   O17   A    
C76   H42   S    
C14   C16   A    
