data_mof_unit_58019.cif
_audit_creation_date              2012-10-26T19:34:03-0400
_audit_creation_method            fapswitch 2.2
_symmetry_space_group_name_H-M    P1
_symmetry_Int_Tables_number       1
_space_group_crystal_system       triclinic
_cell_length_a                    8.726929
_cell_length_b                    19.404873
_cell_length_c                    18.142702
_cell_angle_alpha                 90.205315
_cell_angle_beta                  98.160085
_cell_angle_gamma                 90.207728
_cell_volume                      3041.22218099

loop_
_atom_site_label
_atom_site_type_symbol
_atom_type_description
_atom_site_fract_x
_atom_site_fract_y
_atom_site_fract_z
_atom_type_partial_charge
Br1   Br    Br    0.617645 0.641372 0.855628 -0.652728
Br2   Br    Br    0.336193 0.366048 0.143499 -0.615528
C1    C     C_R   0.499491 0.367403 0.499766 0.547955
C2    C     C_R   0.570498 0.551829 0.283141 0.025136
C3    C     C_R   0.445766 0.443225 0.794952 -0.182734
C4    C     C_R   0.570784 0.552024 0.205750 -0.182681
C5    C     C_R   0.497735 0.500883 0.838517 0.023662
C6    C     C_R   0.500932 0.497777 0.161438 0.017232
C7    C     C_R   0.552428 0.558284 0.802432 0.107262
C8    C     C_R   0.429234 0.444536 0.197079 0.116150
C9    C     C_R   0.553932 0.556244 0.725013 0.067305
C10   C     C_R   0.429251 0.447237 0.274555 0.070993
C11   C     C_R   0.637007 0.495359 0.968943 -0.073291
C12   C     C_R   0.500393 0.632596 0.500232 0.546796
C13   C     C_R   0.362666 0.502586 0.030759 -0.074276
C14   C     C_R   0.642841 0.493236 0.047108 0.018365
C15   C     C_R   0.356397 0.503046 0.952664 0.024374
C16   C     C_R   0.203452 0.499999 0.480933 0.555019
C17   C     C_R   0.796549 0.500055 0.519067 0.554643
C18   C     C_R   0.503471 0.497634 0.078793 0.058256
C19   C     C_R   0.495854 0.500214 0.921044 0.062564
C20   C     C_2   0.037596 0.500049 0.470402 -0.154671
C21   C     C_2   0.962406 0.500084 0.529600 -0.155265
C22   C     C_R   0.498640 0.745595 0.435374 -0.140381
C23   C     C_R   0.367510 0.964213 0.514664 -0.122924
C24   C     C_R   0.502802 0.254460 0.564801 -0.139418
C25   C     C_R   0.498897 0.817177 0.436991 -0.133665
C26   C     C_R   0.502193 0.182879 0.563250 -0.132850
C27   C     C_R   0.501720 0.852676 0.504514 0.026361
C28   C     C_R   0.497073 0.147327 0.495644 0.026167
C29   C     C_R   0.506984 0.816242 0.572287 0.008009
C30   C     C_R   0.489804 0.183684 0.427741 0.008302
C31   C     C_R   0.505754 0.743772 0.569439 -0.111616
C32   C     C_R   0.491370 0.256165 0.430498 -0.110183
C33   C     C_R   0.501386 0.708363 0.501472 -0.003173
C34   C     C_R   0.631212 0.035815 0.485488 -0.122928
C35   C     C_R   0.498116 0.291634 0.498553 -0.002740
C36   C     C_3   0.798424 0.482666 0.094456 -0.253298
C37   C     C_3   0.901069 0.547137 0.095357 -0.305147
C38   C     C_3   0.038778 0.543188 0.157333 -0.450181
C39   C     C_3   0.199331 0.506347 0.905053 -0.258932
C40   C     C_3   0.164540 0.578964 0.874417 -0.294101
C41   C     C_3   0.009781 0.580505 0.823365 -0.434381
C42   C     C_3   0.516340 0.855817 0.645655 -0.263005
C43   C     C_3   0.538302 0.811838 0.716725 -0.299081
C44   C     C_3   0.553734 0.857032 0.786424 -0.432010
C45   C     C_R   0.366599 0.035961 0.512573 -0.123166
C46   C     C_3   0.478131 0.143976 0.354379 -0.262610
C47   C     C_3   0.454688 0.187844 0.283251 -0.299333
C48   C     C_3   0.437203 0.142531 0.213610 -0.431212
C49   C     C_R   0.632146 0.964069 0.487609 -0.123309
C50   C     C_R   0.498176 0.071853 0.497612 0.020138
C51   C     C_R   0.500589 0.928165 0.502595 0.020366
C52   C     C_R   0.445729 0.444157 0.717583 0.027815
Cu1   Cu    Cu3+1 0.499960 0.500000 0.573360 0.935403
Cu2   Cu    Cu3+1 0.500040 0.500000 0.426640 0.936713
H1    H     H_    0.977174 0.500051 0.413698 0.129333
H2    H     H_    0.506753 0.154890 0.615095 0.114267
H3    H     H_    0.508444 0.714168 0.619868 0.125228
H4    H     H_    0.487027 0.285732 0.379947 0.127976
H5    H     H_    0.264836 0.936736 0.525532 0.104955
H6    H     H_    0.733811 0.063301 0.474531 0.105608
H7    H     H_    0.263434 0.063541 0.522068 0.108124
H8    H     H_    0.735308 0.936497 0.478092 0.107693
H9    H     H_    0.401777 0.399841 0.684923 0.128071
H10   H     H_    0.626929 0.593379 0.316560 0.126460
H11   H     H_    0.404119 0.397859 0.820640 0.104292
H12   H     H_    0.022824 0.500105 0.586306 0.128766
H13   H     H_    0.625734 0.594244 0.180631 0.106456
H14   H     H_    0.998243 0.545791 0.212620 0.157436
H15   H     H_    0.102606 0.494274 0.153357 0.188105
H16   H     H_    0.118747 0.587082 0.152626 0.146831
H17   H     H_    0.944422 0.552105 0.040865 0.164474
H18   H     H_    0.833305 0.594070 0.104227 0.176136
H19   H     H_    0.784475 0.468414 0.152310 0.168267
H20   H     H_    0.857900 0.438390 0.071853 0.155672
H21   H     H_    0.014401 0.547254 0.773741 0.153296
H22   H     H_    0.915636 0.561921 0.853587 0.188810
H23   H     H_    0.597589 0.600259 0.698070 0.143590
H24   H     H_    0.983624 0.634066 0.804382 0.176708
H25   H     H_    0.160271 0.615438 0.921491 0.177757
H26   H     H_    0.256608 0.596455 0.842344 0.205894
H27   H     H_    0.192594 0.468361 0.858886 0.148296
H28   H     H_    0.107024 0.491350 0.938441 0.134420
H29   H     H_    0.656239 0.891481 0.788638 0.150391
H30   H     H_    0.448142 0.888759 0.786788 0.149017
H31   H     H_    0.568601 0.823910 0.836704 0.188322
H32   H     H_    0.436724 0.777200 0.717312 0.178043
H33   H     H_    0.644819 0.780236 0.718620 0.183130
H34   H     H_    0.373300 0.406497 0.301444 0.146349
H35   H     H_    0.615210 0.892558 0.648874 0.154562
H36   H     H_    0.408566 0.886229 0.644988 0.145314
H37   H     H_    0.542406 0.110666 0.212664 0.149449
H38   H     H_    0.334642 0.108206 0.212080 0.151528
H39   H     H_    0.421222 0.175576 0.163276 0.185459
H40   H     H_    0.348517 0.219590 0.281928 0.185772
H41   H     H_    0.556288 0.222335 0.282017 0.177016
H42   H     H_    0.585449 0.113346 0.354451 0.145922
H43   H     H_    0.379044 0.107417 0.351840 0.154675
H44   H     H_    0.743702 0.491743 0.945006 0.114598
H45   H     H_    0.256154 0.506209 0.054561 0.124068
H46   H     H_    0.495785 0.719462 0.382341 0.124515
H47   H     H_    0.507543 0.280633 0.617907 0.122892
H48   H     H_    0.495900 0.845211 0.385253 0.113738
N1    N     N_R   0.499980 0.500020 0.683620 -0.239510
N2    N     N_R   0.500020 0.499980 0.316380 -0.241199
O1    O     O_R   0.499930 0.400180 0.561970 -0.510774
O2    O     O_R   0.500070 0.599820 0.438030 -0.508375
O3    O     O_R   0.500010 0.400190 0.438070 -0.513355
O4    O     O_R   0.499990 0.599810 0.561930 -0.516611
O5    O     O_R   0.274810 0.500000 0.547650 -0.494796
O6    O     O_R   0.725190 0.500000 0.452350 -0.496002
O7    O     O_R   0.274880 0.500000 0.423750 -0.496567
O8    O     O_R   0.725120 0.500000 0.576250 -0.494657

loop_
_geom_bond_atom_site_label_1
_geom_bond_atom_site_label_2
_ccdc_geom_bond_type
C4    H13   S    
C2    H10   S    
Cu1   Cu2   S    
C38   H15   S    
C25   C27   A    
C32   C35   A    
C39   C40   S    
C40   H26   S    
C22   C25   A    
C3    H11   S    
C20   H1    S    
C52   H9    S    
C36   H20   S    
C43   C44   S    
C41   H22   S    
C6    C18   S    
C38   H14   S    
Cu1   N1    S    
C10   H34   S    
C23   C51   A    
C45   H7    S    
C36   C37   S    
C48   H39   S    
C39   H27   S    
C25   H48   S    
C5    C7    A    
C37   H18   S    
Cu2   O2    S    
C9    N1    A    
Cu2   O7    S    
C29   C31   A    
C43   H33   S    
C23   C45   A    
C34   C50   A    
C44   H29   S    
C10   N2    A    
C12   O2    A    
C31   H3    S    
C32   H4    S    
C30   C46   S    
C40   H25   S    
C34   H6    S    
C8    C10   A    
C16   O7    A    
C36   H19   S    
C13   C18   A    
C22   C33   A    
C29   C42   S    
C3    C52   A    
C43   H32   S    
Br1   C7    S    
C16   O5    A    
C2    C4    A    
C37   C38   S    
C3    C5    A    
C48   H38   S    
C4    C6    A    
C17   O8    A    
C1    O1    A    
C41   H24   S    
C17   O6    A    
C39   H28   S    
C2    N2    A    
C15   C19   A    
Cu1   O1    S    
C49   C51   A    
C30   C32   A    
C21   H12   S    
C17   C21   S    
C24   H47   S    
C7    C9    A    
C14   C18   A    
C11   C19   A    
C48   H37   S    
C23   H5    S    
C13   H45   S    
C42   H35   S    
Cu2   N2    S    
C34   C49   A    
C9    H23   S    
C46   C47   S    
Cu1   O4    S    
C40   C41   S    
Br2   C8    S    
Cu2   O3    S    
C12   C33   S    
C42   C43   S    
C44   H31   S    
C13   C15   A    
C46   H43   S    
C28   C50   S    
C38   H16   S    
C52   N1    A    
Cu1   O5    S    
C16   C20   S    
C49   H8    S    
C42   H36   S    
C24   C35   A    
C45   C50   A    
Cu1   O8    S    
C26   H2    S    
C41   H21   S    
C46   H42   S    
C24   C26   A    
C11   H44   S    
C26   C28   A    
C27   C29   A    
C5    C19   S    
C28   C30   A    
C27   C51   S    
C1    O3    A    
C12   O4    A    
C31   C33   A    
C22   H46   S    
C37   H17   S    
C47   H40   S    
C15   C39   S    
C47   H41   S    
C1    C35   S    
C6    C8    A    
C47   C48   S    
C11   C14   A    
C20   C21   D    
Cu2   O6    S    
C14   C36   S    
C44   H30   S    
