data_mof_unit_20539.cif
_audit_creation_date              2013-03-05T15:47:19-0500
_audit_creation_method            fapswitch 2.2
_symmetry_space_group_name_H-M    P1
_symmetry_Int_Tables_number       1
_space_group_crystal_system       triclinic
_cell_length_a                    19.5284
_cell_length_b                    11.269849
_cell_length_c                    18.702914
_cell_angle_alpha                 89.984258
_cell_angle_beta                  89.793639
_cell_angle_gamma                 90.00318
_cell_volume                      4116.15008894

loop_
_atom_site_label
_atom_site_type_symbol
_atom_site_description
_atom_site_fract_x
_atom_site_fract_y
_atom_site_fract_z
_atom_type_partial_charge
O1    O     O_R   0.214130 0.708570 0.829890 -0.527767
O2    O     O_R   0.785870 0.708570 0.170110 -0.526542
O3    O     O_R   0.714130 0.208570 0.829890 -0.526977
O4    O     O_R   0.285870 0.208570 0.170110 -0.526699
O5    O     O_R   0.236050 0.959150 0.825270 -0.503530
O6    O     O_R   0.763950 0.959150 0.174730 -0.503505
O7    O     O_R   0.736050 0.459150 0.825270 -0.503486
O8    O     O_R   0.263950 0.459150 0.174730 -0.504490
C1    C     C_R   0.271632 0.045091 0.853301 0.542285
C2    C     C_R   0.727114 0.042616 0.145533 0.542964
C3    C     C_R   0.772558 0.543448 0.854112 0.542903
C4    C     C_R   0.227326 0.542645 0.145328 0.541115
O9    O     O_R   0.332100 0.076650 0.832310 -0.533767
O10   O     O_R   0.667900 0.076650 0.167690 -0.533330
O11   O     O_R   0.832100 0.576650 0.832310 -0.533183
O12   O     O_R   0.167900 0.576650 0.167690 -0.532260
O13   O     O_R   0.446500 0.918620 0.826240 -0.501800
O14   O     O_R   0.553500 0.918620 0.173760 -0.501575
O15   O     O_R   0.946500 0.418620 0.826240 -0.501924
O16   O     O_R   0.053500 0.418620 0.173760 -0.501930
C5    C     C_R   0.445061 0.817461 0.862773 0.537274
C6    C     C_R   0.556828 0.817240 0.137543 0.535550
C7    C     C_R   0.944541 0.317124 0.862586 0.535083
C8    C     C_R   0.055668 0.317158 0.137406 0.534462
O17   O     O_R   0.457310 0.715830 0.831280 -0.506826
O18   O     O_R   0.542690 0.715830 0.168720 -0.507193
O19   O     O_R   0.957310 0.215830 0.831280 -0.507458
O20   O     O_R   0.042690 0.215830 0.168720 -0.507376
O21   O     O_R   0.321000 0.623520 0.824130 -0.522227
O22   O     O_R   0.679000 0.623520 0.175870 -0.521649
O23   O     O_R   0.821000 0.123520 0.824130 -0.521207
O24   O     O_R   0.179000 0.123520 0.175870 -0.521092
C9    C     C_R   0.261390 0.638312 0.853637 0.529639
C10   C     C_R   0.738023 0.641497 0.145179 0.531006
C11   C     C_R   0.762237 0.142278 0.855009 0.531600
C12   C     C_R   0.237277 0.143362 0.144516 0.531784
O25   O     O_R   0.213990 0.710040 0.667000 -0.519665
O26   O     O_R   0.786010 0.710040 0.333000 -0.519278
O27   O     O_R   0.713990 0.210040 0.667000 -0.519331
O28   O     O_R   0.286010 0.210040 0.333000 -0.518973
O29   O     O_R   0.235920 0.960520 0.674260 -0.441229
O30   O     O_R   0.764080 0.960520 0.325740 -0.440661
O31   O     O_R   0.735920 0.460520 0.674260 -0.440847
O32   O     O_R   0.264080 0.460520 0.325740 -0.440579
C13   C     C_R   0.274892 0.040031 0.644776 0.587205
C14   C     C_R   0.725094 0.039971 0.355243 0.587933
C15   C     C_R   0.774900 0.540008 0.644767 0.587796
C16   C     C_R   0.225095 0.539976 0.355241 0.588179
O33   O     O_R   0.331960 0.078120 0.669410 -0.545197
O34   O     O_R   0.668040 0.078120 0.330590 -0.544660
O35   O     O_R   0.831960 0.578120 0.669410 -0.544806
O36   O     O_R   0.168040 0.578120 0.330590 -0.544334
O37   O     O_R   0.446360 0.919990 0.675230 -0.512168
O38   O     O_R   0.553640 0.919990 0.324770 -0.511952
O39   O     O_R   0.946360 0.419990 0.675230 -0.512068
O40   O     O_R   0.053640 0.419990 0.324770 -0.512023
C17   C     C_R   0.469150 0.823565 0.645598 0.574897
C18   C     C_R   0.530845 0.823547 0.354396 0.575326
C19   C     C_R   0.969150 0.323564 0.645597 0.575022
C20   C     C_R   0.030844 0.323547 0.354395 0.575129
O41   O     O_R   0.457170 0.717300 0.668380 -0.491137
O42   O     O_R   0.542830 0.717300 0.331620 -0.491062
O43   O     O_R   0.957170 0.217300 0.668380 -0.491125
O44   O     O_R   0.042830 0.217300 0.331620 -0.491051
O45   O     O_R   0.320870 0.624890 0.673130 -0.511250
O46   O     O_R   0.679130 0.624890 0.326870 -0.510658
O47   O     O_R   0.820870 0.124890 0.673130 -0.510668
O48   O     O_R   0.179130 0.124890 0.326870 -0.510392
C21   C     C_R   0.261268 0.640740 0.643403 0.541045
C22   C     C_R   0.738738 0.640703 0.356590 0.541893
C23   C     C_R   0.761264 0.140725 0.643408 0.541856
C24   C     C_R   0.238736 0.140708 0.356593 0.542367
Cr1   Cr    Cr6+3 0.229620 0.836040 0.749110 1.059151
Cr2   Cr    Cr6+3 0.770380 0.836040 0.250890 1.059374
Cr3   Cr    Cr6+3 0.729620 0.336040 0.749110 1.059446
Cr4   Cr    Cr6+3 0.270380 0.336040 0.250890 1.059400
Cr5   Cr    Cr6+3 0.387630 0.990680 0.750730 1.009544
Cr6   Cr    Cr6+3 0.612370 0.990680 0.249270 1.009157
Cr7   Cr    Cr6+3 0.887630 0.490680 0.750730 1.009053
Cr8   Cr    Cr6+3 0.112370 0.490680 0.249270 1.009489
Cr9   Cr    Cr6+3 0.386020 0.676590 0.749210 1.031294
Cr10  Cr    Cr6+3 0.613980 0.676590 0.250790 1.031511
Cr11  Cr    Cr6+3 0.886020 0.176590 0.749210 1.031481
Cr12  Cr    Cr6+3 0.113980 0.176590 0.250790 1.032007
O49   O     O_3   0.334430 0.834430 0.749680 -0.308104
O50   O     O_3   0.665570 0.834430 0.250320 -0.311446
O51   O     O_3   0.834430 0.334430 0.749680 -0.310325
O52   O     O_3   0.165570 0.334430 0.250320 -0.310876
C25   C     C_3   0.487706 0.923795 0.033422 -0.112461
C26   C     C_3   0.526585 0.911785 0.961405 -0.106950
C27   C     C_3   0.980763 0.417359 0.035313 -0.106841
C28   C     C_3   0.021196 0.415565 0.963690 -0.106969
C29   C     C_3   0.434089 0.832948 0.008025 -0.164102
C30   C     C_3   0.569455 0.808764 0.992742 -0.157234
C31   C     C_3   0.932092 0.320045 0.006827 -0.158275
C32   C     C_3   0.068404 0.316744 0.992988 -0.159598
H1    H     H_    0.382044 0.837255 0.028931 0.099479
H2    H     H_    0.623968 0.791549 0.983534 0.093391
H3    H     H_    0.877503 0.307360 0.018312 0.093220
H4    H     H_    0.123165 0.303041 0.981835 0.091464
H5    H     H_    0.476430 0.008977 0.060823 0.117591
H6    H     H_    0.543914 0.987645 0.928485 0.117062
H7    H     H_    0.966185 0.498983 0.064723 0.115805
H8    H     H_    0.037069 0.495374 0.933220 0.117241
C33   C     C_3   0.473109 0.821748 0.936499 0.057504
C34   C     C_3   0.530062 0.821636 0.063709 0.052946
C35   C     C_3   0.972459 0.319933 0.936059 0.055395
C36   C     C_3   0.027987 0.320147 0.063803 0.054933
C37   C     C_3   0.515759 0.718993 0.966980 -0.108698
C38   C     C_3   0.477155 0.730933 0.038325 -0.108624
C39   C     C_3   0.019153 0.221557 0.964755 -0.112154
C40   C     C_3   0.979749 0.223356 0.035884 -0.111333
H9    H     H_    0.526937 0.633191 0.940279 0.126412
H10   H     H_    0.457467 0.655127 0.070042 0.131147
H11   H     H_    0.032867 0.138959 0.935932 0.128972
H12   H     H_    0.963792 0.142693 0.065506 0.129270
C41   C     C_3   0.309082 0.516196 0.040612 -0.232973
C42   C     C_3   0.688390 0.528954 0.956569 -0.236038
C43   C     C_3   0.811234 0.027695 0.043277 -0.235309
C44   C     C_3   0.183649 0.040491 0.954125 -0.235064
H13   H     H_    0.316848 0.426021 0.059238 0.133094
H14   H     H_    0.681692 0.434712 0.945042 0.130779
H15   H     H_    0.817367 0.933203 0.053969 0.130125
H16   H     H_    0.170727 0.947947 0.941021 0.128440
H17   H     H_    0.353056 0.564824 0.063968 0.115171
H18   H     H_    0.646784 0.574522 0.926814 0.121616
H19   H     H_    0.852684 0.071723 0.073917 0.119318
H20   H     H_    0.145673 0.094931 0.924832 0.119924
C45   C     C_3   0.313420 0.524219 0.958269 -0.241268
C46   C     C_3   0.679565 0.551819 0.037235 -0.235809
C47   C     C_3   0.820816 0.052720 0.962938 -0.235442
C48   C     C_3   0.175780 0.061137 0.035430 -0.233311
H21   H     H_    0.364470 0.560792 0.943347 0.139556
H22   H     H_    0.634754 0.610418 0.046361 0.135780
H23   H     H_    0.865216 0.112947 0.955092 0.134691
H24   H     H_    0.132725 0.122696 0.045851 0.134267
H25   H     H_    0.309660 0.435618 0.933733 0.115068
H26   H     H_    0.668573 0.466695 0.065125 0.119714
H27   H     H_    0.832609 0.968529 0.934404 0.120674
H28   H     H_    0.162507 0.975827 0.062056 0.121209
H29   H     H_    0.663936 0.935970 0.045282 0.095742
H30   H     H_    0.317858 0.924715 0.953846 0.097019
H31   H     H_    0.163799 0.441426 0.042954 0.097542
H32   H     H_    0.835394 0.437283 0.952361 0.096288
H33   H     H_    0.708165 0.936103 0.924433 0.114914
H34   H     H_    0.283128 0.933983 0.075743 0.112981
H35   H     H_    0.184907 0.455020 0.919157 0.110513
H36   H     H_    0.791729 0.434958 0.074436 0.114091
C49   C     C_3   0.177075 0.530955 0.026471 -0.211739
C50   C     C_3   0.820098 0.522677 0.973829 -0.211452
C51   C     C_3   0.679654 0.022335 0.025372 -0.212286
C52   C     C_3   0.313121 0.014150 0.973388 -0.215654
C53   C     C_3   0.247333 0.704726 0.055219 -0.252506
C54   C     C_3   0.760032 0.707636 0.943563 -0.255488
C55   C     C_3   0.740366 0.206962 0.056556 -0.254848
C56   C     C_3   0.264140 0.208800 0.943548 -0.254228
C57   C     C_3   0.241209 0.572334 0.069093 0.060495
C58   C     C_3   0.759160 0.574417 0.929843 0.062630
C59   C     C_3   0.740559 0.073495 0.069857 0.062745
C60   C     C_3   0.256705 0.076491 0.928834 0.063673
H37   H     H_    0.200375 0.752802 0.072689 0.127442
H38   H     H_    0.805535 0.750844 0.918764 0.129875
H39   H     H_    0.695152 0.250670 0.081575 0.130138
H40   H     H_    0.313345 0.241808 0.921061 0.132052
C61   C     C_3   0.254719 0.604569 0.930497 0.057570
C62   C     C_3   0.745349 0.609355 0.067993 0.053990
C63   C     C_3   0.755044 0.110064 0.932065 0.053937
C64   C     C_3   0.243294 0.111836 0.067106 0.053532
C65   C     C_3   0.186325 0.543157 0.945440 -0.244566
C66   C     C_3   0.805124 0.523935 0.054798 -0.251729
C67   C     C_3   0.695156 0.024921 0.944619 -0.250613
C68   C     C_3   0.299586 0.020591 0.054372 -0.254597
C69   C     C_3   0.258663 0.721238 0.973951 -0.224710
C70   C     C_3   0.761811 0.725259 0.025512 -0.225764
C71   C     C_3   0.738688 0.225616 0.974758 -0.226483
C72   C     C_3   0.263823 0.225907 0.025293 -0.227398
H41   H     H_    0.311282 0.749634 0.964687 0.100331
H42   H     H_    0.727402 0.795507 0.042109 0.107364
H43   H     H_    0.773728 0.295186 0.958761 0.107134
H44   H     H_    0.229767 0.298619 0.040283 0.108363
H45   H     H_    0.222163 0.787045 0.953636 0.137616
H46   H     H_    0.814977 0.750970 0.039396 0.131955
H47   H     H_    0.685754 0.252437 0.960782 0.131933
H48   H     H_    0.317325 0.246738 0.040708 0.133345
H49   H     H_    0.633120 0.077629 0.034653 0.137835
H50   H     H_    0.363918 0.055826 0.962690 0.140972
H51   H     H_    0.131517 0.584967 0.041795 0.141158
H52   H     H_    0.866726 0.577857 0.964721 0.138505
H53   H     H_    0.143414 0.596595 0.923387 0.133541
H54   H     H_    0.851440 0.553219 0.084299 0.127957
H55   H     H_    0.649446 0.055973 0.914949 0.126262
H56   H     H_    0.347499 0.045943 0.082591 0.128426
C73   C     C_3   0.507957 0.704482 0.461240 -0.227934
C74   C     C_3   0.492018 0.704500 0.538785 -0.227871
C75   C     C_3   0.007961 0.204482 0.461239 -0.227939
C76   C     C_3   0.992025 0.204497 0.538784 -0.227860
H57   H     H_    0.555049 0.657127 0.451875 0.136049
H58   H     H_    0.444927 0.657142 0.548178 0.136039
H59   H     H_    0.055048 0.157119 0.451870 0.136028
H60   H     H_    0.944933 0.157143 0.548169 0.136030
H61   H     H_    0.470348 0.651418 0.433027 0.230664
H62   H     H_    0.529622 0.651449 0.567022 0.230731
H63   H     H_    0.970351 0.151427 0.433026 0.230698
H64   H     H_    0.029627 0.151437 0.567017 0.230735
H65   H     H_    0.614884 0.896652 0.451266 0.114570
H66   H     H_    0.385115 0.896687 0.548695 0.114603
H67   H     H_    0.114880 0.396659 0.451264 0.114544
H68   H     H_    0.885115 0.396653 0.548693 0.114586
H69   H     H_    0.600706 0.827674 0.572218 0.159158
H70   H     H_    0.399278 0.827692 0.427785 0.159231
H71   H     H_    0.100709 0.327718 0.572209 0.159262
H72   H     H_    0.899279 0.327667 0.427778 0.159153
C77   C     C_3   0.563797 0.907553 0.472554 -0.236845
C78   C     C_3   0.436204 0.907587 0.527405 -0.236924
C79   C     C_3   0.063791 0.407564 0.472549 -0.236829
C80   C     C_3   0.936198 0.407572 0.527403 -0.236890
C81   C     C_3   0.440661 0.887107 0.445527 -0.259485
C82   C     C_3   0.559336 0.887101 0.554441 -0.259544
C83   C     C_3   0.940657 0.387093 0.445523 -0.259501
C84   C     C_3   0.059331 0.387123 0.554436 -0.259537
C85   C     C_3   0.510641 0.831189 0.430846 0.046458
C86   C     C_3   0.489348 0.831218 0.569140 0.046500
C87   C     C_3   0.010640 0.331188 0.430844 0.046451
C88   C     C_3   0.989349 0.331217 0.569138 0.046506
H73   H     H_    0.435875 0.972104 0.416058 0.115974
H74   H     H_    0.564129 0.972103 0.583873 0.115791
H75   H     H_    0.935869 0.472089 0.416054 0.115888
H76   H     H_    0.064115 0.472131 0.583863 0.115755
H77   H     H_    0.450961 0.000768 0.536965 0.129445
H78   H     H_    0.549045 0.000730 0.462952 0.129503
H79   H     H_    0.950941 0.500760 0.536962 0.129443
H80   H     H_    0.049036 0.500737 0.462942 0.129507
C89   C     C_3   0.178669 0.646256 0.459893 -0.271202
C90   C     C_3   0.821331 0.646295 0.540095 -0.271191
C91   C     C_3   0.678675 0.146254 0.459894 -0.271153
C92   C     C_3   0.321336 0.146291 0.540099 -0.271172
H81   H     H_    0.128543 0.610749 0.446993 0.146906
H82   H     H_    0.871464 0.610816 0.553024 0.146977
H83   H     H_    0.628544 0.110763 0.446987 0.146943
H84   H     H_    0.371460 0.110768 0.553017 0.147009
H85   H     H_    0.178237 0.735109 0.434244 0.117941
H86   H     H_    0.821742 0.735162 0.565701 0.117846
H87   H     H_    0.678257 0.235111 0.434249 0.117901
H88   H     H_    0.321768 0.235153 0.565713 0.117792
C93   C     C_3   0.184424 0.659625 0.539090 -0.237365
C94   C     C_3   0.815584 0.659623 0.460894 -0.237406
C95   C     C_3   0.684423 0.159611 0.539092 -0.237418
C96   C     C_3   0.315579 0.159633 0.460898 -0.237454
H89   H     H_    0.177662 0.752437 0.552793 0.160858
H90   H     H_    0.822359 0.752434 0.447144 0.160967
H91   H     H_    0.677658 0.252421 0.552800 0.160853
H92   H     H_    0.322341 0.252450 0.447154 0.160907
H93   H     H_    0.139787 0.616610 0.565218 0.134012
H94   H     H_    0.860223 0.616588 0.434797 0.134044
H95   H     H_    0.639783 0.116591 0.565213 0.134029
H96   H     H_    0.360218 0.116613 0.434791 0.134106
H97   H     H_    0.717206 0.878005 0.456869 0.089819
H98   H     H_    0.282778 0.878049 0.543250 0.089955
H99   H     H_    0.217207 0.378033 0.456872 0.089793
H100  H     H_    0.782790 0.378038 0.543238 0.089867
H101  H     H_    0.695344 0.940318 0.579768 0.123113
H102  H     H_    0.304651 0.940329 0.420317 0.123206
H103  H     H_    0.195349 0.440340 0.579764 0.123019
H104  H     H_    0.804656 0.440321 0.420302 0.123117
C97   C     C_3   0.247506 0.451874 0.475242 -0.237212
C98   C     C_3   0.752506 0.451879 0.524819 -0.237140
C99   C     C_3   0.747500 0.951854 0.475244 -0.237195
C100  C     C_3   0.252493 0.951895 0.524831 -0.237105
C101  C     C_3   0.302578 0.645118 0.441059 0.067998
C102  C     C_3   0.697408 0.645098 0.558913 0.068003
C103  C     C_3   0.802590 0.145075 0.441066 0.068045
C104  C     C_3   0.197417 0.145145 0.558920 0.068044
C105  C     C_3   0.238376 0.569572 0.430553 0.060030
C106  C     C_3   0.761625 0.569597 0.569454 0.060203
C107  C     C_3   0.738378 0.069556 0.430556 0.060121
C108  C     C_3   0.261621 0.069617 0.569461 0.060410
H105  H     H_    0.291575 0.738035 0.425668 0.099560
H106  H     H_    0.708392 0.738022 0.574285 0.099453
H107  H     H_    0.791604 0.237989 0.425656 0.099501
H108  H     H_    0.208421 0.238070 0.574268 0.099423
C109  C     C_3   0.252508 0.604992 0.567705 0.030615
C110  C     C_3   0.747498 0.604965 0.432294 0.030349
C111  C     C_3   0.752503 0.104974 0.567710 0.030348
C112  C     C_3   0.247492 0.104973 0.432302 0.030183
C113  C     C_3   0.244263 0.472026 0.556884 -0.280320
C114  C     C_3   0.755745 0.472003 0.443169 -0.280340
C115  C     C_3   0.744257 0.972006 0.556888 -0.280264
C116  C     C_3   0.255737 0.972013 0.443180 -0.280341
C117  C     C_3   0.317526 0.642331 0.522557 -0.224879
C118  C     C_3   0.682472 0.642296 0.477413 -0.224908
C119  C     C_3   0.817524 0.142311 0.522568 -0.224933
C120  C     C_3   0.182469 0.142316 0.477423 -0.224985
H109  H     H_    0.340027 0.725072 0.541014 0.082834
H110  H     H_    0.659964 0.725020 0.458913 0.082799
H111  H     H_    0.840020 0.225057 0.541020 0.082778
H112  H     H_    0.159964 0.225038 0.458915 0.082778
H113  H     H_    0.355834 0.571719 0.531952 0.158290
H114  H     H_    0.644165 0.571676 0.468028 0.158371
H115  H     H_    0.855834 0.071709 0.531982 0.158339
H116  H     H_    0.144161 0.071691 0.468055 0.158294
H117  H     H_    0.299509 0.421932 0.465753 0.184546
H118  H     H_    0.700507 0.421930 0.534325 0.184631
H119  H     H_    0.799500 0.921901 0.465755 0.184580
H120  H     H_    0.200487 0.921970 0.534338 0.184610
H121  H     H_    0.285978 0.423385 0.584521 0.119313
H122  H     H_    0.714027 0.423351 0.415556 0.119433
H123  H     H_    0.785973 0.923368 0.584525 0.119444
H124  H     H_    0.214020 0.923361 0.415564 0.119520
H125  H     H_    0.291131 0.740328 0.086202 0.109790
H126  H     H_    0.714187 0.747323 0.918802 0.110897
H127  H     H_    0.786687 0.245681 0.081074 0.111190
H128  H     H_    0.222219 0.259325 0.917745 0.110328
N1    N     N_R   0.359484 0.604299 0.395501 0.035930
O53   O     O_R   0.373975 0.663216 0.337493 -0.355332
O54   O     O_R   0.389574 0.502639 0.405883 -0.386366
N2    N     N_R   0.640499 0.604215 0.604468 0.035899
O55   O     O_R   0.626055 0.662990 0.662527 -0.355395
O56   O     O_R   0.610361 0.502603 0.594021 -0.386549
N3    N     N_R   0.859498 0.104201 0.395530 0.035943
O57   O     O_R   0.873990 0.163039 0.337492 -0.355304
O58   O     O_R   0.889610 0.002588 0.405980 -0.386478
N4    N     N_R   0.140511 0.104326 0.604499 0.035886
O59   O     O_R   0.126051 0.163218 0.662503 -0.356215
O60   O     O_R   0.110403 0.002673 0.594144 -0.386385

loop_
_geom_bond_atom_site_label_1
_geom_bond_atom_site_label_2
_geom_bond_distance
_ccdc_geom_bond_type
N4    O60   1.302493 A    
O4    C12   1.293471 A    
C97   H117  1.084177 S    
O39   C19   1.297983 A    
C102  C106  1.528823 S    
C99   H119  1.084165 S    
C80   C83   1.550874 S    
Cr7   O51   2.044629 S    
C93   H89   1.084945 S    
H71   C84   1.101605 S    
C99   C107  1.578079 S    
C54   C58   1.523309 S    
O25   C21   1.286275 A    
C31   H3    1.096049 S    
C75   H63   1.085488 S    
C53   C69   1.546353 S    
C12   C64   1.495053 S    
C73   H61   1.085535 S    
C91   C95   1.493525 S    
C1    O9    1.292881 A    
O44   Cr12  2.100426 S    
C78   C86   1.559704 S    
C3    O11   1.286366 A    
C4    O12   1.290416 A    
C25   C34   1.527648 S    
C24   C112  1.482518 S    
C4    C57   1.488421 S    
C76   H64   1.085480 S    
C29   C38   1.534091 S    
C74   C86   1.537756 S    
O2    C10   1.290393 A    
C103  H107  1.107194 S    
C56   H128  1.109088 S    
C100  C116  1.544861 S    
O17   Cr9   2.122616 S    
C46   H22   1.109088 S    
C103  C119  1.553305 S    
C53   H125  1.109953 S    
C55   H127  1.105446 S    
C61   C65   1.529100 S    
C62   C70   1.561521 S    
O16   Cr8   1.996966 S    
C54   C70   1.546081 S    
C63   C67   1.530163 S    
C22   C110  1.482459 S    
C93   H93   1.109236 S    
C117  H109  1.087640 S    
O28   Cr4   2.114276 S    
C53   H37   1.113217 S    
N2    O55   1.302172 A    
O12   Cr8   2.104713 S    
O22   Cr10  1.980175 S    
O15   C7    1.330911 A    
C80   C88   1.559702 S    
C102  C118  1.553315 S    
O46   Cr10  1.998882 S    
C103  N3    1.471735 S    
C56   C60   1.523387 S    
O48   C24   1.303998 A    
C7    C35   1.480539 S    
C91   H87   1.110277 S    
C76   C88   1.537784 S    
C45   H21   1.113341 S    
C42   C58   1.554736 S    
C104  N4    1.471795 S    
H100  C98   1.078104 S    
C46   H26   1.112382 S    
C96   C112  1.561616 S    
O31   Cr3   1.985095 S    
C71   H47   1.109128 S    
C72   H48   1.109969 S    
C25   H5    1.110032 S    
Cr12  O52   2.044271 S    
C26   C33   1.529974 S    
C27   H7    1.108594 S    
O7    Cr3   1.992998 S    
C17   O41   1.292082 A    
C43   H15   1.090152 S    
C13   C108  1.471361 S    
C30   C37   1.535914 S    
C19   O43   1.292085 A    
C20   O44   1.292112 A    
C117  H113  1.106679 S    
H104  C114  1.104501 S    
Cr8   O52   2.044719 S    
C79   C84   1.550824 S    
C89   C93   1.493534 S    
O46   C22   1.304005 A    
C19   C88   1.484513 S    
C28   H8    1.108264 S    
C75   C76   1.482237 S    
C83   H75   1.109140 S    
H31   C49   1.086053 S    
C45   H25   1.101593 S    
C112  C120  1.579299 S    
C43   C59   1.553618 S    
C73   C74   1.482248 S    
C44   C60   1.555224 S    
O27   C23   1.286285 A    
C78   H77   1.103744 S    
O31   C15   1.297239 A    
C82   H74   1.109105 S    
C96   H92   1.085032 S    
H101  C115  1.104528 S    
H102  C116  1.104517 S    
N3    O58   1.302370 A    
O47   Cr11  1.999069 S    
H103  C113  1.104525 S    
O21   C9    1.297272 A    
C92   C96   1.493497 S    
C39   C40   1.534579 S    
H97   C99   1.078104 S    
C65   H53   1.112397 S    
H98   C100  1.078158 S    
C70   H46   1.109635 S    
C50   C66   1.541367 S    
C68   H56   1.113211 S    
C101  C117  1.553293 S    
C49   C65   1.531747 S    
O24   C12   1.297748 A    
C50   H52   1.115182 S    
C52   C68   1.538336 S    
N1    O54   1.302446 A    
C28   C32   1.547227 S    
C51   C67   1.539558 S    
C42   H14   1.091763 S    
O32   Cr4   1.985647 S    
C26   H6    1.105768 S    
C89   H81   1.085472 S    
C46   C62   1.551501 S    
C10   C62   1.494820 S    
C110  C118  1.579280 S    
O11   Cr7   2.105158 S    
C98   H118  1.084111 S    
C43   C47   1.539474 S    
O27   Cr3   2.114820 S    
C41   C45   1.544703 S    
C38   H10   1.107975 S    
O8    C4    1.304594 A    
C47   C63   1.551134 S    
C104  H108  1.107201 S    
C18   C85   1.484437 S    
C75   H59   1.077093 S    
C32   C39   1.535742 S    
O22   C10   1.301624 A    
C55   C59   1.524520 S    
C79   H80   1.103727 S    
C120  H112  1.087679 S    
C52   H50   1.114955 S    
C2    O10   1.285568 A    
C27   C28   1.552632 S    
C1    C60   1.484315 S    
C55   H39   1.112829 S    
C51   C59   1.564154 S    
O5    C1    1.303302 A    
O3    C11   1.290155 A    
C48   H24   1.106876 S    
C100  C108  1.578084 S    
C101  H105  1.107200 S    
Cr1   O49   2.046921 S    
C90   H86   1.110280 S    
C54   H126  1.104054 S    
Cr3   O51   2.046921 S    
C62   C66   1.532472 S    
C93   C109  1.561508 S    
C20   C87   1.484417 S    
C29   H1    1.088744 S    
C40   H12   1.108545 S    
C63   C71   1.560214 S    
O26   Cr2   2.114276 S    
C97   C105  1.578079 S    
C64   C72   1.556304 S    
C5    O17   1.309727 A    
O29   C13   1.297265 A    
O28   C24   1.286201 A    
C118  H110  1.087674 S    
C35   C39   1.533632 S    
C54   H38   1.112967 S    
C9    C61   1.492094 S    
C8    O20   1.307604 A    
C77   C82   1.550856 S    
C95   H91   1.084956 S    
C14   C107  1.471538 S    
O40   Cr8   1.982833 S    
C23   C111  1.482582 S    
O41   Cr9   2.100208 S    
H66   C78   1.079856 S    
C74   H58   1.077094 S    
Cr5   O49   2.044629 S    
C32   H4    1.099717 S    
O33   Cr5   2.115981 S    
O5    Cr1   1.992998 S    
O35   Cr7   2.115981 S    
C47   H27   1.112446 S    
O29   Cr1   1.985095 S    
O32   C16   1.297389 A    
C72   H44   1.091442 S    
C11   C63   1.492241 S    
C41   H17   1.109677 S    
Cr9   O49   2.044373 S    
C81   H73   1.109136 S    
C43   H19   1.110529 S    
C18   O42   1.292117 A    
Cr11  O51   2.044373 S    
O26   C22   1.286179 A    
O20   Cr12  2.122471 S    
C91   C107  1.550262 S    
C118  H114  1.106705 S    
H33   C67   1.099332 S    
C15   C106  1.471350 S    
C113  H121  1.110953 S    
H70   C81   1.101606 S    
C16   O36   1.281568 A    
C31   C40   1.533714 S    
C94   H90   1.085021 S    
C101  N1    1.471754 S    
C30   H2    1.095124 S    
C74   H62   1.085502 S    
C80   H79   1.103732 S    
C84   H76   1.109108 S    
N2    O56   1.302620 A    
C90   H82   1.085597 S    
H30   C52   1.076111 S    
C95   C111  1.561494 S    
C77   C85   1.559737 S    
O6    Cr2   1.992462 S    
C8    C36   1.481104 S    
C70   H42   1.083200 S    
C76   H60   1.077070 S    
C73   C85   1.537632 S    
N4    O59   1.302046 A    
O42   Cr10  2.100426 S    
H65   C77   1.079857 S    
O18   Cr10  2.122471 S    
O14   C6    1.329873 A    
C81   C85   1.528921 S    
O34   Cr6   2.116314 S    
C26   C30   1.547780 S    
C17   C86   1.484493 S    
C109  C113  1.520789 S    
O24   Cr12  1.980175 S    
O30   Cr2   1.985647 S    
C111  C115  1.520810 S    
O48   Cr12  1.998882 S    
C112  C116  1.520774 S    
O37   C17   1.297975 A    
C15   O35   1.281530 A    
C94   H94   1.109264 S    
C111  C119  1.579301 S    
Cr10  O50   2.044271 S    
O40   C20   1.297833 A    
O43   Cr11  2.100208 S    
C103  C107  1.528775 S    
O21   Cr9   1.979902 S    
C42   C46   1.539673 S    
O39   Cr7   1.983193 S    
C98   C114  1.544855 S    
O45   Cr9   1.999069 S    
C13   O33   1.281504 A    
C104  C108  1.528800 S    
C89   C105  1.550257 S    
H67   C79   1.079871 S    
C67   H55   1.109376 S    
O15   Cr7   1.996702 S    
C31   C35   1.538095 S    
C49   H51   1.114682 S    
O30   C14   1.297369 A    
O23   C11   1.300156 A    
C120  H116  1.106706 S    
C55   C71   1.544643 S    
C51   H49   1.115004 S    
C66   H54   1.111344 S    
C56   C72   1.541024 S    
C50   C58   1.561986 S    
C91   H83   1.085519 S    
C27   C36   1.529042 S    
C115  H123  1.110950 S    
O6    C2    1.305029 A    
C44   H20   1.108758 S    
H72   C83   1.101634 S    
C48   H28   1.112786 S    
C102  N2    1.471807 S    
C101  C105  1.528774 S    
O1    Cr1   2.105534 S    
C102  H106  1.107226 S    
O19   Cr11  2.122616 S    
C37   C38   1.536173 S    
C90   C94   1.493469 S    
N1    O53   1.302060 A    
C33   C37   1.537175 S    
C98   C106  1.578066 S    
O45   C21   1.303983 A    
C94   C110  1.561624 S    
O47   C23   1.303994 A    
C53   C57   1.518993 S    
O13   C5    1.329206 A    
C83   C87   1.528908 S    
N3    O57   1.302091 A    
C36   C40   1.534170 S    
C64   C68   1.523467 S    
C6    O18   1.311806 A    
C21   C109  1.482576 S    
C92   C108  1.550201 S    
C25   C26   1.549749 S    
O36   Cr8   2.116314 S    
C49   C57   1.558478 S    
C2    C59   1.479972 S    
C5    C33   1.486319 S    
C77   H78   1.103733 S    
C3    C58   1.481219 S    
O38   Cr6   1.982833 S    
C95   H95   1.109235 S    
C52   C60   1.551807 S    
H34   C68   1.102076 S    
C119  H111  1.087629 S    
O8    Cr4   1.992462 S    
C100  H120  1.084169 S    
O1    C9    1.295682 A    
O7    C3    1.305683 A    
H69   C82   1.101653 S    
C47   H23   1.110407 S    
C61   C69   1.548002 S    
O23   Cr11  1.979902 S    
C41   H13   1.085048 S    
C29   C33   1.542369 S    
C116  H124  1.110948 S    
O16   C8    1.331094 A    
H32   C50   1.084437 S    
C7    O19   1.306722 A    
C119  H115  1.106663 S    
Cr4   O52   2.046915 S    
O2    Cr2   2.106125 S    
C37   H9    1.109762 S    
C16   C105  1.471529 S    
Cr6   O50   2.044719 S    
O10   Cr6   2.104713 S    
C114  H122  1.110937 S    
H68   C80   1.079806 S    
C25   C29   1.540745 S    
O13   Cr5   1.996702 S    
C82   C86   1.528840 S    
O9    Cr5   2.105158 S    
C41   C57   1.560769 S    
C71   H43   1.082043 S    
C6    C34   1.479089 S    
C27   C31   1.547212 S    
C92   H84   1.085587 S    
H99   C97   1.078069 S    
C28   C35   1.529104 S    
H36   C66   1.099054 S    
C69   H41   1.089486 S    
Cr2   O50   2.046915 S    
C89   H85   1.110268 S    
O14   Cr6   1.996966 S    
C110  C114  1.520781 S    
O37   Cr5   1.983193 S    
C84   C88   1.528849 S    
O3    Cr3   2.105534 S    
H29   C51   1.085900 S    
O38   C18   1.297834 A    
O25   Cr1   2.114820 S    
C30   C34   1.538597 S    
C44   C48   1.545516 S    
C48   C64   1.556119 S    
C78   C81   1.550859 S    
C79   C87   1.559712 S    
C96   H96   1.109276 S    
C97   C113  1.544887 S    
C14   O34   1.281592 A    
C90   C106  1.550210 S    
C92   H88   1.110312 S    
C104  C120  1.553299 S    
C75   C87   1.537627 S    
C73   H57   1.077116 S    
C69   H45   1.097415 S    
O4    Cr4   2.106125 S    
C99   C115  1.544915 S    
C44   H16   1.100936 S    
C56   H40   1.111538 S    
C34   C38   1.530183 S    
C45   C61   1.551771 S    
C32   C36   1.539836 S    
C39   H11   1.108206 S    
C42   H18   1.112071 S    
H35   C65   1.108776 S    
C109  C117  1.579321 S    
