data_mof_unit_28446.cif
_audit_creation_date              2012-12-10T17:18:58-0500
_audit_creation_method            fapswitch 2.2
_symmetry_space_group_name_H-M    P1
_symmetry_Int_Tables_number       1
_space_group_crystal_system       triclinic
_cell_length_a                    9.582426
_cell_length_b                    10.864939
_cell_length_c                    13.488835
_cell_angle_alpha                 91.632888
_cell_angle_beta                  72.276713
_cell_angle_gamma                 89.515434
_cell_volume                      1336.94253347

loop_
_atom_site_label
_atom_site_type_symbol
_atom_type_description
_atom_site_fract_x
_atom_site_fract_y
_atom_site_fract_z
_atom_type_partial_charge
C1    C     C_R   0.502086 0.737069 0.491650 0.819480
C2    C     C_R   0.440012 0.498838 0.977111 0.071828
C3    C     C_R   0.474241 0.459693 0.870953 0.012317
C4    C     C_R   0.549034 0.486527 0.028497 0.061528
C5    C     C_R   0.693266 0.445183 0.971494 0.094363
C6    C     C_R   0.721320 0.398245 0.868986 -0.099142
C7    C     C_R   0.606505 0.392073 0.825013 -0.076551
C8    C     C_R   0.517724 0.510521 0.135907 -0.236791
C9    C     C_R   0.768690 0.466614 0.127866 -0.211254
C10   C     C_R   0.374230 0.488666 0.814829 -0.101587
C11   C     C_R   0.252792 0.884670 0.456788 -0.149671
C12   C     C_R   0.421530 0.493177 0.699875 0.813303
C13   C     C_R   0.117489 0.945723 0.481589 -0.154831
C14   C     C_R   0.098441 0.059746 0.533368 -0.113009
C15   C     C_R   0.218386 0.118008 0.550520 -0.134960
C16   C     C_R   0.360596 0.063056 0.514715 0.078312
C17   C     C_R   0.371885 0.937667 0.483554 0.105074
C18   C     C_R   0.501246 0.871029 0.481519 -0.122257
C19   C     C_R   0.626988 0.934916 0.482665 -0.210887
C20   C     C_R   0.624136 0.062013 0.490130 -0.179556
C21   C     C_R   0.491961 0.127655 0.507745 -0.093445
C22   C     C_R   0.915366 0.337700 0.362451 -0.164939
C23   C     C_R   0.497326 0.262318 0.504762 0.789028
C24   C     C_R   0.016194 0.256970 0.295799 -0.225273
C25   C     C_R   0.159756 0.255690 0.296098 -0.191705
C26   C     C_R   0.203392 0.335348 0.362838 -0.137165
C27   C     C_R   0.104191 0.419310 0.432615 0.182064
C28   C     C_R   0.954576 0.419870 0.432494 0.208761
C29   C     C_R   0.896993 0.575960 0.564374 -0.098565
C30   C     C_R   0.044763 0.576310 0.564587 0.035617
C31   C     C_R   0.578693 0.500948 0.300143 0.766893
C32   C     C_R   0.803149 0.441818 0.021413 -0.183055
C33   C     C_R   0.624326 0.495647 0.186110 -0.040842
C34   C     C_R   0.232714 0.532196 0.869233 -0.158552
C35   C     C_R   0.194614 0.560099 0.974999 -0.159645
C36   C     C_R   0.297698 0.548423 0.027761 -0.158467
Cu1   Cu    Cu3+1 0.359340 0.500010 0.500010 0.939198
Cu2   Cu    Cu3+1 0.640660 0.499990 0.499990 0.942792
H1    H     H_    0.853348 0.456634 0.165184 0.157013
H2    H     H_    0.263007 0.797984 0.413829 0.155171
H3    H     H_    0.026458 0.902970 0.463050 0.127982
H4    H     H_    0.991494 0.104566 0.558052 0.153328
H5    H     H_    0.196473 0.204393 0.594243 0.188862
H6    H     H_    0.725636 0.108723 0.484357 0.172325
H7    H     H_    0.817309 0.638004 0.616799 0.148407
H8    H     H_    0.808514 0.331601 0.355355 0.200339
H9    H     H_    0.982425 0.195072 0.243375 0.155443
H10   H     H_    0.238404 0.192595 0.244001 0.155095
H11   H     H_    0.316226 0.326139 0.355717 0.201717
H12   H     H_    0.914767 0.413681 0.979848 0.152503
H13   H     H_    0.408603 0.534602 0.183824 0.150314
H14   H     H_    0.153079 0.550944 0.829120 0.172408
H15   H     H_    0.261917 0.580825 0.107771 0.124081
H16   H     H_    0.086321 0.597177 0.015485 0.146534
H17   H     H_    0.728609 0.886695 0.477226 0.160235
N1    N     N_R   0.852480 0.498790 0.499000 -0.202794
N2    N     N_R   0.148360 0.498710 0.498970 -0.224021
O1    O     O_R   0.381190 0.680360 0.500010 -0.583758
O2    O     O_R   0.618760 0.680340 0.500000 -0.581125
O3    O     O_R   0.323240 0.499990 0.650990 -0.568167
O4    O     O_R   0.560820 0.499960 0.650980 -0.571788
O5    O     O_R   0.381240 0.319660 0.500000 -0.618261
O6    O     O_R   0.618810 0.319640 0.499990 -0.587344
O7    O     O_R   0.439180 0.500040 0.349020 -0.611584
O8    O     O_R   0.676760 0.500010 0.349010 -0.603227
C37   C     C_1   0.864576 0.347410 0.810809 0.228285
N3    N     N_1   0.978759 0.307240 0.764389 -0.309558
C38   C     C_1   0.084010 0.660704 0.635326 0.297338
N4    N     N_1   0.114619 0.729238 0.692316 -0.291527
C39   C     C_1   0.612720 0.293497 0.749322 0.286522
N5    N     N_1   0.618701 0.212202 0.691018 -0.299157

loop_
_geom_bond_atom_site_label_1
_geom_bond_atom_site_label_2
_ccdc_geom_bond_type
C2    C4    A    
C31   C33   S    
Cu1   N2    S    
C16   C21   A    
C29   N1    A    
C34   H14   S    
Cu1   O1    S    
C25   H10   S    
Cu2   O8    S    
C14   H4    S    
C4    C8    A    
Cu2   O4    S    
C5    C32   A    
C7    C39   S    
C13   H3    S    
Cu1   O5    S    
C1    C18   S    
C15   H5    S    
C10   C34   A    
C3    C10   A    
C22   C28   A    
C13   C14   A    
C20   C21   A    
C35   H16   S    
C9    C33   A    
C12   O4    A    
C11   C13   A    
C8    H13   S    
C32   H12   S    
C26   C27   A    
C29   C30   A    
C6    C37   S    
C10   C12   S    
C23   O6    A    
C22   H8    S    
Cu1   Cu2   S    
C37   N3    T    
C6    C7    A    
C3    C7    A    
C8    C33   A    
C1    O2    A    
C21   C23   S    
C28   N1    A    
C5    C6    A    
C38   N4    T    
C22   C24   A    
Cu1   O3    S    
C39   N5    T    
C15   C16   A    
C2    C36   A    
Cu2   O2    S    
C12   O3    A    
C30   N2    A    
C1    O1    A    
C9    H1    S    
Cu1   O7    S    
Cu2   N1    S    
C24   C25   A    
C17   C18   A    
C34   C35   A    
C27   N2    A    
C26   H11   S    
C19   H17   S    
C27   C28   A    
C31   O8    A    
C14   C15   A    
C18   C19   A    
C2    C3    A    
C36   H15   S    
C9    C32   A    
C20   H6    S    
C25   C26   A    
Cu2   O6    S    
C24   H9    S    
C31   O7    A    
C11   H2    S    
C23   O5    A    
C30   C38   S    
C19   C20   A    
C16   C17   A    
C29   H7    S    
C4    C5    A    
C35   C36   A    
C11   C17   A    
