data_mof_unit_28165.cif
_audit_creation_date              2012-12-11T15:54:48-0500
_audit_creation_method            fapswitch 2.2
_symmetry_space_group_name_H-M    P1
_symmetry_Int_Tables_number       1
_space_group_crystal_system       triclinic
_cell_length_a                    6.930622
_cell_length_b                    14.531277
_cell_length_c                    16.099016
_cell_angle_alpha                 89.938729
_cell_angle_beta                  90.053958
_cell_angle_gamma                 90.0782
_cell_volume                      1621.34143448

loop_
_atom_site_label
_atom_site_type_symbol
_atom_type_description
_atom_site_fract_x
_atom_site_fract_y
_atom_site_fract_z
_atom_type_partial_charge
O1    O     O_R   0.638180 0.333920 0.163320 -0.544366
O2    O     O_R   0.361820 0.666080 0.836680 -0.544366
O3    O     O_R   0.308470 0.344960 0.336080 -0.546922
O4    O     O_R   0.691530 0.655040 0.663920 -0.546922
O5    O     O_R   0.138140 0.166110 0.336680 -0.540326
O6    O     O_R   0.861860 0.833890 0.663320 -0.540326
C1    C     C_R   0.477601 0.367099 0.365125 0.675124
C2    C     C_R   0.522399 0.632901 0.634875 0.675125
O7    O     O_R   0.308460 0.344950 0.163930 -0.547673
O8    O     O_R   0.691540 0.655050 0.836070 -0.547673
O9    O     O_R   0.138140 0.166100 0.163310 -0.543538
O10   O     O_R   0.861860 0.833900 0.836690 -0.543538
C3    C     C_R   0.477525 0.367206 0.134993 0.693063
C4    C     C_R   0.522475 0.632794 0.865007 0.693063
O11   O     O_R   0.638180 0.333930 0.336700 -0.550022
O12   O     O_R   0.361820 0.666070 0.663300 -0.550022
O13   O     O_3   0.471670 0.191340 0.250000 -0.346332
O14   O     O_3   0.528330 0.808660 0.750000 -0.346332
V1    V     V_3+5 0.196830 0.260900 0.250000 1.441794
V2    V     V_3+5 0.803170 0.739100 0.750000 1.441794
O15   O     O_R   0.808420 0.155070 0.163920 -0.498717
O16   O     O_R   0.191580 0.844930 0.836080 -0.498717
C5    C     C_R   0.977130 0.132529 0.135200 0.779074
C6    C     C_R   0.022870 0.867471 0.864800 0.779074
O17   O     O_R   0.808420 0.155080 0.336070 -0.537216
O18   O     O_R   0.191580 0.844920 0.663930 -0.537216
C7    C     C_R   0.977270 0.133078 0.364655 0.683868
C8    C     C_R   0.022729 0.866921 0.635345 0.683868
V3    V     V_3+5 0.696830 0.239130 0.250000 1.510239
V4    V     V_3+5 0.303170 0.760870 0.750000 1.510239
O19   O     O_3   0.971850 0.308690 0.250010 -0.386702
O20   O     O_3   0.028150 0.691310 0.749990 -0.386702
C9    C     C_R   0.826983 0.173795 0.528412 -0.256278
C10   C     C_R   0.173017 0.826205 0.471588 -0.256278
C11   C     C_R   0.754658 0.195948 0.606556 -0.206191
C12   C     C_R   0.245342 0.804052 0.393444 -0.206191
C13   C     C_R   0.767071 0.132934 0.671321 0.693882
C14   C     C_R   0.232929 0.867066 0.328679 0.693882
C15   C     C_R   0.851924 0.047255 0.658358 -0.214715
C16   C     C_R   0.148076 0.952745 0.341642 -0.214715
C17   C     C_R   0.924588 0.022213 0.579376 -0.022623
C18   C     C_R   0.075412 0.977787 0.420624 -0.022623
C19   C     C_R   0.911908 0.086880 0.512967 0.075066
C20   C     C_R   0.088092 0.913119 0.487033 0.075066
C21   C     C_R   0.012614 0.935255 0.566470 -0.115067
C22   C     C_R   0.987386 0.064745 0.433530 -0.115067
H1    H     H_    0.816675 0.226024 0.480728 0.136590
H2    H     H_    0.183325 0.773976 0.519272 0.136589
H3    H     H_    0.689982 0.262740 0.616962 0.151768
H4    H     H_    0.310018 0.737260 0.383038 0.151768
H5    H     H_    0.861375 0.001461 0.711199 0.141600
H6    H     H_    0.138625 0.998539 0.288801 0.141600
C23   C     C_R   0.175285 0.987437 0.958300 0.678004
C24   C     C_R   0.824715 0.012563 0.041700 0.678004
C25   C     C_R   0.162247 0.050458 0.023758 -0.236568
C26   C     C_R   0.837753 0.949542 0.976242 -0.236568
H7    H     H_    0.289786 0.089410 0.040465 0.219127
H8    H     H_    0.710214 0.910590 0.959535 0.219127
C27   C     C_R   0.987443 0.064136 0.066390 -0.288342
C28   C     C_R   0.012557 0.935864 0.933610 -0.288342
C29   C     C_R   0.321414 0.478144 0.464611 -0.145869
C30   C     C_R   0.678586 0.521856 0.535389 -0.145869
H9    H     H_    0.181328 0.462526 0.438288 0.117624
H10   H     H_    0.818672 0.537474 0.561712 0.117624
C31   C     C_R   0.332456 0.541925 0.529630 -0.154396
C32   C     C_R   0.667544 0.458075 0.470370 -0.154396
H11   H     H_    0.200410 0.573649 0.551194 0.115131
H12   H     H_    0.799590 0.426351 0.448806 0.115131
C33   C     C_R   0.511179 0.564619 0.566012 -0.041779
C34   C     C_R   0.488821 0.435381 0.433988 -0.041779
C35   C     C_R   0.320488 0.474714 0.032481 -0.135326
C36   C     C_R   0.679512 0.525286 0.967519 -0.135326
H13   H     H_    0.179697 0.456263 0.056420 0.115984
H14   H     H_    0.820303 0.543737 0.943580 0.115984
C37   C     C_R   0.331615 0.538296 0.967249 -0.128625
C38   C     C_R   0.668385 0.461704 0.032751 -0.128624
H15   H     H_    0.198840 0.567041 0.943107 0.116904
H16   H     H_    0.801160 0.432959 0.056893 0.116904
C39   C     C_R   0.511281 0.564452 0.933832 -0.045575
C40   C     C_R   0.488719 0.435548 0.066168 -0.045574
F1    F     F_    0.301874 0.844773 0.252516 -0.661415
F2    F     F_    0.698126 0.155227 0.747484 -0.661415
F3    F     F_    0.347050 0.978353 0.918749 -0.650260
F4    F     F_    0.652950 0.021647 0.081251 -0.650260

loop_
_geom_bond_atom_site_label_1
_geom_bond_atom_site_label_2
_ccdc_geom_bond_type
C29   C34   A    
C15   H5    S    
C25   C27   A    
O13   V3    S    
C32   H12   S    
O4    C2    A    
V1    O19   S    
C1    C34   S    
C24   F4    S    
C15   C17   A    
C5    C27   S    
O9    V1    S    
C2    C33   S    
C11   C13   A    
C38   H16   S    
C36   C39   A    
O3    C1    A    
O12   V4    S    
C18   C22   A    
C29   H9    S    
O7    C3    A    
C30   H10   S    
C9    C11   A    
O5    C7    A    
O7    V1    S    
O6    C8    A    
O8    V2    S    
C31   H11   S    
C11   H3    S    
O3    V1    S    
O14   V4    S    
V4    O20   S    
C10   C12   A    
C36   C38   A    
C16   C18   A    
C3    C40   S    
C2    O12   A    
C17   C19   A    
C18   C20   A    
C35   C40   A    
C23   C28   A    
O11   V3    S    
C24   C27   A    
C23   C25   A    
O15   C5    A    
O17   V3    S    
C24   C26   A    
C8    C21   S    
C35   C37   A    
C30   C32   A    
C9    C19   A    
C10   C20   A    
C36   H14   S    
O8    C4    A    
C35   H13   S    
C1    O11   A    
C16   H6    S    
O15   V3    S    
C26   C28   A    
C30   C33   A    
C6    C28   S    
O10   V2    S    
O1    V3    S    
C4    C39   S    
C37   H15   S    
C7    C22   S    
O18   V4    S    
C25   H7    S    
C14   F1    S    
C9    H1    S    
O16   C6    A    
C13   F2    S    
O1    C3    A    
C12   H4    S    
C20   C21   A    
V2    O20   S    
O16   V4    S    
C38   C40   A    
O5    V1    S    
O17   C7    A    
O6    V2    S    
O10   C6    A    
O18   C8    A    
C23   F3    S    
O2    V4    S    
C12   C14   A    
V3    O19   S    
C14   C16   A    
C32   C34   A    
C31   C33   A    
O9    C5    A    
O13   V1    S    
C26   H8    S    
O14   V2    S    
O2    C4    A    
C19   C22   A    
O4    V2    S    
C29   C31   A    
C10   H2    S    
C13   C15   A    
C17   C21   A    
C37   C39   A    
