data_mof_unit_47418.cif
_audit_creation_date              2012-12-11T15:17:42-0500
_audit_creation_method            fapswitch 2.2
_symmetry_space_group_name_H-M    P1
_symmetry_Int_Tables_number       1
_space_group_crystal_system       triclinic
_cell_length_a                    15.740435
_cell_length_b                    15.628631
_cell_length_c                    34.525356
_cell_angle_alpha                 90.094331
_cell_angle_beta                  89.769611
_cell_angle_gamma                 120.30272
_cell_volume                      7332.80333226

loop_
_atom_site_label
_atom_site_type_symbol
_atom_type_description
_atom_site_fract_x
_atom_site_fract_y
_atom_site_fract_z
_atom_type_partial_charge
C1    C     C_R   0.578602 0.441725 0.555370 0.577751
C2    C     C_R   0.557283 0.135345 0.554789 0.549919
C3    C     C_R   0.863612 0.421966 0.555031 0.583474
C4    C     C_R   0.442299 0.576559 0.054446 0.577979
C5    C     C_R   0.133610 0.556930 0.054199 0.549689
C6    C     C_R   0.422892 0.865302 0.054618 0.571050
C7    C     C_R   0.039444 0.557139 0.704883 0.346880
C8    C     C_R   0.455992 0.512562 0.703263 0.344540
C9    C     C_R   0.545032 0.029181 0.712858 0.353334
C10   C     C_R   0.503202 0.964031 0.213662 0.350611
C11   C     C_R   0.504481 0.458008 0.203443 0.343060
C12   C     C_R   0.949718 0.484411 0.203101 0.337100
C13   C     C_R   0.115549 0.491910 0.837228 0.048115
C14   C     C_R   0.493475 0.659680 0.835606 0.054032
C15   C     C_R   0.420028 0.971574 0.848322 0.048788
C16   C     C_R   0.441108 0.026655 0.349698 0.050386
C17   C     C_R   0.644334 0.511987 0.337492 0.048810
C18   C     C_R   0.833912 0.338131 0.336050 0.054200
C19   C     C_R   0.131193 0.492704 0.877194 -0.126581
C20   C     C_R   0.491194 0.670074 0.875838 -0.124067
C21   C     C_R   0.398675 0.943012 0.887188 -0.130496
C22   C     C_R   0.451844 0.057294 0.388286 -0.127517
C23   C     C_R   0.654218 0.507651 0.377497 -0.121999
C24   C     C_R   0.817817 0.327787 0.376081 -0.124337
C25   C     C_R   0.192713 0.669248 0.879503 -0.134934
C26   C     C_R   0.345504 0.507497 0.880818 -0.134309
C27   C     C_R   0.547030 0.933409 0.892496 -0.127888
C28   C     C_R   0.606230 0.059100 0.392780 -0.128851
C29   C     C_R   0.518258 0.338511 0.379119 -0.133159
C30   C     C_R   0.857591 0.498657 0.381348 -0.134944
C31   C     C_R   0.175919 0.669433 0.839897 -0.128675
C32   C     C_R   0.346213 0.496152 0.840847 -0.132151
C33   C     C_R   0.570643 0.964291 0.854212 -0.121592
C34   C     C_R   0.594636 0.024754 0.354812 -0.116312
C35   C     C_R   0.505491 0.342485 0.339343 -0.124645
C36   C     C_R   0.873852 0.510233 0.341593 -0.130169
C37   C     C_R   0.135087 0.581016 0.818759 0.024267
C38   C     C_R   0.420876 0.570341 0.818175 0.020892
C39   C     C_R   0.506914 0.981311 0.831643 0.014225
C40   C     C_R   0.514001 0.010756 0.332664 0.012651
C41   C     C_R   0.566141 0.429541 0.318451 0.016877
C42   C     C_R   0.863814 0.431360 0.318839 0.017566
C43   C     C_R   0.168721 0.580643 0.898626 -0.008735
C44   C     C_R   0.418943 0.593845 0.898667 -0.012265
C45   C     C_R   0.459078 0.919085 0.908816 -0.005067
C46   C     C_R   0.536495 0.078768 0.409305 -0.006215
C47   C     C_R   0.591218 0.421950 0.398634 -0.009737
C48   C     C_R   0.830514 0.407632 0.398886 -0.009993
C49   C     C_R   0.607307 0.418233 0.440416 0.528285
C50   C     C_R   0.557613 0.135676 0.445450 0.530531
C51   C     C_R   0.810878 0.392321 0.440589 0.531268
C52   C     C_R   0.417937 0.608224 0.940710 0.536153
C53   C     C_R   0.188832 0.581930 0.940358 0.526037
C54   C     C_R   0.422158 0.864102 0.945358 0.536898
C55   C     C_R   0.924246 0.459438 0.590682 -0.010075
C56   C     C_R   0.540128 0.467225 0.590425 -0.032318
C57   C     C_R   0.534524 0.078669 0.591693 -0.047778
C58   C     C_R   0.459802 0.922520 0.091371 -0.025910
C59   C     C_R   0.467200 0.534465 0.088492 -0.028603
C60   C     C_R   0.065357 0.530478 0.087931 -0.057584
C61   C     C_R   0.914098 0.392122 0.620282 0.045043
C62   C     C_R   0.604762 0.548498 0.614162 0.038632
C63   C     C_R   0.464297 0.077956 0.617858 -0.031696
C64   C     C_R   0.397061 0.942289 0.114583 0.025212
C65   C     C_R   0.555979 0.593341 0.109291 0.028504
C66   C     C_R   0.028845 0.437730 0.106846 -0.034194
C67   C     C_R   0.953984 0.427646 0.656618 -0.104191
C68   C     C_R   0.571299 0.565097 0.649023 -0.112195
C69   C     C_R   0.469629 0.059869 0.656930 -0.106501
C70   C     C_R   0.413977 0.955919 0.154387 -0.120993
C71   C     C_R   0.565994 0.564410 0.146334 -0.117278
C72   C     C_R   0.989325 0.424873 0.143968 -0.114145
C73   C     C_R   0.007685 0.528987 0.664498 -0.005825
C74   C     C_R   0.476017 0.501206 0.662423 -0.013240
C75   C     C_R   0.538493 0.036088 0.670604 0.004024
C76   C     C_R   0.495520 0.957940 0.171239 -0.016241
C77   C     C_R   0.493478 0.475487 0.162540 -0.013316
C78   C     C_R   0.979588 0.499321 0.162167 -0.008766
C79   C     C_R   0.026904 0.597570 0.634523 -0.029975
C80   C     C_R   0.408077 0.424760 0.638207 -0.025338
C81   C     C_R   0.597130 0.019793 0.644026 0.002686
C82   C     C_R   0.567247 0.955606 0.147499 -0.035410
C83   C     C_R   0.411304 0.409797 0.140465 -0.033372
C84   C     C_R   0.002480 0.586269 0.141693 -0.032340
C85   C     C_R   0.985076 0.562737 0.597486 -0.054906
C86   C     C_R   0.439537 0.408849 0.601823 -0.047173
C87   C     C_R   0.594450 0.040351 0.604347 -0.017932
C88   C     C_R   0.550334 0.939697 0.107393 -0.056001
C89   C     C_R   0.398014 0.438798 0.103318 -0.059375
C90   C     C_R   0.043970 0.601351 0.104292 -0.049695
C91   C     C_R   0.101346 0.579704 0.779155 0.375892
C92   C     C_R   0.430595 0.547103 0.777962 0.378360
C93   C     C_R   0.529902 0.004027 0.790536 0.374299
C94   C     C_R   0.511501 0.986990 0.291442 0.373814
C95   C     C_R   0.541096 0.436955 0.278177 0.368057
C96   C     C_R   0.894154 0.451075 0.278258 0.374487
Cr1   Cr    Cr6+3 0.522350 0.263930 0.500020 1.089098
Cr2   Cr    Cr6+3 0.736070 0.258420 0.500020 1.082825
Cr3   Cr    Cr6+3 0.741580 0.477650 0.500020 1.089434
Cr4   Cr    Cr6+3 0.263930 0.522350 0.000020 1.089848
Cr5   Cr    Cr6+3 0.258420 0.736070 0.000020 1.076647
Cr6   Cr    Cr6+3 0.477650 0.741580 0.000020 1.072571
H1    H     H_    0.115854 0.424685 0.891485 0.172243
H2    H     H_    0.545849 0.738205 0.889506 0.156818
H3    H     H_    0.330232 0.931349 0.899575 0.166056
H4    H     H_    0.397906 0.073093 0.400757 0.164646
H5    H     H_    0.713447 0.570914 0.392112 0.174674
H6    H     H_    0.794048 0.256653 0.389601 0.152539
H7    H     H_    0.943100 0.374915 0.679275 0.171754
H8    H     H_    0.622744 0.625913 0.667216 0.169962
H9    H     H_    0.419012 0.064413 0.677117 0.177260
H10   H     H_    0.363461 0.966207 0.172573 0.183251
H11   H     H_    0.631770 0.611897 0.162913 0.181656
H12   H     H_    0.965595 0.355437 0.159000 0.175623
H13   H     H_    0.223315 0.738267 0.895321 0.143194
H14   H     H_    0.288160 0.448064 0.897779 0.150512
H15   H     H_    0.595253 0.916098 0.908682 0.153160
H16   H     H_    0.671829 0.074511 0.408525 0.154307
H17   H     H_    0.470404 0.270679 0.394672 0.146352
H18   H     H_    0.867346 0.561243 0.398347 0.153999
H19   H     H_    0.191287 0.737965 0.826031 0.161334
H20   H     H_    0.290981 0.427308 0.827796 0.161887
H21   H     H_    0.637542 0.972231 0.841766 0.180489
H22   H     H_    0.650641 0.012390 0.342172 0.182172
H23   H     H_    0.446049 0.278574 0.325098 0.167399
H24   H     H_    0.897718 0.582078 0.328728 0.168916
N1    N     N_R   0.006444 0.514709 0.770157 -0.175005
N2    N     N_R   0.516902 0.556689 0.766020 -0.169760
N3    N     N_R   0.526365 0.080842 0.774198 -0.164610
N4    N     N_R   0.425670 0.922022 0.274034 -0.165766
N5    N     N_R   0.545544 0.521436 0.265937 -0.166478
N6    N     N_R   0.957537 0.424294 0.263887 -0.169560
N7    N     N_R   0.976203 0.503512 0.733733 -0.192171
N8    N     N_R   0.529359 0.539972 0.729382 -0.195646
N9    N     N_R   0.533656 0.093023 0.736026 -0.185890
N10   N     N_R   0.421552 0.911019 0.235784 -0.193134
N11   N     N_R   0.528307 0.532063 0.229210 -0.188949
N12   N     N_R   0.984464 0.440284 0.226930 -0.195386
N13   N     N_R   0.134016 0.624883 0.713978 -0.179375
N14   N     N_R   0.368330 0.500448 0.715386 -0.180669
N15   N     N_R   0.551811 0.954188 0.729353 -0.189938
N16   N     N_R   0.589678 0.026581 0.231207 -0.194195
N17   N     N_R   0.496797 0.371890 0.215792 -0.184403
N18   N     N_R   0.887382 0.512695 0.217633 -0.178240
N19   N     N_R   0.164439 0.636329 0.750645 -0.167598
N20   N     N_R   0.355684 0.517139 0.752280 -0.162850
N21   N     N_R   0.544525 0.942003 0.767609 -0.182302
N22   N     N_R   0.593687 0.037759 0.269462 -0.193235
N23   N     N_R   0.514627 0.361419 0.252680 -0.182782
N24   N     N_R   0.860251 0.496555 0.254698 -0.155430
O1    O     O_R   0.498680 0.159540 0.541860 -0.481194
O2    O     O_R   0.840460 0.339140 0.541860 -0.458685
O3    O     O_R   0.660860 0.501320 0.541860 -0.463967
O4    O     O_R   0.159540 0.498680 0.041860 -0.471203
O5    O     O_R   0.339140 0.840460 0.041860 -0.459469
O6    O     O_R   0.501320 0.660860 0.041860 -0.459870
O7    O     O_R   0.532760 0.358060 0.540030 -0.480765
O8    O     O_R   0.641940 0.174700 0.540030 -0.477191
O9    O     O_R   0.825300 0.467240 0.540030 -0.472988
O10   O     O_R   0.358060 0.532760 0.040030 -0.491397
O11   O     O_R   0.174700 0.641940 0.040030 -0.486593
O12   O     O_R   0.467240 0.825300 0.040030 -0.499159
O13   O     O_R   0.498590 0.161190 0.456930 -0.526471
O14   O     O_R   0.838810 0.337400 0.456930 -0.481600
O15   O     O_R   0.662600 0.501410 0.456930 -0.504126
O16   O     O_R   0.161190 0.498590 0.956930 -0.501902
O17   O     O_R   0.337400 0.838810 0.956930 -0.522753
O18   O     O_R   0.501410 0.662600 0.956930 -0.478462
O19   O     O_R   0.532680 0.359580 0.461300 -0.479335
O20   O     O_R   0.640420 0.173100 0.461300 -0.525290
O21   O     O_R   0.826900 0.467320 0.461300 -0.503041
O22   O     O_R   0.359580 0.532680 0.961300 -0.498012
O23   O     O_R   0.173100 0.640420 0.961300 -0.479625
O24   O     O_R   0.467320 0.826900 0.961300 -0.526033
O25   O     O_3   0.666667 0.333333 0.499990 -0.318270
O26   O     O_3   0.333333 0.666667 0.999990 -0.318050
C97   C     C_2   0.860963 0.283504 0.615224 0.599550
O27   O     O_2   0.789242 0.231353 0.635448 -0.520599
O28   O     O_R   0.896963 0.240681 0.589202 -0.638660
H25   H     H_    0.857835 0.165672 0.589897 0.356394
C98   C     C_2   0.710438 0.614535 0.605791 0.613716
O29   O     O_2   0.742242 0.702676 0.599809 -0.469093
O30   O     O_R   0.774303 0.577038 0.606831 -0.667747
H26   H     H_    0.845110 0.630539 0.602230 0.344165
C99   C     C_2   0.384633 0.097072 0.606111 0.633317
O31   O     O_2   0.371933 0.157026 0.624127 -0.453794
O32   O     O_R   0.320702 0.044333 0.575801 -0.602994
H27   H     H_    0.333614 0.992139 0.564402 0.308309
C100  C     C_2   0.314845 0.951682 0.098433 0.615013
O33   O     O_2   0.239483 0.923923 0.117335 -0.481419
O34   O     O_R   0.325458 0.996898 0.062409 -0.653234
H28   H     H_    0.264928 0.999969 0.054764 0.359399
C101  C     C_2   0.641146 0.684872 0.093586 0.610836
O35   O     O_2   0.682571 0.759320 0.113695 -0.482205
O36   O     O_R   0.677020 0.684487 0.056502 -0.645940
H29   H     H_    0.735932 0.750900 0.049231 0.358596
C102  C     C_2   0.029039 0.351263 0.088918 0.630160
O37   O     O_2   0.058849 0.305196 0.107415 -0.426007
O38   O     O_R   0.992033 0.318907 0.051661 -0.609795
H30   H     H_    0.963282 0.357971 0.039778 0.306742
C103  C     C_1   0.005688 0.633008 0.566424 0.224418
N25   N     N_1   0.022148 0.689118 0.541644 -0.232989
C104  C     C_1   0.367834 0.332447 0.576554 0.283450
N26   N     N_1   0.310462 0.271494 0.556444 -0.189482
C105  C     C_1   0.652463 0.021316 0.576650 0.233027
N27   N     N_1   0.698378 0.005721 0.554494 -0.249965
C106  C     C_1   0.626208 0.940555 0.083044 0.271309
N28   N     N_1   0.686831 0.941402 0.063679 -0.213555
C107  C     C_1   0.313039 0.369417 0.080885 0.264058
N29   N     N_1   0.245297 0.313846 0.063039 -0.183454
C108  C     C_1   0.063300 0.689508 0.083037 0.266621
N30   N     N_1   0.078232 0.759605 0.066067 -0.211126
C109  C     C_1   0.085288 0.702958 0.642114 0.244129
N31   N     N_1   0.131949 0.787158 0.648153 -0.219408
C110  C     C_1   0.307927 0.359505 0.651272 0.272010
N32   N     N_1   0.227951 0.307329 0.661656 -0.201578
C111  C     C_1   0.664254 0.988376 0.657459 0.268421
N33   N     N_1   0.717922 0.963331 0.668140 -0.212837
C112  C     C_1   0.654983 0.962878 0.164330 0.266312
N34   N     N_1   0.724980 0.968593 0.177700 -0.185974
C113  C     C_1   0.337798 0.315436 0.156731 0.256603
N35   N     N_1   0.279122 0.240141 0.169688 -0.196554
C114  C     C_1   0.989376 0.662846 0.159676 0.261032
N36   N     N_1   0.979041 0.724060 0.173957 -0.182124
C115  C     C_2   0.082269 0.398075 0.815412 0.581688
O39   O     O_2   0.035100 0.318226 0.831900 -0.486450
O40   O     O_R   0.107453 0.400696 0.776352 -0.658660
H31   H     H_    0.081293 0.332134 0.764937 0.363172
C116  C     C_2   0.572009 0.743094 0.812754 0.590651
O41   O     O_2   0.649532 0.802275 0.828283 -0.506928
O42   O     O_R   0.557390 0.755210 0.773686 -0.645777
H32   H     H_    0.617394 0.812865 0.761240 0.371367
C117  C     C_2   0.345193 0.980599 0.825417 0.582078
O43   O     O_2   0.298686 0.015324 0.840436 -0.481974
O44   O     O_R   0.324577 0.945623 0.787321 -0.667914
H33   H     H_    0.271356 0.954948 0.775084 0.360927
C118  C     C_2   0.359370 0.023721 0.327324 0.583696
O45   O     O_2   0.277376 0.987515 0.341841 -0.482912
O46   O     O_R   0.376974 0.066651 0.290494 -0.663315
H34   H     H_    0.315738 0.061200 0.278510 0.362505
C119  C     C_2   0.719576 0.602073 0.316687 0.579716
O47   O     O_2   0.742904 0.596291 0.283374 -0.461515
O48   O     O_R   0.766942 0.693320 0.335874 -0.682948
H35   H     H_    0.817711 0.748720 0.318985 0.364589
C120  C     C_2   0.817677 0.250343 0.313203 0.593200
O49   O     O_2   0.829460 0.186427 0.328382 -0.507882
O50   O     O_R   0.787753 0.239660 0.274557 -0.647037
H36   H     H_    0.784611 0.179765 0.261723 0.373489

loop_
_geom_bond_atom_site_label_1
_geom_bond_atom_site_label_2
_ccdc_geom_bond_type
C25   C31   A    
C95   N5    A    
C104  N26   T    
C120  O50   S    
C26   C32   A    
Cr1   O25   S    
C72   H12   S    
Cr4   O22   S    
C103  N25   T    
C6    C58   S    
Cr5   O23   S    
O46   H34   S    
C51   O21   A    
C91   N19   A    
C54   O17   A    
O30   H26   S    
C16   C22   A    
C25   C43   A    
C64   C100  S    
C2    C57   S    
C53   O23   A    
C7    C73   S    
Cr2   O2    S    
C105  N27   T    
C27   C33   A    
C61   C97   S    
C29   H17   S    
C28   C46   A    
C3    O2    A    
C33   C39   A    
C91   N1    A    
C29   C47   A    
C34   C40   A    
C30   C48   A    
C1    C56   S    
C10   N10   A    
C7    N7    A    
Cr3   O9    S    
C18   C42   A    
C13   C115  S    
C90   C108  S    
Cr3   O3    S    
C55   C85   A    
C99   O32   S    
C25   H13   S    
Cr3   O21   S    
Cr5   O5    S    
C68   C74   A    
O48   H35   S    
C38   C92   S    
Cr1   O19   S    
C71   H11   S    
Cr4   O16   S    
C119  O47   D    
C59   C89   A    
C102  O38   S    
O40   H31   S    
Cr4   O10   S    
C39   C93   S    
C14   C116  S    
C80   C86   A    
C11   C77   S    
C35   H23   S    
N3    N9    A    
C10   C76   S    
C43   C53   S    
C48   C51   S    
C66   C72   A    
C82   C112  S    
C63   C69   A    
C19   C43   A    
C97   O28   S    
C12   C78   S    
Cr4   O26   S    
N18   N24   A    
O44   H33   S    
C10   N16   A    
C67   C73   A    
C64   C70   A    
C117  O43   D    
C13   C37   A    
C6    O5    A    
C92   N20   A    
C85   C103  S    
C96   N6    A    
C44   C52   S    
C12   N18   A    
C60   C66   A    
O38   H30   S    
C74   C80   A    
C120  O49   D    
C3    O9    A    
C9    C75   S    
C52   O22   A    
C41   C95   S    
C84   C90   A    
C93   N3    A    
C23   H5    S    
C92   N2    A    
C20   C44   A    
C67   H7    S    
C69   C75   A    
C57   C63   A    
C80   C110  S    
C21   C45   A    
C106  N28   T    
C98   O30   S    
C94   N22   A    
C83   C89   A    
C83   C113  S    
N4    N10   A    
C17   C41   A    
C23   C47   A    
C37   C91   S    
C26   C44   A    
O34   H28   S    
C24   C48   A    
C14   C20   A    
C31   H19   S    
C114  N36   T    
C47   C49   S    
C68   H8    S    
C76   C82   A    
C112  N34   T    
C9    N15   A    
C75   C81   A    
C12   N12   A    
C89   C107  S    
O36   H29   S    
C58   C64   A    
C101  O36   S    
C111  N33   T    
C65   C71   A    
C19   H1    S    
C100  O33   D    
C57   C87   A    
C31   C37   A    
C119  O48   S    
C5    O11   A    
C98   O29   D    
C110  N32   T    
C49   O15   A    
C116  O41   D    
N5    N11   A    
N2    N8    A    
C14   C38   A    
C113  N35   T    
Cr1   O13   S    
C61   C67   A    
C56   C86   A    
C108  N30   T    
C8    N8    A    
C109  N31   T    
C2    O8    A    
C96   N24   A    
C15   C117  S    
C8    C74   S    
C107  N29   T    
Cr1   O1    S    
C51   O14   A    
C50   O20   A    
C17   C23   A    
C1    O3    A    
C117  O44   S    
N16   N22   A    
C15   C39   A    
C81   C87   A    
C79   C109  S    
C70   H10   S    
C16   C40   A    
C24   H6    S    
C9    N9    A    
C22   C46   A    
C16   C118  S    
C97   O27   D    
C32   C38   A    
C118  O46   S    
C70   C76   A    
C18   C24   A    
C7    N13   A    
C63   C99   S    
C88   C106  S    
N14   N20   A    
C94   N4    A    
Cr6   O6    S    
C71   C77   A    
C34   H22   S    
Cr6   O12   S    
C32   H20   S    
N6    N12   A    
Cr4   O4    S    
C2    O1    A    
C46   C50   S    
C95   N23   A    
N13   N19   A    
Cr6   O18   S    
C5    C60   S    
C115  O39   D    
C50   O13   A    
C6    O12   A    
C36   H24   S    
C87   C105  S    
N1    N7    A    
C40   C94   S    
C73   C79   A    
C84   C114  S    
C58   C88   A    
C36   C42   A    
C45   C54   S    
Cr2   O14   S    
O50   H36   S    
C81   C111  S    
C20   H2    S    
C60   C90   A    
Cr6   O24   S    
Cr5   O17   S    
C29   C35   A    
C3    C55   S    
C30   C36   A    
C8    N14   A    
C54   O24   A    
Cr5   O11   S    
C11   N11   A    
O32   H27   S    
C116  O42   S    
C42   C96   S    
C22   H4    S    
C52   O18   A    
C62   C98   S    
C49   O19   A    
Cr2   O25   S    
C69   H9    S    
C18   C120  S    
C27   C45   A    
C99   O31   D    
C4    O10   A    
C15   C21   A    
C30   H18   S    
C82   C88   A    
C55   C61   A    
C4    C59   S    
C1    O7    A    
C115  O40   S    
C79   C85   A    
C21   H3    S    
C93   N21   A    
C56   C62   A    
C62   C68   A    
C28   C34   A    
C65   C101  S    
C102  O37   D    
C35   C41   A    
C26   H14   S    
C78   C84   A    
C66   C102  S    
C11   N17   A    
N15   N21   A    
C17   C119  S    
O28   H25   S    
Cr2   O20   S    
Cr2   O8    S    
C53   O16   A    
N17   N23   A    
C4    O6    A    
Cr3   O25   S    
C101  O35   D    
C72   C78   A    
O42   H32   S    
C33   H21   S    
C13   C19   A    
C77   C83   A    
Cr5   O26   S    
C28   H16   S    
C27   H15   S    
C100  O34   S    
C118  O45   D    
Cr6   O26   S    
C86   C104  S    
C59   C65   A    
C5    O4    A    
Cr1   O7    S    
Cr3   O15   S    
