data_mof_unit_67338.cif
_audit_creation_date              2013-03-05T16:05:43-0500
_audit_creation_method            fapswitch 2.2
_symmetry_space_group_name_H-M    P1
_symmetry_Int_Tables_number       1
_space_group_crystal_system       triclinic
_cell_length_a                    8.55659
_cell_length_b                    15.267998
_cell_length_c                    16.644692
_cell_angle_alpha                 110.98638
_cell_angle_beta                  97.862011
_cell_angle_gamma                 80.858511
_cell_volume                      1996.92404283

loop_
_atom_site_label
_atom_site_type_symbol
_atom_site_description
_atom_site_fract_x
_atom_site_fract_y
_atom_site_fract_z
_atom_type_partial_charge
P1    P     P_3+3 0.592580 0.619730 0.703530 0.582947
O1    O     O_2   0.428380 0.595290 0.716080 -0.297659
O2    O     O_3   0.649320 0.571640 0.606850 -0.407701
O3    O     O_3   0.202060 0.415890 0.655600 -0.289443
O4    O     O_2   0.355177 0.516328 0.803400 -0.274457
O5    O     O_3   0.563609 0.743149 0.735147 -0.538195
O6    O     O_3   0.277983 0.363873 0.806028 -0.512380
C1    C     C_3   0.159844 0.260739 0.849961 -0.961224
H1    H     H_    0.280858 0.233629 0.870987 0.248597
H2    H     H_    0.109680 0.317863 0.906339 0.235842
P2    P     P_3+3 0.156500 0.273340 0.422460 0.546266
P3    P     P_3+3 0.661949 0.240525 0.601474 0.557783
O7    O     O_2   0.338780 0.265250 0.448290 -0.327737
O8    O     O_3   0.612600 0.359160 0.609560 -0.376958
O9    O     O_2   0.526727 0.199632 0.535495 -0.308540
O10   O     O_3   0.160373 0.203199 0.310152 -0.630722
O11   O     O_3   0.602395 0.211881 0.685185 -0.450977
C2    C     C_3   0.699838 0.241795 0.762323 0.977011
H3    H     H_    0.824529 0.242605 0.749590 -0.136671
C3    C     C_3   0.702671 0.170691 0.808867 0.472450
H4    H     H_    0.580875 0.169800 0.824533 0.099014
C4    C     C_3   0.634979 0.170888 0.260693 1.183864
C5    C     C_3   0.600164 0.098842 0.164206 0.550127
H5    H     H_    0.715798 0.063685 0.140546 0.053447
Ba1   Ba    Ba6+2 0.364200 0.465260 0.540910 1.747848
C6    C     C_3   0.500910 0.775966 0.668074 0.223321
H6    H     H_    0.370129 0.780087 0.664820 0.138621
H7    H     H_    0.549165 0.730574 0.606004 0.083230
C7    C     C_3   0.549856 0.874647 0.690432 0.082651
H8    H     H_    0.570931 0.908765 0.761093 0.150158
H9    H     H_    0.658401 0.868487 0.659251 0.147847
C8    C     C_3   0.049478 0.234293 0.251577 0.733722
H10   H     H_    0.935398 0.256395 0.280270 0.081479
C9    C     C_3   0.024624 0.154383 0.159406 0.972626
P4    P     P_3+3 0.597130 0.380190 0.296460 0.518996
O12   O     O_2   0.761310 0.404670 0.283870 -0.276620
O13   O     O_3   0.540390 0.428280 0.393140 -0.481808
O14   O     O_3   0.987650 0.584030 0.344390 -0.305744
O15   O     O_3   0.651232 0.255710 0.245679 -0.579140
P5    P     P_3+3 0.530828 0.763190 0.409198 0.522632
O16   O     O_3   0.122140 0.620560 0.549160 -0.332893
O17   O     O_3   0.577110 0.640760 0.390430 -0.405660
O18   O     O_2   0.670583 0.811641 0.466374 -0.297089
O19   O     O_3   0.543986 0.785186 0.314337 -0.499450
Ba2   Ba    Ba6+2 0.825640 0.534660 0.459080 1.720331
P6    P     P_3+3 0.212630 0.458906 0.770156 0.626155
C10   C     C_3   0.167043 0.298335 0.777760 0.995594
H11   H     H_    0.044905 0.328186 0.760859 -0.148277
H12   H     H_    0.083932 0.202786 0.826689 0.275985
O20   O     O_3   0.067570 0.379360 0.450830 -0.341031
C11   C     C_3   0.979106 0.833791 0.751941 0.964071
H13   H     H_    0.897585 0.874086 0.717263 -0.086636
C12   C     C_3   0.090539 0.901558 0.818665 0.568219
H14   H     H_    0.019735 0.956244 0.868573 0.026808
P7    P     P_3+3 0.036440 0.741134 0.584395 0.498496
O21   O     O_2   0.850910 0.734710 0.551660 -0.373166
O22   O     O_3   0.077141 0.761690 0.696004 -0.535801
C13   C     C_3   0.425316 0.744128 0.250945 0.989790
H15   H     H_    0.327869 0.724496 0.276359 -0.142783
C14   C     C_3   0.351489 0.813617 0.205775 -0.868179
H16   H     H_    0.444082 0.832170 0.176082 0.304126
H17   H     H_    0.258877 0.781942 0.154417 0.250570
H18   H     H_    0.295451 0.879010 0.253011 0.202818
P8    P     P_3+3 0.988052 0.550877 0.231467 0.596747
C15   C     C_3   0.955737 0.716830 0.219465 0.972218
H19   H     H_    0.083184 0.696209 0.208017 -0.086606
O23   O     O_2   0.894034 0.465083 0.192948 -0.280265
O24   O     O_3   0.872290 0.637883 0.196551 -0.494650
H20   H     H_    0.949146 0.839472 0.182974 0.207378
C16   C     C_3   0.885990 0.776053 0.163810 -0.917856
H21   H     H_    0.757448 0.798653 0.172036 0.296346
H22   H     H_    0.901403 0.734627 0.094846 0.233141
C17   C     C_2   0.306865 0.487269 0.248898 0.169245
C18   C     C_R   0.906883 0.554908 0.758300 0.190064
C19   C     C_2   0.493104 0.412991 0.137426 0.450861
C20   C     C_2   0.464591 0.435239 0.221033 0.058294
C21   C     C_2   0.191119 0.511956 0.193804 -0.006928
C22   C     C_3   0.234336 0.507596 0.106492 0.053113
C23   C     C_3   0.355353 0.421933 0.070788 -0.076725
C24   C     C_2   0.101942 0.514373 0.036890 -0.300159
C25   C     C_2   0.122868 0.549741 0.975207 0.527908
C26   C     C_R   0.844732 0.600103 0.929129 0.027520
C27   C     C_R   0.996677 0.556240 0.904952 -0.224110
C28   C     C_R   0.722529 0.614844 0.868299 -0.304999
C29   C     C_R   0.750318 0.588602 0.781363 0.192349
C30   C     C_R   0.027053 0.531041 0.816674 0.080107
H23   H     H_    0.606752 0.647951 0.889552 0.231546
H24   H     H_    0.994552 0.482715 0.032173 0.121158
C31   C     C_R   0.849832 0.180640 0.546326 0.029987
C32   C     C_R   0.075934 0.201903 0.478899 0.215208
C33   C     C_R   0.275996 0.780618 0.505797 -0.417955
C34   C     C_R   0.345244 0.822894 0.460354 0.239410
C35   C     C_R   0.274979 0.910219 0.455045 -0.124649
C36   C     C_R   0.133365 0.955548 0.494971 0.170851
C37   C     C_R   0.058049 0.904704 0.533506 0.013129
C38   C     C_R   0.063423 0.049177 0.498334 0.053547
C39   C     C_R   0.910439 0.084203 0.530926 -0.235165
C40   C     C_R   0.827914 0.021205 0.549163 0.542325
C41   C     C_R   0.908147 0.940359 0.560756 -0.117611
C42   C     C_R   0.140189 0.108432 0.470212 -0.243157
C43   C     C_R   0.936637 0.237523 0.521565 0.278473
C44   C     C_R   0.129637 0.816043 0.538753 0.205899
H25   H     H_    0.251602 0.083695 0.442887 0.150330
H26   H     H_    0.338216 0.719327 0.516984 0.046179
H27   H     H_    0.333333 0.940657 0.419750 0.124955
H28   H     H_    0.845114 0.902112 0.586023 0.184803
Cl1   Cl    Cl    0.233969 0.202957 0.685946 -0.550976
O25   O     O_3   0.524859 0.150127 0.110047 -0.584058
C45   C     C_3   0.534437 0.095850 0.021363 0.121808
H29   H     H_    0.457891 0.038246 0.000871 0.164465
H30   H     H_    0.657624 0.065211 0.005315 0.110437
H31   H     H_    0.490667 0.142497 0.982979 0.134836
Cl2   Cl    Cl    0.483607 0.004611 0.148948 -0.717510
Cl3   Cl    Cl    0.407094 0.953842 0.655836 -0.560609
O26   O     O_3   0.094545 0.313091 0.240635 -0.629055
C46   C     C_3   0.257186 0.296928 0.229562 0.076734
H32   H     H_    0.274435 0.315296 0.173425 0.108847
H33   H     H_    0.318011 0.332272 0.292410 0.185158
H34   H     H_    0.314164 0.223946 0.214271 0.181298
O27   O     O_3   0.006763 0.069106 0.171192 -0.678006
C47   C     C_3   0.003807 0.989920 0.093722 -0.118296
H35   H     H_    0.940290 0.007459 0.037548 0.160090
H36   H     H_    0.940154 0.936758 0.102527 0.128267
H37   H     H_    0.126773 0.956542 0.079430 0.246870
Cl4   Cl    Cl    0.166835 0.133952 0.081461 -0.645255
Cl5   Cl    Cl    0.851980 0.196828 0.106705 -0.550317
O28   O     O_3   0.891183 0.788738 0.789583 -0.604881
C48   C     C_3   0.820814 0.850298 0.864927 -0.329948
H38   H     H_    0.773542 0.920940 0.861190 0.124106
H39   H     H_    0.907743 0.857257 0.922098 0.170491
H40   H     H_    0.720840 0.818677 0.875308 0.234160
O29   O     O_3   0.164437 0.946032 0.775234 -0.618107
C49   C     C_3   0.244917 0.019768 0.835413 0.009796
H41   H     H_    0.359463 0.990143 0.860718 0.121846
H42   H     H_    0.172761 0.066335 0.888911 0.179646
H43   H     H_    0.272933 0.065198 0.801790 0.204017
Cl6   Cl    Cl    0.236100 0.835889 0.870802 -0.587596
Cl7   Cl    Cl    0.830252 0.196817 0.905488 -0.682004
Cl8   Cl    Cl    0.516658 0.641432 0.174743 -0.614042
Cl9   Cl    Cl    0.936251 0.787867 0.329763 -0.674778
O30   O     O_3   0.624788 0.328780 0.814517 -0.609871
C50   C     C_3   0.730390 0.396872 0.845326 -0.262462
H44   H     H_    0.765267 0.413098 0.790896 0.128328
H45   H     H_    0.836934 0.374341 0.882495 0.118044
H46   H     H_    0.667252 0.460721 0.890182 0.214591
O31   O     O_3   0.640766 0.368668 0.111120 -0.518976
C51   C     C_3   0.675264 0.391836 0.041173 0.143454
H47   H     H_    0.605720 0.353121 0.980946 0.144550
H48   H     H_    0.803329 0.370717 0.032103 0.182829
H49   H     H_    0.653530 0.469197 0.053632 0.129271
O32   O     O_3   0.268050 0.492588 0.327965 -0.613265
C52   C     C_3   0.300111 0.580113 0.386978 0.197890
H50   H     H_    0.206245 0.607035 0.428244 0.144713
H51   H     H_    0.298655 0.635664 0.358162 -0.014220
H52   H     H_    0.402402 0.573206 0.432768 0.142431
Cl10  Cl    Cl    0.962240 0.560069 0.662533 -0.441139
Cl11  Cl    Cl    0.293868 0.605240 0.985256 -0.562296
O33   O     O_3   0.885198 0.331205 0.540769 -0.651434
C53   C     C_3   0.768535 0.339976 0.475646 0.168655
H53   H     H_    0.677406 0.290357 0.458408 0.100528
H54   H     H_    0.819387 0.330032 0.415348 0.094467
H55   H     H_    0.708579 0.411670 0.502718 0.219480
Cl12  Cl    Cl    0.620629 0.023119 0.539987 -0.526084
Cl13  Cl    Cl    0.773897 0.055658 0.744837 -0.696218
O34   O     O_3   0.784660 0.148956 0.305194 -0.731728
C54   C     C_3   0.837259 0.053168 0.297375 -0.370249
H56   H     H_    0.968452 0.041540 0.298578 0.241652
H57   H     H_    0.788817 0.999373 0.238944 0.176151
H58   H     H_    0.814558 0.038967 0.355052 0.169693
O35   O     O_3   0.507457 0.184426 0.311237 -0.693187
C55   C     C_3   0.511579 0.109899 0.343979 0.020557
H59   H     H_    0.593163 0.122256 0.402284 0.156432
H60   H     H_    0.550981 0.038185 0.302387 0.117376
H61   H     H_    0.391597 0.104509 0.356156 0.183839

loop_
_geom_bond_atom_site_label_1
_geom_bond_atom_site_label_2
_geom_bond_distance
_ccdc_geom_bond_type
C13   Cl8   1.770703 S    
P1    Ba1   3.486012 S    
C7    Cl3   1.767150 S    
C35   C36   1.418903 A    
P8    C21   1.862337 S    
C51   H47   1.110196 S    
C28   H23   1.082001 S    
C33   H26   1.064519 S    
C55   H59   1.090907 S    
C48   H38   1.110556 S    
C40   Cl12  1.755746 S    
O3    P6    1.774796 S    
C12   H14   1.111025 S    
C46   H32   1.100939 S    
C55   H60   1.093343 S    
P7    C44   1.897117 S    
C18   C29   1.409602 A    
C6    H6    1.105722 S    
O34   C54   1.424398 S    
C14   H18   1.110697 S    
C12   Cl6   1.800113 S    
P8    O24   1.749562 S    
C51   H48   1.107096 S    
C2    H3    1.118634 S    
C45   H30   1.109990 S    
C54   H58   1.104478 S    
C40   C41   1.377427 A    
C37   C41   1.381194 A    
O35   C55   1.420988 S    
C5    O25   1.423838 S    
C13   C14   1.522644 S    
C15   C16   1.519615 S    
C3    Cl13  1.757483 S    
C39   C40   1.414041 A    
O25   C45   1.416934 S    
C2    C3    1.538920 S    
C14   H17   1.110359 S    
P1    O1    1.568307 D    
C3    Cl7   1.770809 S    
Ba1   O20   3.003061 S    
O16   P7    1.784955 S    
O14   Ba2   2.867192 S    
Ba1   O13   2.896621 S    
C15   Cl9   1.781741 S    
P5    O18   1.532451 D    
P4    O12   1.568634 D    
Ba2   O21   2.915099 S    
O19   C13   1.404533 S    
C1    H1    1.111054 S    
C47   H37   1.111133 S    
P3    O11   1.758936 S    
C49   H43   1.104253 S    
O32   C52   1.388666 S    
C53   H54   1.099554 S    
C16   H21   1.110995 S    
C11   O22   1.403010 S    
C31   C43   1.421593 A    
C37   C44   1.421920 A    
C35   H27   1.077015 S    
P5    O17   1.768872 S    
O8    Ba1   2.831050 S    
C17   O32   1.372353 S    
C54   H57   1.103643 S    
C4    O34   1.443250 S    
C50   H46   1.105124 S    
O7    Ba1   2.914879 S    
C54   H56   1.106861 S    
H20   C16   1.108698 S    
C32   C42   1.408706 A    
C25   C27   1.498937 S    
O3    Ba1   2.867875 S    
O14   P8    1.763163 S    
C19   O31   1.383287 S    
P1    C29   1.866752 S    
C55   H61   1.094319 S    
P4    C20   1.905827 S    
C25   Cl11  1.764192 S    
C11   H13   1.098220 S    
O6    P6    1.745243 S    
P3    C31   1.896989 S    
O2    Ba1   3.007363 S    
C51   H49   1.112657 S    
C28   C29   1.399818 A    
C45   H31   1.109677 S    
Ba1   O16   2.866195 S    
C33   C34   1.390562 A    
C22   C23   1.522264 S    
O29   C49   1.412390 S    
C13   H15   1.109384 S    
C21   C22   1.524165 S    
O2    Ba2   2.897294 S    
C42   H25   1.067466 S    
C18   C30   1.412570 A    
P1    O5    1.751052 S    
C31   C39   1.423380 A    
C14   H16   1.109474 S    
P1    O2    1.618182 S    
O17   Ba2   2.831722 S    
C8    C9    1.593698 S    
P4    O15   1.793788 S    
C19   C20   1.356264 D    
P8    O23   1.538258 D    
C32   C43   1.403456 A    
C7    H8    1.104587 S    
C5    Cl2   1.803880 S    
C49   H41   1.106931 S    
P2    O10   1.792795 S    
C53   H53   1.111340 S    
C52   H52   1.097199 S    
C9    Cl5   1.766409 S    
C15   O24   1.406361 S    
C38   C39   1.434517 A    
P7    O21   1.612831 D    
O11   C2    1.400130 S    
C53   H55   1.093583 S    
C18   Cl10  1.754938 S    
O12   Ba2   2.917011 S    
C12   O29   1.412989 S    
P5    C34   1.852457 S    
C36   C38   1.443904 A    
C47   H35   1.111475 S    
C4    O35   1.412809 S    
C6    C7    1.529760 S    
C1    H2    1.109278 S    
C52   H51   1.111742 S    
C43   O33   1.361148 S    
C26   C27   1.405069 A    
P3    O9    1.524920 D    
C10   Cl1   1.778873 S    
P7    O22   1.763788 S    
O33   C53   1.398169 S    
C17   C20   1.494745 S    
C50   H45   1.109363 S    
C33   C44   1.386352 A    
O13   Ba2   3.008305 S    
O28   C48   1.414602 S    
P4    Ba2   3.486636 S    
C48   H40   1.107316 S    
Ba1   Ba2   4.733047 S    
O27   C47   1.417453 S    
O31   C51   1.410641 S    
C41   H28   1.070891 S    
O16   Ba2   3.002121 S    
P4    O13   1.618179 S    
C50   H44   1.108804 S    
C6    H7    1.109535 S    
C2    O30   1.409299 S    
P3    O8    1.753626 S    
C24   C25   1.362323 D    
C10   H11   1.113160 S    
C48   H39   1.108664 S    
O10   C8    1.418310 S    
O4    P6    1.539545 D    
C26   C28   1.402859 A    
C46   H34   1.096489 S    
C11   O28   1.426112 S    
C8    H10   1.096469 S    
C1    C10   1.517608 S    
C7    H9    1.099996 S    
P2    O20   1.606752 S    
C45   H29   1.107194 S    
P2    O7    1.557601 D    
P2    C32   1.922853 S    
O5    C6    1.391630 S    
Ba2   O20   2.865531 S    
C9    Cl4   1.811789 S    
C4    O15   1.434410 S    
C38   C42   1.430147 A    
C34   C35   1.400748 A    
C46   H33   1.091939 S    
O1    Ba1   2.916535 S    
C22   C24   1.525040 S    
C8    O26   1.397449 S    
C36   C37   1.434577 A    
C47   H36   1.106561 S    
C5    H5    1.099379 S    
P2    Ba1   3.491388 S    
P5    O19   1.748995 S    
C27   C30   1.429115 A    
C3    H4    1.111607 S    
C9    O27   1.418256 S    
C24   H24   1.085524 S    
C15   H19   1.108794 S    
C49   H42   1.112228 S    
C17   C21   1.358084 D    
C4    C5    1.608036 S    
C16   H22   1.109029 S    
C52   H50   1.062837 S    
C11   C12   1.553640 S    
O30   C50   1.396467 S    
C19   C23   1.529000 S    
C1    H12   1.105961 S    
O26   C46   1.400011 S    
O6    C10   1.402192 S    
P6    C30   1.871834 S    
