data_mof_unit_6486.cif
_audit_creation_date              2012-12-10T17:54:36-0500
_audit_creation_method            fapswitch 2.2
_symmetry_space_group_name_H-M    P1
_symmetry_Int_Tables_number       1
_space_group_crystal_system       triclinic
_cell_length_a                    21.69607
_cell_length_b                    21.695731
_cell_length_c                    30.196129
_cell_angle_alpha                 90.000501
_cell_angle_beta                  89.96899
_cell_angle_gamma                 90.000328
_cell_volume                      14213.6811649

loop_
_atom_site_label
_atom_site_type_symbol
_atom_type_description
_atom_site_fract_x
_atom_site_fract_y
_atom_site_fract_z
_atom_type_partial_charge
C1    C     C_R   0.500000 0.120206 0.500000 1.048973
C2    C     C_R   0.120085 0.499999 0.499999 1.038069
C3    C     C_R   0.500000 0.879794 0.499999 1.048740
C4    C     C_R   0.879915 0.499999 0.500000 1.038118
C5    C     C_R   0.000000 0.620209 0.000000 1.055112
C6    C     C_R   0.620077 0.999995 0.999995 1.036699
C7    C     C_R   1.000000 0.380033 0.000000 0.895147
C8    C     C_R   0.379923 0.999995 0.000005 1.036718
C9    C     C_R   0.500057 0.999936 0.773140 0.053941
C10   C     C_R   0.999733 0.499702 0.773306 0.042262
C11   C     C_R   0.499946 0.999940 0.226859 0.053940
C12   C     C_R   0.000270 0.499698 0.226694 0.042262
C13   C     C_R   0.000303 0.499718 0.273142 0.055163
C14   C     C_R   0.499965 0.999946 0.273308 0.051806
C15   C     C_R   0.999701 0.499724 0.726858 0.055164
C16   C     C_R   0.500038 0.999942 0.726692 0.051806
C17   C     C_R   0.421537 0.918181 0.773261 -0.062708
C18   C     C_R   0.925963 0.585877 0.773283 -0.059946
C19   C     C_R   0.578647 0.081628 0.773182 -0.062259
C20   C     C_R   0.073247 0.413298 0.773132 -0.060521
C21   C     C_R   0.421353 0.081628 0.226819 -0.062260
C22   C     C_R   0.926756 0.413293 0.226866 -0.060520
C23   C     C_R   0.578472 0.918192 0.226738 -0.062707
C24   C     C_R   0.074043 0.585871 0.226718 -0.059949
C25   C     C_R   0.922289 0.417514 0.273331 -0.069179
C26   C     C_R   0.425841 0.085806 0.273283 -0.061375
C27   C     C_R   0.078556 0.581717 0.273182 -0.061911
C28   C     C_R   0.574040 0.914041 0.273207 -0.061112
C29   C     C_R   0.921450 0.581724 0.726819 -0.061912
C30   C     C_R   0.425969 0.914030 0.726791 -0.061106
C31   C     C_R   0.077715 0.417521 0.726667 -0.069178
C32   C     C_R   0.574158 0.085806 0.726718 -0.061376
C33   C     C_R   0.548444 0.218938 0.478367 -0.089330
C34   C     C_R   0.218423 0.456578 0.473350 -0.056895
C35   C     C_R   0.451572 0.781061 0.478381 -0.089304
C36   C     C_R   0.781623 0.543373 0.473299 -0.057160
C37   C     C_R   0.548419 0.781057 0.521619 -0.089269
C38   C     C_R   0.218378 0.543387 0.526690 -0.057144
C39   C     C_R   0.451557 0.218938 0.521633 -0.089324
C40   C     C_R   0.781578 0.456584 0.526655 -0.056923
C41   C     C_R   0.048526 0.718954 0.978465 -0.090075
C42   C     C_R   0.718403 0.956660 0.973288 -0.055152
C43   C     C_R   0.959024 0.282194 0.971485 -0.057881
C44   C     C_R   0.281666 0.043135 0.973093 -0.056387
C45   C     C_R   0.040975 0.282195 0.028515 -0.057884
C46   C     C_R   0.718335 0.043139 0.026904 -0.056375
C47   C     C_R   0.951473 0.718952 0.021535 -0.090084
C48   C     C_R   0.281596 0.956664 0.026715 -0.055158
C49   C     C_R   0.500000 0.186916 0.500000 -0.063478
C50   C     C_R   0.186616 0.499992 0.500010 -0.116694
C51   C     C_R   0.499998 0.813083 0.499999 -0.063673
C52   C     C_R   0.813385 0.499989 0.499988 -0.116649
C53   C     C_R   0.000000 0.686926 0.000000 -0.067370
C54   C     C_R   0.686592 0.999959 0.000041 -0.115926
C55   C     C_R   1.000000 0.313652 0.000000 -0.111488
C56   C     C_R   0.313408 0.999958 0.999958 -0.115905
C57   C     C_R   0.499986 0.000005 0.586579 1.042284
C58   C     C_R   0.999984 0.499998 0.586625 1.050892
C59   C     C_R   0.500014 0.000005 0.413421 1.042285
C60   C     C_R   0.000016 0.499997 0.413375 1.050905
C61   C     C_R   0.999986 0.499972 0.086579 1.009338
C62   C     C_R   0.499998 0.999998 0.086625 1.048615
C63   C     C_R   0.000013 0.499972 0.913421 1.009340
C64   C     C_R   0.500002 0.999998 0.913375 1.048615
C65   C     C_R   0.550219 0.283054 0.480829 -0.085656
C66   C     C_R   0.282810 0.456027 0.473936 -0.074179
C67   C     C_R   0.449794 0.716945 0.480841 -0.085572
C68   C     C_R   0.717235 0.543912 0.473868 -0.074254
C69   C     C_R   0.550185 0.716942 0.519162 -0.085669
C70   C     C_R   0.282767 0.543929 0.526121 -0.074195
C71   C     C_R   0.449782 0.283054 0.519171 -0.085650
C72   C     C_R   0.717191 0.456033 0.526070 -0.074167
C73   C     C_R   0.050310 0.783067 0.980954 -0.084600
C74   C     C_R   0.782789 0.956146 0.973846 -0.079650
C75   C     C_R   0.958347 0.217812 0.972006 -0.073375
C76   C     C_R   0.217278 0.043550 0.973534 -0.056318
C77   C     C_R   0.041652 0.217813 0.027994 -0.073378
C78   C     C_R   0.782723 0.043554 0.026463 -0.056324
C79   C     C_R   0.949685 0.783066 0.019045 -0.084569
C80   C     C_R   0.217211 0.956151 0.026158 -0.079676
C81   C     C_R   0.500000 0.314407 0.500000 -0.080181
C82   C     C_R   0.313987 0.499979 0.500029 -0.130591
C83   C     C_R   0.499990 0.685592 0.500000 -0.080263
C84   C     C_R   0.686014 0.499976 0.499970 -0.130596
C85   C     C_R   0.999997 0.814417 0.999999 -0.080403
C86   C     C_R   0.813969 0.999907 0.000104 -0.126815
C87   C     C_R   0.999999 0.186276 0.000000 -0.152632
C88   C     C_R   0.186031 0.999907 0.999896 -0.126804
C89   C     C_R   0.380094 0.499997 0.500010 0.832438
C90   C     C_R   0.499992 0.619798 0.500000 0.896337
C91   C     C_R   0.619906 0.499997 0.499990 0.832370
C92   C     C_R   0.500000 0.380201 0.500000 0.896690
C93   C     C_R   0.880086 0.999971 0.000027 0.866453
C94   C     C_R   1.000000 0.120025 0.000000 0.948830
C95   C     C_R   0.119914 0.999971 0.999973 0.866447
C96   C     C_R   0.999998 0.880204 1.000000 0.902181
C97   C     C_R   0.549032 0.027847 0.842461 -0.113278
C98   C     C_R   0.023548 0.448661 0.842713 -0.074925
C99   C     C_R   0.451053 0.972058 0.842492 -0.110963
C100  C     C_R   0.976345 0.551061 0.842672 -0.108270
C101  C     C_R   0.548950 0.972065 0.157507 -0.110963
C102  C     C_R   0.023657 0.551058 0.157329 -0.108271
C103  C     C_R   0.450969 0.027849 0.157539 -0.113279
C104  C     C_R   0.976452 0.448659 0.157285 -0.074927
C105  C     C_R   0.049085 0.527894 0.342474 -0.112691
C106  C     C_R   0.523779 0.948859 0.342685 -0.111898
C107  C     C_R   0.951255 0.471858 0.342467 -0.111560
C108  C     C_R   0.476260 0.051111 0.342690 -0.111953
C109  C     C_R   0.048747 0.471865 0.657533 -0.111562
C110  C     C_R   0.523739 0.051110 0.657311 -0.111956
C111  C     C_R   0.950918 0.527900 0.657527 -0.112686
C112  C     C_R   0.476226 0.948855 0.657313 -0.111904
C113  C     C_R   0.500021 0.999984 0.865491 -0.116073
C114  C     C_R   0.000026 0.499925 0.865589 -0.136150
C115  C     C_R   0.499980 0.999986 0.134509 -0.116076
C116  C     C_R   0.999975 0.499924 0.134411 -0.136150
C117  C     C_R   0.000092 0.499969 0.365493 -0.116975
C118  C     C_R   0.500039 0.000000 0.365593 -0.121086
C119  C     C_R   0.999909 0.499973 0.634506 -0.116974
C120  C     C_R   0.499961 0.999999 0.634407 -0.121087
C121  C     C_R   0.457273 0.962640 0.796466 -0.026807
C122  C     C_R   0.966647 0.545936 0.796603 -0.030067
C123  C     C_R   0.542858 0.037223 0.796430 -0.026294
C124  C     C_R   0.032881 0.453483 0.796569 -0.015512
C125  C     C_R   0.457143 0.037226 0.203570 -0.026292
C126  C     C_R   0.967121 0.453479 0.203429 -0.015509
C127  C     C_R   0.542733 0.962647 0.203533 -0.026804
C128  C     C_R   0.033357 0.545932 0.203398 -0.030069
C129  C     C_R   0.957672 0.462286 0.296478 -0.025742
C130  C     C_R   0.466653 0.046011 0.296607 -0.025036
C131  C     C_R   0.042928 0.537198 0.296433 -0.026304
C132  C     C_R   0.533303 0.953895 0.296581 -0.024946
C133  C     C_R   0.957077 0.537204 0.703568 -0.026306
C134  C     C_R   0.466703 0.953889 0.703418 -0.024941
C135  C     C_R   0.042331 0.462292 0.703521 -0.025742
C136  C     C_R   0.533347 0.046010 0.703394 -0.025035
O1    O     O_R   0.448270 0.091530 0.499990 -0.605121
O2    O     O_R   0.091530 0.551730 0.499990 -0.608476
O3    O     O_R   0.551730 0.908470 0.499990 -0.605059
O4    O     O_R   0.908470 0.448270 0.499990 -0.608346
O5    O     O_R   0.448270 0.908470 0.500010 -0.605068
O6    O     O_R   0.091530 0.448270 0.500010 -0.608345
O7    O     O_R   0.551730 0.091530 0.500010 -0.605125
O8    O     O_R   0.908470 0.551730 0.500010 -0.608431
O9    O     O_R   0.948270 0.591530 0.999990 -0.600514
O10   O     O_R   0.591530 0.051730 0.999990 -0.605138
O11   O     O_R   0.051730 0.408470 0.999990 -0.606925
O12   O     O_R   0.408470 0.948270 0.999990 -0.609065
O13   O     O_R   0.948270 0.408470 0.000010 -0.606921
O14   O     O_R   0.591530 0.948270 0.000010 -0.609080
O15   O     O_R   0.051730 0.591530 0.000010 -0.600512
O16   O     O_R   0.408470 0.051730 0.000010 -0.605139
O17   O     O_R   0.448270 0.999890 0.566070 -0.591942
O18   O     O_R   0.999890 0.551730 0.566070 -0.588475
O19   O     O_R   0.551730 0.000110 0.566070 -0.592052
O20   O     O_R   0.000110 0.448270 0.566070 -0.589000
O21   O     O_R   0.448270 0.000110 0.433930 -0.592055
O22   O     O_R   0.999890 0.448270 0.433930 -0.589002
O23   O     O_R   0.551730 0.999890 0.433930 -0.591940
O24   O     O_R   0.000110 0.551730 0.433930 -0.588458
O25   O     O_R   0.948270 0.499890 0.066070 -0.570653
O26   O     O_R   0.499890 0.051730 0.066070 -0.587485
O27   O     O_R   0.051730 0.500110 0.066070 -0.622034
O28   O     O_R   0.500110 0.948270 0.066070 -0.588803
O29   O     O_R   0.948270 0.500110 0.933930 -0.622032
O30   O     O_R   0.499890 0.948270 0.933930 -0.588808
O31   O     O_R   0.051730 0.499890 0.933930 -0.570652
O32   O     O_R   0.500110 0.051730 0.933930 -0.587482
O33   O     O_R   0.408290 0.499920 0.462700 -0.598208
O34   O     O_R   0.499920 0.591710 0.462700 -0.583271
O35   O     O_R   0.591710 0.500080 0.462700 -0.598138
O36   O     O_R   0.500080 0.408290 0.462700 -0.583280
O37   O     O_R   0.408290 0.500080 0.537300 -0.598218
O38   O     O_R   0.499920 0.408290 0.537300 -0.583272
O39   O     O_R   0.591710 0.499920 0.537300 -0.598289
O40   O     O_R   0.500080 0.591710 0.537300 -0.583312
O41   O     O_R   0.908290 0.999920 0.962700 -0.599354
O42   O     O_R   0.999920 0.091710 0.962700 -0.623273
O43   O     O_R   0.091710 0.000080 0.962700 -0.605703
O44   O     O_R   0.000080 0.908290 0.962700 -0.583082
O45   O     O_R   0.908290 0.000080 0.037300 -0.605695
O46   O     O_R   0.999920 0.908290 0.037300 -0.583070
O47   O     O_R   0.091710 0.999920 0.037300 -0.599334
O48   O     O_R   0.000080 0.091710 0.037300 -0.623281
Zn1   Zn    Zn3+2 0.430930 0.000000 0.500000 1.061981
Zn2   Zn    Zn3+2 0.000000 0.569070 0.500000 1.060795
Zn3   Zn    Zn3+2 0.569070 0.000000 0.500000 1.061989
Zn4   Zn    Zn3+2 0.000000 0.430930 0.500000 1.060010
Zn5   Zn    Zn3+2 0.930930 0.500000 0.000000 1.059418
Zn6   Zn    Zn3+2 0.500000 0.069070 0.000000 1.071666
Zn7   Zn    Zn3+2 0.069070 0.500000 0.000000 1.059418
Zn8   Zn    Zn3+2 0.500000 0.930930 0.000000 1.061611
Zn9   Zn    Zn3+2 0.500000 0.500000 0.450200 1.079992
Zn10  Zn    Zn3+2 0.500000 0.500000 0.549800 1.079953
Zn11  Zn    Zn3+2 0.000000 0.000000 0.950200 1.048736
Zn12  Zn    Zn3+2 0.000000 0.000000 0.049800 1.048738
C137  C     C_R   0.384725 0.870850 0.797381 0.099388
C138  C     C_R   0.414764 0.825629 0.822714 -0.117671
C139  C     C_R   0.380510 0.781089 0.845392 -0.114648
C140  C     C_R   0.316180 0.781313 0.842872 -0.096241
C141  C     C_R   0.285961 0.826077 0.817657 -0.099989
C142  C     C_R   0.319998 0.870739 0.794952 -0.154445
H1    H     H_    0.464589 0.825015 0.824857 0.135728
H2    H     H_    0.403838 0.746392 0.864929 0.128781
H3    H     H_    0.289744 0.746813 0.860474 0.129322
H4    H     H_    0.236149 0.826236 0.815776 0.144686
H5    H     H_    0.296100 0.905459 0.775753 0.133319
C143  C     C_R   0.882596 0.627513 0.797192 0.101185
C144  C     C_R   0.834151 0.602487 0.822292 -0.115862
C145  C     C_R   0.793368 0.641318 0.844819 -0.119503
C146  C     C_R   0.800557 0.705256 0.842361 -0.089492
C147  C     C_R   0.848513 0.730507 0.817326 -0.097923
C148  C     C_R   0.889435 0.691882 0.794763 -0.164287
H6    H     H_    0.828168 0.553014 0.824404 0.132679
H7    H     H_    0.756193 0.621841 0.864205 0.130374
H8    H     H_    0.768976 0.735238 0.859863 0.142617
H9    H     H_    0.854047 0.780017 0.815479 0.153511
H10   H     H_    0.926670 0.711919 0.775693 0.133387
C149  C     C_R   0.615613 0.128865 0.797249 0.099588
C150  C     C_R   0.585730 0.174185 0.822609 -0.119769
C151  C     C_R   0.620136 0.218643 0.845227 -0.114158
C152  C     C_R   0.684462 0.218240 0.842616 -0.083179
C153  C     C_R   0.714526 0.173380 0.817371 -0.103621
C154  C     C_R   0.680338 0.128800 0.794726 -0.155774
H11   H     H_    0.535909 0.174938 0.824821 0.136983
H12   H     H_    0.596927 0.253417 0.864786 0.133033
H13   H     H_    0.711016 0.252678 0.860171 0.147196
H14   H     H_    0.764337 0.173084 0.815420 0.138026
H15   H     H_    0.704115 0.094008 0.775498 0.132465
C155  C     C_R   0.116311 0.371213 0.796860 0.119925
C156  C     C_R   0.165354 0.395695 0.821594 -0.106162
C157  C     C_R   0.205907 0.356407 0.843895 -0.111482
C158  C     C_R   0.197888 0.292557 0.841565 -0.076720
C159  C     C_R   0.149335 0.267851 0.816881 -0.108251
C160  C     C_R   0.108648 0.306934 0.794540 -0.166237
H16   H     H_    0.171980 0.445094 0.823595 0.133676
H17   H     H_    0.243548 0.375461 0.863002 0.133003
H18   H     H_    0.229294 0.262221 0.858890 0.147152
H19   H     H_    0.143169 0.218409 0.815125 0.151028
H20   H     H_    0.070974 0.287328 0.775713 0.128557
C161  C     C_R   0.384385 0.128864 0.202753 0.099587
C162  C     C_R   0.414268 0.174186 0.177394 -0.119766
C163  C     C_R   0.379861 0.218643 0.154778 -0.114154
C164  C     C_R   0.315534 0.218238 0.157388 -0.083181
C165  C     C_R   0.285471 0.173375 0.182631 -0.103617
C166  C     C_R   0.319661 0.128796 0.205276 -0.155772
H21   H     H_    0.464089 0.174941 0.175182 0.136982
H22   H     H_    0.403069 0.253418 0.135219 0.133033
H23   H     H_    0.288979 0.252674 0.139833 0.147195
H24   H     H_    0.235661 0.173077 0.184582 0.138027
H25   H     H_    0.295884 0.094003 0.224502 0.132466
C167  C     C_R   0.883691 0.371207 0.203138 0.119926
C168  C     C_R   0.834647 0.395689 0.178405 -0.106159
C169  C     C_R   0.794093 0.356401 0.156104 -0.111485
C170  C     C_R   0.802113 0.292552 0.158432 -0.076710
C171  C     C_R   0.850668 0.267845 0.183114 -0.108247
C172  C     C_R   0.891356 0.306928 0.205455 -0.166242
H26   H     H_    0.828020 0.445089 0.176406 0.133676
H27   H     H_    0.756451 0.375455 0.136999 0.133005
H28   H     H_    0.770707 0.262215 0.141106 0.147165
H29   H     H_    0.856835 0.218404 0.184868 0.151031
H30   H     H_    0.929031 0.287322 0.224280 0.128557
C173  C     C_R   0.615288 0.870864 0.202617 0.099389
C174  C     C_R   0.585253 0.825639 0.177285 -0.117671
C175  C     C_R   0.619510 0.781103 0.154606 -0.114647
C176  C     C_R   0.683840 0.781333 0.157125 -0.096237
C177  C     C_R   0.714055 0.826101 0.182340 -0.099989
C178  C     C_R   0.680015 0.870760 0.205045 -0.154445
H31   H     H_    0.535427 0.825020 0.175142 0.135724
H32   H     H_    0.596185 0.746402 0.135069 0.128779
H33   H     H_    0.710279 0.746836 0.139522 0.129320
H34   H     H_    0.763868 0.826265 0.184221 0.144682
H35   H     H_    0.703910 0.905482 0.224244 0.133318
C179  C     C_R   0.117411 0.627506 0.202810 0.101186
C180  C     C_R   0.165854 0.602478 0.177709 -0.115866
C181  C     C_R   0.206639 0.641308 0.155182 -0.119497
C182  C     C_R   0.199454 0.705246 0.157642 -0.089507
C183  C     C_R   0.151499 0.730499 0.182678 -0.097934
C184  C     C_R   0.110576 0.691875 0.205241 -0.164280
H36   H     H_    0.171834 0.553005 0.175595 0.132679
H37   H     H_    0.243813 0.621830 0.135796 0.130371
H38   H     H_    0.231036 0.735228 0.140140 0.142593
H39   H     H_    0.145968 0.780009 0.184527 0.153507
H40   H     H_    0.073342 0.711913 0.224312 0.133384
C185  C     C_R   0.885898 0.369938 0.297542 0.100282
C186  C     C_R   0.916341 0.325140 0.323012 -0.118285
C187  C     C_R   0.882494 0.280380 0.345781 -0.116947
C188  C     C_R   0.818169 0.279963 0.343218 -0.096972
C189  C     C_R   0.787548 0.324308 0.317874 -0.098749
C190  C     C_R   0.821177 0.369190 0.295079 -0.155892
H41   H     H_    0.966167 0.325021 0.325190 0.134281
H42   H     H_    0.906134 0.246008 0.365421 0.127021
H43   H     H_    0.792048 0.245292 0.360890 0.128143
H44   H     H_    0.737738 0.323976 0.315963 0.144787
H45   H     H_    0.796963 0.403591 0.275790 0.132665
C191  C     C_R   0.382319 0.127287 0.297185 0.102397
C192  C     C_R   0.333940 0.102091 0.322262 -0.114617
C193  C     C_R   0.293006 0.140778 0.344776 -0.122672
C194  C     C_R   0.299980 0.204741 0.342327 -0.090440
C195  C     C_R   0.347870 0.230160 0.317315 -0.097116
C196  C     C_R   0.388941 0.191679 0.294766 -0.164408
H46   H     H_    0.328122 0.052597 0.324365 0.134262
H47   H     H_    0.255881 0.121171 0.364143 0.128353
H48   H     H_    0.268282 0.234612 0.359819 0.141938
H49   H     H_    0.353237 0.279689 0.315475 0.154369
H50   H     H_    0.426122 0.211846 0.275711 0.133855
C197  C     C_R   0.115323 0.629102 0.297253 0.098933
C198  C     C_R   0.085248 0.674284 0.322624 -0.117680
C199  C     C_R   0.119465 0.718878 0.345250 -0.115907
C200  C     C_R   0.183791 0.718750 0.342637 -0.097104
C201  C     C_R   0.214045 0.674027 0.317382 -0.099104
C202  C     C_R   0.180046 0.629310 0.294729 -0.154233
H51   H     H_    0.035425 0.674825 0.324837 0.135560
H52   H     H_    0.096110 0.753545 0.364818 0.127571
H53   H     H_    0.210199 0.753293 0.360199 0.128513
H54   H     H_    0.263855 0.673944 0.315428 0.145015
H55   H     H_    0.203970 0.594626 0.275495 0.133702
C203  C     C_R   0.617545 0.872515 0.297050 0.101968
C204  C     C_R   0.666016 0.897659 0.322024 -0.114426
C205  C     C_R   0.706935 0.858929 0.344482 -0.121625
C206  C     C_R   0.699855 0.794975 0.342077 -0.089369
C207  C     C_R   0.651873 0.769608 0.317165 -0.096784
C208  C     C_R   0.610817 0.808132 0.294672 -0.164411
H56   H     H_    0.671916 0.947146 0.324093 0.134440
H57   H     H_    0.744131 0.878496 0.363771 0.128719
H58   H     H_    0.731541 0.765070 0.359525 0.142403
H59   H     H_    0.646425 0.720086 0.315358 0.154436
H60   H     H_    0.573567 0.788006 0.275694 0.133836
C209  C     C_R   0.884685 0.629111 0.702749 0.098933
C210  C     C_R   0.914762 0.674292 0.677379 -0.117674
C211  C     C_R   0.880547 0.718887 0.654754 -0.115908
C212  C     C_R   0.816221 0.718761 0.657366 -0.097104
C213  C     C_R   0.785965 0.674039 0.682621 -0.099099
C214  C     C_R   0.819962 0.629320 0.705273 -0.154237
H61   H     H_    0.964586 0.674832 0.675167 0.135562
H62   H     H_    0.903904 0.753554 0.635188 0.127574
H63   H     H_    0.789816 0.753305 0.639806 0.128523
H64   H     H_    0.736155 0.673957 0.684575 0.145033
H65   H     H_    0.796036 0.594637 0.724506 0.133706
C215  C     C_R   0.382469 0.872500 0.702948 0.101964
C216  C     C_R   0.333995 0.897638 0.677974 -0.114424
C217  C     C_R   0.293080 0.858903 0.655516 -0.121646
C218  C     C_R   0.300167 0.794950 0.657920 -0.089327
C219  C     C_R   0.348152 0.769588 0.682831 -0.096753
C220  C     C_R   0.389204 0.808118 0.705325 -0.164425
H66   H     H_    0.328089 0.947124 0.675907 0.134442
H67   H     H_    0.255882 0.878465 0.636227 0.128726
H68   H     H_    0.268485 0.765042 0.640471 0.142470
H69   H     H_    0.353606 0.720067 0.684637 0.154444
H70   H     H_    0.426456 0.787996 0.724303 0.133845
C221  C     C_R   0.114108 0.369947 0.702456 0.100285
C222  C     C_R   0.083666 0.325149 0.676983 -0.118292
C223  C     C_R   0.117514 0.280391 0.654213 -0.116950
C224  C     C_R   0.181839 0.279975 0.656777 -0.096970
C225  C     C_R   0.212458 0.324320 0.682124 -0.098758
C226  C     C_R   0.178828 0.369200 0.704920 -0.155899
H71   H     H_    0.033839 0.325029 0.674804 0.134281
H72   H     H_    0.093875 0.246019 0.634571 0.127021
H73   H     H_    0.207961 0.245306 0.639104 0.128144
H74   H     H_    0.262268 0.323989 0.684035 0.144785
H75   H     H_    0.203041 0.403602 0.724210 0.132661
C227  C     C_R   0.617679 0.127290 0.702817 0.102395
C228  C     C_R   0.666058 0.102096 0.677739 -0.114617
C229  C     C_R   0.706990 0.140786 0.655225 -0.122668
C230  C     C_R   0.700015 0.204748 0.657676 -0.090452
C231  C     C_R   0.652124 0.230164 0.682689 -0.097123
C232  C     C_R   0.611055 0.191681 0.705238 -0.164402
H76   H     H_    0.671877 0.052603 0.675635 0.134262
H77   H     H_    0.744115 0.121180 0.635857 0.128352
H78   H     H_    0.731711 0.234621 0.640184 0.141925
H79   H     H_    0.646756 0.279693 0.684531 0.154367
H80   H     H_    0.573874 0.211846 0.724294 0.133855
C233  C     C_2   0.595830 0.186979 0.450808 0.446869
H81   H     H_    0.643980 0.200011 0.453079 0.034889
O49   O     O_2   0.581040 0.147709 0.423894 -0.579355
C234  C     C_2   0.185274 0.410621 0.445429 0.509916
H82   H     H_    0.199035 0.362538 0.446133 0.063259
O50   O     O_2   0.144124 0.426389 0.420338 -0.587076
C235  C     C_2   0.404205 0.813018 0.450840 0.446781
H83   H     H_    0.356054 0.799983 0.453131 0.034976
O51   O     O_2   0.419014 0.852285 0.423919 -0.579623
C236  C     C_2   0.814820 0.589308 0.445364 0.510627
H84   H     H_    0.801039 0.637387 0.446032 0.063187
O52   O     O_2   0.856030 0.573523 0.420297 -0.585949
C237  C     C_2   0.595795 0.813009 0.549154 0.446880
H85   H     H_    0.643942 0.799956 0.546865 0.034979
O53   O     O_2   0.581000 0.852287 0.576072 -0.579613
C238  C     C_2   0.185177 0.589332 0.554613 0.510790
H86   H     H_    0.198928 0.637420 0.553912 0.063220
O54   O     O_2   0.143995 0.573547 0.579704 -0.585934
C239  C     C_2   0.404171 0.186979 0.549192 0.446877
H87   H     H_    0.356021 0.200011 0.546921 0.034888
O55   O     O_2   0.418961 0.147710 0.576106 -0.579352
C240  C     C_2   0.814726 0.410634 0.554582 0.509860
H88   H     H_    0.800957 0.362553 0.553890 0.063263
O56   O     O_2   0.855884 0.426405 0.579664 -0.587093
C241  C     C_2   0.095984 0.687005 0.950965 0.447373
H89   H     H_    0.144140 0.699973 0.953349 0.035730
O57   O     O_2   0.081250 0.647815 0.923975 -0.577426
C242  C     C_2   0.685270 0.910751 0.945311 0.510575
H90   H     H_    0.699151 0.862699 0.945879 0.063726
O58   O     O_2   0.644004 0.926522 0.920322 -0.587040
C243  C     C_2   0.917459 0.317153 0.940991 0.386299
H91   H     H_    0.933949 0.358312 0.924459 0.079031
O59   O     O_2   0.863819 0.301887 0.935555 -0.577372
C244  C     C_2   0.314851 0.089050 0.945119 0.510306
H92   H     H_    0.300756 0.137043 0.945514 0.078679
O60   O     O_2   0.356372 0.073339 0.920297 -0.588810
C245  C     C_2   0.082541 0.317155 0.059009 0.386298
H93   H     H_    0.066051 0.358315 0.075540 0.079025
O61   O     O_2   0.136180 0.301890 0.064446 -0.577373
C246  C     C_2   0.685150 0.089059 0.054874 0.510336
H94   H     H_    0.699241 0.137053 0.054473 0.078690
O62   O     O_2   0.643633 0.073351 0.079700 -0.588807
C247  C     C_2   0.904019 0.687002 0.049038 0.447348
H95   H     H_    0.855861 0.699964 0.046655 0.035729
O63   O     O_2   0.918757 0.647816 0.076029 -0.577426
C248  C     C_2   0.314727 0.910757 0.054695 0.510521
H96   H     H_    0.300835 0.862707 0.054137 0.063703
O64   O     O_2   0.356003 0.926529 0.079676 -0.587040
C249  C     C_2   0.605398 0.316409 0.463721 0.324503
H97   H     H_    0.650774 0.304430 0.476120 0.034454
O65   O     O_2   0.601086 0.354834 0.434392 -0.523257
C250  C     C_2   0.318401 0.409456 0.447769 0.391161
H98   H     H_    0.360401 0.389863 0.461187 0.060405
O66   O     O_2   0.302755 0.394591 0.410425 -0.577814
C251  C     C_2   0.394634 0.683589 0.463745 0.324472
H99   H     H_    0.349249 0.695533 0.476182 0.034460
O67   O     O_2   0.398972 0.645207 0.434383 -0.523373
C252  C     C_2   0.681690 0.590463 0.447682 0.391174
H100  H     H_    0.639691 0.610103 0.461104 0.060166
O68   O     O_2   0.697376 0.605258 0.410319 -0.577394
C253  C     C_2   0.605324 0.683577 0.536277 0.324713
H101  H     H_    0.650706 0.695429 0.523803 0.034360
O69   O     O_2   0.600969 0.645298 0.565697 -0.523337
C254  C     C_2   0.318316 0.590498 0.552292 0.391147
H102  H     H_    0.360344 0.610085 0.538882 0.060356
O70   O     O_2   0.302594 0.605379 0.589629 -0.577515
C255  C     C_2   0.394604 0.316408 0.536281 0.324495
H103  H     H_    0.349227 0.304432 0.523883 0.034459
O71   O     O_2   0.398917 0.354830 0.565613 -0.523270
C256  C     C_2   0.681600 0.409471 0.552244 0.391179
H104  H     H_    0.639608 0.389862 0.538826 0.060412
O72   O     O_2   0.697239 0.394632 0.589594 -0.577803
C257  C     C_2   0.105593 0.816418 0.964005 0.322452
H105  H     H_    0.150921 0.804272 0.976411 0.035202
O73   O     O_2   0.101422 0.855049 0.934804 -0.525056
C258  C     C_2   0.818363 0.909748 0.947512 0.387035
H106  H     H_    0.860314 0.889985 0.960882 0.060305
O74   O     O_2   0.802748 0.895215 0.910094 -0.578231
C259  C     C_2   0.914716 0.184128 0.942490 0.507395
H107  H     H_    0.909241 0.198321 0.908255 0.072682
O75   O     O_2   0.883076 0.141929 0.956549 -0.603130
C260  C     C_2   0.181840 0.089659 0.946863 0.415532
H108  H     H_    0.140002 0.109895 0.960092 0.115531
O76   O     O_2   0.197504 0.103472 0.909302 -0.589311
C261  C     C_2   0.085284 0.184130 0.057509 0.507397
H109  H     H_    0.090759 0.198323 0.091745 0.072683
O77   O     O_2   0.116924 0.141931 0.043450 -0.603125
C262  C     C_2   0.818162 0.089667 0.053131 0.415552
H110  H     H_    0.860009 0.109890 0.039905 0.115532
O78   O     O_2   0.802489 0.103498 0.090687 -0.589332
C263  C     C_2   0.894397 0.816413 0.035988 0.322400
H111  H     H_    0.849069 0.804247 0.023593 0.035248
O79   O     O_2   0.898562 0.855069 0.065172 -0.525092
C264  C     C_2   0.181637 0.909760 0.052497 0.387037
H112  H     H_    0.139697 0.889977 0.039121 0.060236
O80   O     O_2   0.197241 0.895258 0.089925 -0.578173
C265  C     C_2   0.609509 0.038666 0.864591 0.481012
H113  H     H_    0.651593 0.026099 0.847395 0.085022
O81   O     O_2   0.613389 0.063131 0.900848 -0.555757
C266  C     C_2   0.030343 0.388236 0.865644 0.328444
H114  H     H_    0.012586 0.346923 0.849935 0.067312
O82   O     O_2   0.057350 0.383516 0.900905 -0.565237
C267  C     C_2   0.390564 0.961192 0.864641 0.479186
H115  H     H_    0.348486 0.973700 0.847449 0.085312
O83   O     O_2   0.386672 0.936740 0.900903 -0.560538
C268  C     C_2   0.969855 0.611729 0.865358 0.477723
H116  H     H_    0.986674 0.652980 0.849033 0.081641
O84   O     O_2   0.944215 0.616721 0.901140 -0.564377
C269  C     C_2   0.609439 0.961202 0.135357 0.479177
H117  H     H_    0.651517 0.973715 0.152548 0.085316
O85   O     O_2   0.613331 0.936748 0.099095 -0.560545
C270  C     C_2   0.030148 0.611727 0.134645 0.477732
H118  H     H_    0.013333 0.652978 0.150972 0.081633
O86   O     O_2   0.055786 0.616720 0.098863 -0.564376
C271  C     C_2   0.390492 0.038667 0.135410 0.481017
H119  H     H_    0.348409 0.026097 0.152605 0.085026
O87   O     O_2   0.386613 0.063134 0.099154 -0.555750
C272  C     C_2   0.969655 0.388235 0.134353 0.328442
H120  H     H_    0.987414 0.346922 0.150059 0.067309
O88   O     O_2   0.942646 0.383517 0.099093 -0.565228
C273  C     C_2   0.109544 0.538830 0.364605 0.479009
H121  H     H_    0.151656 0.526472 0.347367 0.085377
O89   O     O_2   0.113377 0.563148 0.400914 -0.560091
C274  C     C_2   0.530504 0.888262 0.365427 0.468723
H122  H     H_    0.513729 0.846931 0.349197 0.084476
O90   O     O_2   0.556289 0.883417 0.401146 -0.566334
C275  C     C_2   0.890669 0.460961 0.364484 0.480314
H123  H     H_    0.848641 0.472947 0.347038 0.085138
O91   O     O_2   0.886642 0.437084 0.400935 -0.560157
C276  C     C_2   0.469566 0.111742 0.365397 0.469049
H124  H     H_    0.486254 0.153058 0.349088 0.084338
O92   O     O_2   0.443904 0.116631 0.401178 -0.566273
C277  C     C_2   0.109335 0.460972 0.635515 0.480297
H125  H     H_    0.151362 0.472957 0.652963 0.085135
O93   O     O_2   0.113363 0.437101 0.599062 -0.560176
C278  C     C_2   0.530431 0.111742 0.634605 0.469051
H126  H     H_    0.513743 0.153057 0.650915 0.084337
O94   O     O_2   0.556092 0.116633 0.598824 -0.566275
C279  C     C_2   0.890459 0.538839 0.635396 0.479023
H127  H     H_    0.848347 0.526481 0.652633 0.085375
O95   O     O_2   0.886628 0.563159 0.599088 -0.560081
C280  C     C_2   0.469505 0.888258 0.634569 0.468712
H128  H     H_    0.486285 0.846928 0.650798 0.084495
O96   O     O_2   0.443719 0.883413 0.598852 -0.566333

loop_
_geom_bond_atom_site_label_1
_geom_bond_atom_site_label_2
_ccdc_geom_bond_type
C29   C133  A    
C251  H99   S    
C174  H31   S    
C37   C69   A    
C261  H109  S    
C153  C154  A    
C24   C27   A    
C100  C268  S    
C21   C26   A    
C8    C56   S    
C105  C131  A    
C14   C132  A    
C213  C214  A    
C195  C196  A    
C106  C132  A    
C140  H3    S    
C203  C208  A    
C23   C127  A    
C243  O59   D    
C10   C124  A    
C217  H67   S    
C241  O57   D    
C42   C242  S    
C6    O10   A    
C85   C96   S    
O3    Zn3   S    
C98   C114  A    
C12   C126  A    
C87   C94   S    
C90   O40   A    
O32   Zn6   S    
C164  C165  A    
C179  C180  A    
C94   O42   A    
C150  C151  A    
O16   Zn6   S    
C104  C116  A    
C93   O45   A    
C214  H65   S    
C275  O91   D    
C9    C121  A    
C192  H46   S    
C17   C137  S    
C156  H16   S    
C84   C91   S    
C7    C55   S    
C46   C246  S    
C248  O64   D    
C26   C130  A    
C107  C129  A    
C99   C121  A    
C88   C95   S    
C139  C140  A    
C76   C260  S    
C165  C166  A    
C106  C118  A    
C17   C30   A    
C70   C254  S    
C6    C54   S    
C19   C32   A    
C43   C75   A    
C276  O92   D    
C210  C211  A    
C263  H111  S    
C2    O2    A    
C173  C174  A    
C43   C243  S    
C215  C216  A    
C112  C120  A    
C217  C218  A    
O33   Zn9   S    
C265  H113  S    
O43   Zn11  S    
C75   C259  S    
C175  H32   S    
C33   C233  S    
C66   C82   A    
C177  H34   S    
C225  C226  A    
C23   C173  S    
C199  H52   S    
C222  C223  A    
C204  H56   S    
O47   Zn12  S    
C60   C117  S    
C271  O87   D    
C39   C239  S    
C96   O44   A    
C72   C84   A    
C18   C122  A    
C186  H41   S    
C242  O58   D    
C191  C192  A    
C78   C262  S    
O38   Zn10  S    
C273  O89   D    
C35   C51   A    
C139  H2    S    
C101  C115  A    
C244  O60   D    
C272  H120  S    
C65   C249  S    
O26   Zn6   S    
C254  H102  S    
C21   C161  S    
C14   C130  A    
C219  H69   S    
O41   Zn11  S    
O2    Zn2   S    
C111  C133  A    
C189  H44   S    
C112  C134  A    
C10   C122  A    
C4    O8    A    
O34   Zn9   S    
C36   C68   A    
C199  C200  A    
C12   C128  A    
O31   Zn7   S    
O13   Zn5   S    
C5    O15   A    
C91   O35   A    
C258  H106  S    
C180  H36   S    
C89   O33   A    
C80   C88   A    
C106  C274  S    
C154  H15   S    
C181  C182  A    
C95   O47   A    
C169  H27   S    
C92   O36   A    
C58   C119  S    
C9    C123  A    
C257  H105  S    
C70   C82   A    
C252  O68   D    
C198  H51   S    
C45   C245  S    
C147  C148  A    
C206  C207  A    
O37   Zn10  S    
C68   C252  S    
O19   Zn3   S    
C67   C251  S    
C245  H93   S    
C230  C231  A    
C231  H79   S    
C160  H20   S    
C163  C164  A    
C158  C159  A    
C167  C168  A    
C237  O53   D    
C165  H24   S    
C195  H49   S    
C182  H38   S    
C67   C83   A    
C143  C148  A    
C109  C135  A    
C228  H76   S    
C110  C136  A    
C221  C222  A    
C3    O5    A    
O35   Zn9   S    
C16   C134  A    
C34   C66   A    
C24   C179  S    
C98   C124  A    
C251  O67   D    
C19   C123  A    
C226  H75   S    
C82   C89   S    
C69   C83   A    
C152  H13   S    
C246  H94   S    
C8    O16   A    
O21   Zn1   S    
C102  C128  A    
C176  H33   S    
C255  O71   D    
C168  C169  A    
C227  C228  A    
C145  H7    S    
C229  C230  A    
C111  C119  A    
C197  C202  A    
O23   Zn3   S    
C220  H70   S    
C44   C76   A    
O45   Zn12  S    
C2    C50   S    
C149  C154  A    
C81   C92   S    
C207  H59   S    
O11   Zn7   S    
C238  H86   S    
C30   C134  A    
C22   C25   A    
C247  O63   D    
C260  H108  S    
C194  H48   S    
C108  C130  A    
C36   C52   A    
C66   C250  S    
C63   O31   A    
C146  H8    S    
C182  C183  A    
C222  H71   S    
C26   C191  S    
C31   C221  S    
C168  H26   S    
C270  H118  S    
C234  O50   D    
C269  H117  S    
C7    O11   A    
C166  H25   S    
C62   O28   A    
C277  O93   D    
C5    O9    A    
C164  H23   S    
C179  C184  A    
C60   O22   A    
C100  C114  A    
C266  H114  S    
C240  H88   S    
C93   O41   A    
C92   O38   A    
C73   C257  S    
C28   C132  A    
C229  H77   S    
C11   C127  A    
C151  C152  A    
C86   C93   S    
C35   C67   A    
C209  C214  A    
C41   C53   A    
C274  O90   D    
C144  C145  A    
C137  C142  A    
C18   C29   A    
C23   C28   A    
C73   C85   A    
C232  H80   S    
C58   O20   A    
C57   C120  S    
C43   C55   A    
C250  H98   S    
C39   C49   A    
C264  H112  S    
C59   C118  S    
C142  H5    S    
C157  H17   S    
C2    O6    A    
C196  H50   S    
C29   C209  S    
C215  C220  A    
C279  H127  S    
C16   C136  A    
C1    O1    A    
C101  C269  S    
C75   C87   A    
C239  O55   D    
C170  H28   S    
C39   C71   A    
C40   C72   A    
C112  C280  S    
C242  H90   S    
O22   Zn4   S    
C212  H63   S    
C148  H10   S    
C205  C206  A    
C141  C142  A    
C47   C53   A    
C183  H39   S    
O40   Zn10  S    
C280  H128  S    
C62   C115  S    
C97   C123  A    
C32   C227  S    
C241  H89   S    
C101  C127  A    
C193  H47   S    
C34   C234  S    
C137  C138  A    
C103  C125  A    
C20   C124  A    
C41   C73   A    
C259  H107  S    
C63   O29   A    
O5    Zn1   S    
C12   C13   A    
C45   C55   A    
C224  C225  A    
C271  H119  S    
C24   C128  A    
C13   C129  A    
C183  C184  A    
C45   C77   A    
C256  H104  S    
O28   Zn8   S    
C97   C113  A    
C44   C244  S    
C278  H126  S    
C71   C81   A    
O12   Zn8   S    
C38   C70   A    
C41   C241  S    
C236  H84   S    
C180  C181  A    
C89   O37   A    
C218  C219  A    
C223  C224  A    
C235  H83   S    
C198  C199  A    
C249  H97   S    
C272  O88   D    
C74   C258  S    
C278  O94   D    
C11   C125  A    
C233  O49   D    
C147  H9    S    
C33   C49   A    
C206  H58   S    
C209  C210  A    
C98   C266  S    
C231  C232  A    
C64   O30   A    
C58   O18   A    
C59   O23   A    
C36   C236  S    
C143  C144  A    
C253  O69   D    
O29   Zn5   S    
C228  C229  A    
O24   Zn2   S    
C227  C232  A    
O20   Zn4   S    
C207  C208  A    
C3    O3    A    
C255  H103  S    
C61   O27   A    
C273  H121  S    
C261  O77   D    
C105  C117  A    
O36   Zn9   S    
C8    O12   A    
C94   O48   A    
C270  O86   D    
C254  O70   D    
C167  C172  A    
O1    Zn1   S    
C200  H53   S    
C265  O81   D    
C30   C215  S    
C173  C178  A    
C42   C74   A    
C20   C155  S    
C161  C166  A    
C68   C84   A    
C31   C135  A    
C149  C150  A    
C46   C78   A    
C3    C51   S    
O48   Zn12  S    
C57   O17   A    
C151  H12   S    
C197  C198  A    
O4    Zn4   S    
O46   Zn12  S    
C103  C115  A    
C158  H18   S    
C185  C186  A    
O18   Zn2   S    
C44   C56   A    
C65   C81   A    
C187  C188  A    
C177  C178  A    
C72   C256  S    
C46   C54   A    
C61   C116  S    
C162  C163  A    
C13   C131  A    
C155  C160  A    
C205  H57   S    
O44   Zn11  S    
C240  O56   D    
C38   C50   A    
C17   C121  A    
C264  O80   D    
C48   C248  S    
C159  C160  A    
C21   C125  A    
C108  C276  S    
C109  C119  A    
C32   C136  A    
C237  H85   S    
C109  C277  S    
C276  H124  S    
O9    Zn5   S    
C221  C226  A    
C99   C267  S    
C96   O46   A    
C40   C240  S    
C99   C113  A    
C216  H66   S    
O6    Zn4   S    
C144  H6    S    
C162  H21   S    
C246  O62   D    
C64   O32   A    
C42   C54   A    
C59   O21   A    
C107  C275  S    
C62   O26   A    
C213  H64   S    
C157  C158  A    
C79   C85   A    
C27   C197  S    
C141  H4    S    
O30   Zn8   S    
C103  C271  S    
C155  C156  A    
C235  O51   D    
C204  C205  A    
C6    O14   A    
C71   C255  S    
C262  H110  S    
C238  O54   D    
C200  C201  A    
C138  H1    S    
C244  H92   S    
C260  O76   D    
C110  C278  S    
C107  C117  A    
C224  H73   S    
C258  O74   D    
C259  O75   D    
C201  C202  A    
C279  O95   D    
C27   C131  A    
C192  C193  A    
C243  H91   S    
C47   C79   A    
C211  C212  A    
C25   C129  A    
C102  C270  S    
C33   C65   A    
C239  H87   S    
O8    Zn2   S    
C216  C217  A    
C22   C167  S    
C57   O19   A    
C277  H125  S    
C169  C170  A    
C4    C52   S    
C61   O25   A    
C5    C53   S    
C9    C16   A    
C266  O82   D    
C161  C162  A    
C10   C15   A    
C186  C187  A    
C37   C51   A    
C11   C14   A    
C22   C126  A    
C15   C135  A    
C181  H37   S    
C275  H123  S    
C163  H22   S    
C80   C264  S    
C208  H60   S    
C212  C213  A    
C257  O73   D    
C252  H100  S    
C219  C220  A    
C7    O13   A    
C63   C114  S    
C146  C147  A    
C172  H30   S    
C140  C141  A    
C77   C261  S    
C178  H35   S    
C138  C139  A    
C245  O61   D    
C175  C176  A    
C76   C88   A    
O39   Zn10  S    
C223  H72   S    
C171  H29   S    
C35   C235  S    
C78   C86   A    
O15   Zn7   S    
C225  H74   S    
C249  O65   D    
C201  H54   S    
C111  C279  S    
C268  H116  S    
C79   C263  S    
C37   C237  S    
C191  C196  A    
C34   C50   A    
C190  H45   S    
C108  C118  A    
O25   Zn5   S    
C110  C120  A    
C267  H115  S    
C194  C195  A    
C105  C273  S    
C153  H14   S    
C174  C175  A    
C40   C52   A    
C185  C190  A    
C28   C203  S    
C280  O96   D    
C203  C204  A    
C1    O7    A    
C4    O4    A    
C247  H95   S    
C171  C172  A    
C90   O34   A    
C184  H40   S    
C91   O39   A    
C47   C247  S    
C74   C86   A    
C268  O84   D    
C77   C87   A    
C230  H78   S    
C95   O43   A    
C253  H101  S    
C19   C149  S    
C256  O72   D    
C170  C171  A    
C234  H82   S    
C189  C190  A    
C248  H96   S    
C211  H62   S    
C48   C56   A    
C83   C90   S    
C236  O52   D    
C64   C113  S    
C69   C253  S    
C187  H42   S    
O7    Zn3   S    
C25   C185  S    
C60   O24   A    
C262  O78   D    
O27   Zn7   S    
C15   C133  A    
O42   Zn11  S    
C267  O83   D    
C18   C143  S    
C188  C189  A    
C48   C80   A    
C104  C272  S    
C97   C265  S    
C233  H81   S    
O17   Zn1   S    
C250  O66   D    
C274  H122  S    
C269  O85   D    
C150  H11   S    
C100  C122  A    
C159  H19   S    
C152  C153  A    
C102  C116  A    
C176  C177  A    
O14   Zn8   S    
C210  H61   S    
C104  C126  A    
C145  C146  A    
C193  C194  A    
C156  C157  A    
C263  O79   D    
C202  H55   S    
O10   Zn6   S    
C188  H43   S    
C218  H68   S    
C1    C49   S    
C20   C31   A    
C38   C238  S    
