data_mof_unit_24731.cif
_audit_creation_date              2012-12-11T14:50:42-0500
_audit_creation_method            fapswitch 2.2
_symmetry_space_group_name_H-M    P1
_symmetry_Int_Tables_number       1
_space_group_crystal_system       triclinic
_cell_length_a                    10.886128
_cell_length_b                    10.904543
_cell_length_c                    18.819171
_cell_angle_alpha                 90.379323
_cell_angle_beta                  89.80139
_cell_angle_gamma                 60.290094
_cell_volume                      1940.2224029

loop_
_atom_site_label
_atom_site_type_symbol
_atom_type_description
_atom_site_fract_x
_atom_site_fract_y
_atom_site_fract_z
_atom_type_partial_charge
C1    C     C_R   0.237282 0.646263 0.609985 0.559503
C2    C     C_R   0.552051 0.232294 0.797087 -0.144548
C3    C     C_R   0.535583 0.245739 0.724619 -0.141460
C4    C     C_R   0.653267 0.621789 0.601271 0.552012
C5    C     C_R   0.653325 0.198056 0.679440 0.037067
C6    C     C_R   0.188667 0.555243 0.721336 -0.152854
C7    C     C_R   0.178859 0.560226 0.795227 -0.158624
C8    C     C_R   0.173404 0.674540 0.832797 0.026051
C9    C     C_R   0.185971 0.778999 0.795986 -0.149437
C10   C     C_R   0.192904 0.775446 0.722918 -0.139969
C11   C     C_R   0.196212 0.662843 0.684771 0.048606
C12   C     C_3   0.674047 0.549383 0.799857 -0.254988
C13   C     C_R   0.729845 0.525983 0.271623 -0.123269
C14   C     C_R   0.728119 0.538562 0.198839 -0.129653
C15   C     C_R   0.650487 0.671343 0.167739 0.029637
C16   C     C_R   0.625662 0.232952 0.604449 0.558107
C17   C     C_R   0.561777 0.789341 0.210309 -0.128624
C18   C     C_R   0.559228 0.775379 0.283933 -0.132054
C19   C     C_R   0.647662 0.644168 0.315044 0.035182
C20   C     C_R   0.542639 0.159552 0.287464 -0.136053
C21   C     C_R   0.542301 0.155253 0.214655 -0.138186
C22   C     C_R   0.650989 0.158252 0.176313 0.038842
C23   C     C_3   0.699732 0.674453 0.812125 0.039399
C24   C     C_R   0.756784 0.172074 0.211601 -0.145375
C25   C     C_R   0.756064 0.178265 0.284932 -0.146658
C26   C     C_R   0.646810 0.175747 0.322990 0.038866
C27   C     C_R   0.088148 0.803416 0.305135 -0.134240
C28   C     C_R   0.218969 0.649579 0.402457 0.557592
C29   C     C_R   0.069368 0.815596 0.233021 -0.122000
C30   C     C_R   0.107311 0.695191 0.190621 0.038831
C31   C     C_R   0.152041 0.564185 0.221697 -0.138512
C32   C     C_R   0.173132 0.551388 0.294406 -0.128031
C33   C     C_R   0.148996 0.670083 0.335297 0.033683
C34   C     C_3   0.670108 0.648244 0.676457 0.047201
C35   C     C_R   0.701923 0.103565 0.896627 0.541940
C36   C     C_R   0.723673 0.688139 0.888081 0.544058
C37   C     C_R   0.117574 0.706782 0.905177 0.543788
C38   C     C_R   0.674319 0.108099 0.103914 0.546599
C39   C     C_R   0.693873 0.689893 0.097093 0.547083
C40   C     C_R   0.640299 0.619974 0.390658 0.553357
C41   C     C_R   0.082707 0.715305 0.115466 0.553163
C42   C     C_R   0.618009 0.227616 0.395164 0.554536
C43   C     C_3   0.571060 0.811375 0.783013 -0.234457
C44   C     C_3   0.550767 0.794207 0.703561 -0.240265
C45   C     C_3   0.816815 0.635406 0.689793 -0.117960
C46   C     C_3   0.834296 0.648825 0.770260 -0.215638
C47   C     C_1   0.835502 0.741346 0.649808 0.174801
C48   C     C_3   0.659734 0.531782 0.719891 -0.229794
C49   C     C_R   0.789201 0.139702 0.708402 -0.134197
C50   C     C_R   0.806554 0.120387 0.781835 -0.144991
C51   C     C_R   0.687540 0.163059 0.826106 0.019733
Cr1   Cr    Cr6+3 0.392930 0.397900 0.502230 1.015637
Cr2   Cr    Cr6+3 0.398240 0.708600 0.501260 1.018521
Cr3   Cr    Cr6+3 0.708800 0.393470 0.496460 1.014431
Cr4   Cr    Cr6+3 0.937620 0.938540 0.007640 1.009098
Cr5   Cr    Cr6+3 0.625150 0.937450 0.994520 1.008516
Cr6   Cr    Cr6+3 0.937990 0.625080 0.001190 1.011196
H1    H     H_    0.588487 0.903054 0.790323 0.153633
H2    H     H_    0.168714 0.478594 0.822574 0.119064
H3    H     H_    0.181848 0.868878 0.823159 0.125850
H4    H     H_    0.472978 0.835018 0.812709 0.122009
H5    H     H_    0.199076 0.860237 0.696576 0.125203
H6    H     H_    0.795730 0.422463 0.293772 0.131506
H7    H     H_    0.796319 0.445574 0.167283 0.125657
H8    H     H_    0.501200 0.893141 0.187339 0.126836
H9    H     H_    0.491411 0.866853 0.316446 0.119582
H10   H     H_    0.456696 0.157415 0.315589 0.126192
H11   H     H_    0.460365 0.142762 0.188799 0.124168
H12   H     H_    0.744806 0.424966 0.703108 0.142758
H13   H     H_    0.842830 0.172540 0.182736 0.114872
H14   H     H_    0.837715 0.189911 0.311596 0.115198
H15   H     H_    0.066042 0.896251 0.336248 0.127454
H16   H     H_    0.445707 0.802516 0.696062 0.135688
H17   H     H_    0.027597 0.919615 0.210421 0.138431
H18   H     H_    0.175942 0.471871 0.189745 0.120534
H19   H     H_    0.219036 0.447110 0.317333 0.134786
H20   H     H_    0.550590 0.881351 0.673068 0.138372
H21   H     H_    0.857586 0.735495 0.782379 0.136883
H22   H     H_    0.763311 0.450328 0.821162 0.133450
H23   H     H_    0.926777 0.548846 0.788270 0.123780
H24   H     H_    0.575936 0.568592 0.828086 0.123177
H25   H     H_    0.556786 0.536306 0.709712 0.129302
H26   H     H_    0.901820 0.529578 0.671570 0.115675
H27   H     H_    0.880979 0.106370 0.674372 0.129217
H28   H     H_    0.912371 0.065237 0.803322 0.129421
H29   H     H_    0.458661 0.266846 0.830132 0.128781
H30   H     H_    0.429494 0.294692 0.703949 0.135048
H31   H     H_    0.190949 0.467470 0.692942 0.113648
N1    N     N_1   0.850067 0.824334 0.618525 -0.308638
O1    O     O_R   0.507430 0.255570 0.581420 -0.524698
O2    O     O_R   0.837200 0.593290 0.915250 -0.528510
O3    O     O_R   0.065330 0.635370 0.931590 -0.507969
O4    O     O_R   0.280190 0.527390 0.578910 -0.511040
O5    O     O_R   0.068300 0.828790 0.091860 -0.528824
O6    O     O_R   0.798730 0.057480 0.079370 -0.511252
O7    O     O_R   0.584680 0.080480 0.076790 -0.527829
O8    O     O_R   0.626790 0.809640 0.067050 -0.504168
O9    O     O_R   0.816010 0.596460 0.076500 -0.521506
O10   O     O_R   0.045680 0.638310 0.081070 -0.502302
O11   O     O_3   0.833590 0.833690 0.001120 -0.246337
O12   O     O_R   0.524460 0.695920 0.424060 -0.499124
O13   O     O_R   0.260310 0.739740 0.584580 -0.528432
O14   O     O_R   0.532250 0.695150 0.573830 -0.509077
O15   O     O_R   0.744930 0.503430 0.576380 -0.529033
O16   O     O_R   0.699250 0.276390 0.571950 -0.507734
O17   O     O_R   0.499020 0.256400 0.419850 -0.526695
O18   O     O_R   0.272400 0.528160 0.429140 -0.507041
O19   O     O_R   0.251910 0.740570 0.423020 -0.518411
O20   O     O_R   0.736530 0.504260 0.414810 -0.524567
O21   O     O_R   0.691460 0.277160 0.422180 -0.507542
O22   O     O_3   0.499990 0.499990 0.499980 -0.253148
O23   O     O_R   0.089490 0.825610 0.930610 -0.525611
O24   O     O_R   0.818370 0.054540 0.929880 -0.505987
O25   O     O_R   0.605870 0.077310 0.915530 -0.527297
O26   O     O_R   0.646440 0.806700 0.917570 -0.508596

loop_
_geom_bond_atom_site_label_1
_geom_bond_atom_site_label_2
_ccdc_geom_bond_type
C12   H22   S    
C16   O1    A    
Cr6   O3    S    
Cr4   O23   S    
C27   C29   A    
C20   H10   S    
Cr1   O1    S    
C1    C11   S    
C48   H12   S    
C12   C48   S    
C24   H13   S    
C7    C8    A    
C45   H26   S    
C45   C46   S    
C27   C33   A    
C12   C23   S    
C26   C42   S    
C49   H27   S    
Cr3   O15   S    
C44   H20   S    
Cr2   O14   S    
C30   C31   A    
C39   O8    A    
C28   O18   A    
C22   C38   S    
C4    O14   A    
C6    H31   S    
Cr3   O21   S    
C35   O25   A    
C15   C17   A    
C18   C19   A    
C37   O23   A    
C50   H28   S    
C40   O12   A    
C31   C32   A    
Cr1   O18   S    
Cr2   O12   S    
C8    C9    A    
C5    C16   S    
C38   O6    A    
C12   H24   S    
C41   O10   A    
C30   C41   S    
C35   O24   A    
C25   H14   S    
C9    C10   A    
Cr3   O16   S    
Cr2   O22   S    
Cr1   O17   S    
C23   C46   S    
C21   C22   A    
C47   N1    T    
C5    C49   A    
C10   H5    S    
Cr5   O8    S    
Cr4   O5    S    
C7    H2    S    
C50   C51   A    
C45   C47   S    
C4    C34   S    
C13   C19   A    
C3    H30   S    
C34   C44   S    
C24   C25   A    
Cr4   O6    S    
C2    C51   A    
C6    C11   A    
C46   H21   S    
C39   O9    A    
C29   H17   S    
Cr4   O24   S    
Cr1   O22   S    
C25   C26   A    
Cr6   O11   S    
Cr3   O20   S    
Cr4   O11   S    
C43   C44   S    
C29   C30   A    
C31   H18   S    
C41   O5    A    
C13   H6    S    
Cr2   O13   S    
C14   H7    S    
C17   C18   A    
Cr1   O4    S    
C34   C45   S    
C42   O17   A    
C15   C39   S    
C6    C7    A    
C16   O16   A    
C36   O2    A    
C28   C33   S    
C23   C36   S    
C10   C11   A    
C21   H11   S    
C35   C51   S    
C22   C24   A    
C34   C48   S    
C8    C37   S    
Cr5   O11   S    
C43   H4    S    
Cr5   O7    S    
Cr6   O2    S    
C37   O3    A    
C23   C43   S    
C3    C5    A    
C32   H19   S    
C40   O20   A    
C18   H9    S    
C17   H8    S    
C9    H3    S    
C32   C33   A    
C2    C3    A    
C42   O21   A    
C46   H23   S    
C43   H1    S    
Cr2   O19   S    
C20   C26   A    
C28   O19   A    
Cr6   O9    S    
C4    O15   A    
Cr5   O26   S    
C48   H25   S    
Cr3   O22   S    
C2    H29   S    
C44   H16   S    
C19   C40   S    
C20   C21   A    
C1    O4    A    
C49   C50   A    
C38   O7    A    
Cr5   O25   S    
C14   C15   A    
C13   C14   A    
C36   O26   A    
C1    O13   A    
C27   H15   S    
Cr6   O10   S    
