data_mof_unit_34005.cif
_audit_creation_date              2012-12-10T20:41:53-0500
_audit_creation_method            fapswitch 2.2
_symmetry_space_group_name_H-M    P1
_symmetry_Int_Tables_number       1
_space_group_crystal_system       triclinic
_cell_length_a                    14.763882
_cell_length_b                    15.294096
_cell_length_c                    9.957515
_cell_angle_alpha                 90.426715
_cell_angle_beta                  90.750557
_cell_angle_gamma                 90.305494
_cell_volume                      2248.12075694

loop_
_atom_site_label
_atom_site_type_symbol
_atom_type_description
_atom_site_fract_x
_atom_site_fract_y
_atom_site_fract_z
_atom_type_partial_charge
C1    C     C_R   0.380072 0.880752 0.499265 0.870062
C2    C     C_R   0.920442 0.501144 0.069350 0.156426
C3    C     C_R   0.579013 0.005550 0.074003 0.210881
C4    C     C_R   0.079013 0.505550 0.074003 0.210881
C5    C     C_R   0.578685 0.008643 0.930703 0.153992
C6    C     C_R   0.078685 0.508643 0.930703 0.153992
C7    C     C_R   0.420504 0.000402 0.927658 0.156250
C8    C     C_R   0.920504 0.500402 0.927658 0.156250
C9    C     C_3   0.347492 0.932841 0.920361 -0.454635
C10   C     C_3   0.847492 0.432842 0.920361 -0.454635
C11   C     C_3   0.347182 0.933720 0.072940 -0.458921
C12   C     C_R   0.376690 0.116387 0.499807 0.899979
C13   C     C_3   0.847182 0.433720 0.072940 -0.458921
C14   C     C_R   0.619222 0.120126 0.500677 0.931200
C15   C     C_R   0.615447 0.875949 0.499698 0.907070
C16   C     C_R   0.119222 0.620126 0.500677 0.931200
C17   C     C_R   0.115447 0.375949 0.499698 0.907070
C18   C     C_R   0.273570 0.208984 0.621056 0.118488
C19   C     C_R   0.330694 0.738619 0.564489 0.120221
C20   C     C_R   0.773571 0.708984 0.621056 0.118489
C21   C     C_R   0.830694 0.238619 0.564489 0.120221
C22   C     C_R   0.298287 0.169677 0.501345 -0.128825
C23   C     C_R   0.880072 0.380752 0.499265 0.870062
C24   C     C_R   0.312610 0.816432 0.499394 -0.108858
C25   C     C_R   0.798287 0.669677 0.501345 -0.128824
C26   C     C_R   0.812610 0.316432 0.499394 -0.108858
C27   C     C_R   0.243506 0.179280 0.386605 -0.223740
C28   C     C_R   0.226560 0.835275 0.448134 -0.242370
C29   C     C_R   0.743506 0.679280 0.386605 -0.223740
C30   C     C_R   0.726560 0.335275 0.448134 -0.242370
C31   C     C_R   0.676013 0.742453 0.385703 0.170862
C32   C     C_R   0.660086 0.271053 0.450358 0.140395
C33   C     C_R   0.176013 0.242453 0.385703 0.170862
C34   C     C_R   0.876690 0.616387 0.499807 0.899979
C35   C     C_R   0.160087 0.771053 0.450358 0.140395
C36   C     C_R   0.667633 0.797331 0.500332 -0.169216
C37   C     C_R   0.682540 0.188818 0.503018 -0.136675
C38   C     C_R   0.167633 0.297331 0.500332 -0.169216
C39   C     C_R   0.182540 0.688818 0.503018 -0.136675
C40   C     C_R   0.709741 0.772911 0.620297 0.088025
C41   C     C_R   0.766003 0.174294 0.564822 0.133170
C42   C     C_R   0.209741 0.272911 0.620297 0.088025
C43   C     C_R   0.266003 0.674294 0.564821 0.133170
C44   C     C_3   0.761483 0.825986 0.722200 -0.406157
C45   C     C_3   0.331386 0.254248 0.724209 -0.437221
C46   C     C_3   0.833899 0.104526 0.535254 -0.450010
C47   C     C_3   0.261482 0.325986 0.722200 -0.406157
C48   C     C_3   0.333899 0.604526 0.535254 -0.450010
C49   C     C_3   0.405371 0.675838 0.536824 -0.477976
C50   C     C_3   0.831387 0.754249 0.724208 -0.437222
C51   C     C_3   0.905371 0.175838 0.536824 -0.477976
C52   C     C_R   0.420442 0.001144 0.069350 0.156426
H1    H     H_    0.283582 0.960147 0.115409 0.206188
H2    H     H_    0.437073 0.686242 0.437449 0.227141
H3    H     H_    0.898279 0.775076 0.684984 0.219811
H4    H     H_    0.937073 0.186242 0.437449 0.227141
H5    H     H_    0.333946 0.217972 0.820530 0.215981
H6    H     H_    0.453845 0.671164 0.622821 0.215505
H7    H     H_    0.833947 0.717973 0.820529 0.215982
H8    H     H_    0.953845 0.171163 0.622821 0.215505
H9    H     H_    0.284038 0.958700 0.874792 0.208372
H10   H     H_    0.371027 0.869815 0.877108 0.228530
H11   H     H_    0.784038 0.458700 0.874792 0.208372
H12   H     H_    0.370332 0.871140 0.117647 0.238899
H13   H     H_    0.871027 0.369814 0.877108 0.228530
H14   H     H_    0.255704 0.141155 0.296559 0.185428
H15   H     H_    0.211913 0.898654 0.405193 0.165526
H16   H     H_    0.755703 0.641154 0.296559 0.185428
H17   H     H_    0.711913 0.398654 0.405192 0.165526
H18   H     H_    0.724641 0.831854 0.818456 0.239774
H19   H     H_    0.842734 0.057559 0.618728 0.226200
H20   H     H_    0.224640 0.331853 0.818457 0.239774
H21   H     H_    0.342734 0.557559 0.618728 0.226200
H22   H     H_    0.783582 0.460147 0.115409 0.206188
H23   H     H_    0.870332 0.371140 0.117647 0.238899
H24   H     H_    0.788263 0.887754 0.679593 0.217240
H25   H     H_    0.823474 0.073841 0.434675 0.230106
H26   H     H_    0.288263 0.387754 0.679594 0.217240
H27   H     H_    0.323474 0.573841 0.434675 0.230106
H28   H     H_    0.398279 0.275075 0.684986 0.219811
I1    I     I_    0.594960 0.749008 0.207361 -0.357755
I2    I     I_    0.529836 0.301415 0.371123 -0.343786
I3    I     I_    0.094960 0.249009 0.207360 -0.357756
I4    I     I_    0.029836 0.801415 0.371124 -0.343786
I5    I     I_    0.706368 0.002412 0.179824 -0.247984
I6    I     I_    0.206368 0.502412 0.179824 -0.247984
I7    I     I_    0.704627 0.030294 0.836204 -0.340583
I8    I     I_    0.204627 0.530294 0.836204 -0.340583
N1    N     N_R   0.499140 0.000000 0.142800 -0.136393
N2    N     N_R   0.999140 0.500000 0.142800 -0.136393
N3    N     N_R   0.499160 0.000000 0.857150 -0.137751
N4    N     N_R   0.999160 0.500000 0.857150 -0.137751
O1    O     O_R   0.408400 0.908380 0.614690 -0.624092
O2    O     O_R   0.591610 0.908390 0.614650 -0.602749
O3    O     O_R   0.091610 0.591610 0.614650 -0.589250
O4    O     O_R   0.091610 0.408390 0.614650 -0.602749
O5    O     O_R   0.591590 0.091600 0.385310 -0.578586
O6    O     O_R   0.591590 0.908400 0.385310 -0.570360
O7    O     O_R   0.091590 0.591600 0.385310 -0.578586
O8    O     O_R   0.091590 0.408400 0.385310 -0.570360
O9    O     O_R   0.408400 0.091620 0.614690 -0.618335
O10   O     O_R   0.908400 0.408380 0.614690 -0.624092
O11   O     O_R   0.908400 0.591620 0.614690 -0.618334
O12   O     O_R   0.408370 0.908370 0.385350 -0.617775
O13   O     O_R   0.408370 0.091630 0.385350 -0.607223
O14   O     O_R   0.908370 0.408370 0.385350 -0.617775
O15   O     O_R   0.908370 0.591630 0.385350 -0.607223
O16   O     O_R   0.591610 0.091610 0.614650 -0.589250
Zn1   Zn    Zn3+2 0.500010 0.000000 0.653130 0.979073
Zn2   Zn    Zn3+2 0.000010 0.500000 0.653130 0.979073
Zn3   Zn    Zn3+2 0.499980 0.000000 0.346870 1.006428
Zn4   Zn    Zn3+2 0.999980 0.500000 0.346870 1.006428

loop_
_geom_bond_atom_site_label_1
_geom_bond_atom_site_label_2
_ccdc_geom_bond_type
C21   C26   A    
C3    I5    S    
O15   Zn4   S    
C10   H11   S    
N2    Zn4   S    
C15   O2    A    
O14   Zn4   S    
C27   C33   A    
C45   H5    S    
O11   Zn2   S    
C9    H9    S    
C50   H7    S    
C48   H27   S    
C7    C52   A    
C38   C42   A    
C18   C42   A    
C12   O13   A    
O5    Zn3   S    
C23   O10   A    
C4    I6    S    
C20   C25   A    
O9    Zn1   S    
C49   H2    S    
C12   C22   S    
C6    I8    S    
O16   Zn1   S    
C44   H24   S    
C51   H4    S    
C23   C26   S    
C2    N2    A    
C2    C13   S    
C20   C50   S    
C11   C52   S    
C13   H23   S    
C28   C35   A    
C41   C46   S    
C44   H18   S    
C8    N4    A    
C43   C48   S    
C11   H1    S    
C25   C34   S    
C17   C38   S    
C14   O16   A    
O13   Zn3   S    
C52   N1    A    
C19   C43   A    
C4    N2    A    
C45   C47   S    
C25   C29   A    
C9    H10   S    
C36   C40   A    
C28   H15   S    
C4    C6    A    
C11   H12   S    
C39   C43   A    
C23   O14   A    
O4    Zn2   S    
C46   C51   S    
O3    Zn2   S    
C49   H6    S    
C35   C39   A    
C46   H25   S    
C29   H16   S    
C9    C11   S    
C19   C49   S    
C20   C40   A    
C50   H3    S    
C7    N3    A    
C17   O4    A    
C32   C37   A    
C33   I3    S    
C1    O12   A    
C46   H19   S    
C5    N3    A    
C21   C41   A    
C8    C10   S    
C48   C49   S    
C26   C30   A    
C22   C27   A    
O10   Zn2   S    
C34   O15   A    
C15   O6    A    
C18   C45   S    
C15   C36   S    
C21   C51   S    
C30   H17   S    
C14   O5    A    
C10   H13   S    
C44   C50   S    
C7    C9    S    
C16   O3    A    
O6    Zn3   S    
C18   C22   A    
C48   H21   S    
C2    C8    A    
C24   C28   A    
C3    C5    A    
C10   C13   S    
O12   Zn3   S    
C35   I4    S    
C16   O7    A    
O8    Zn4   S    
C32   I2    S    
N1    Zn3   S    
O2    Zn1   S    
C34   O11   A    
C31   I1    S    
C3    N1    A    
N3    Zn1   S    
C19   C24   A    
C12   O9    A    
C29   C31   A    
C27   H14   S    
C14   C37   S    
C30   C32   A    
N4    Zn2   S    
C6    N4    A    
O7    Zn4   S    
C45   H28   S    
C42   C47   S    
C37   C41   A    
C17   O8    A    
C47   H20   S    
C16   C39   S    
C5    I7    S    
C40   C44   S    
C13   H22   S    
C1    C24   S    
C1    O1    A    
C31   C36   A    
C33   C38   A    
C51   H8    S    
C47   H26   S    
O1    Zn1   S    
