data_mof_unit_38911.cif
_audit_creation_date              2012-12-11T20:17:18-0500
_audit_creation_method            fapswitch 2.2
_symmetry_space_group_name_H-M    P1
_symmetry_Int_Tables_number       1
_space_group_crystal_system       triclinic
_cell_length_a                    8.223299
_cell_length_b                    17.420056
_cell_length_c                    18.737018
_cell_angle_alpha                 100.002233
_cell_angle_beta                  93.068822
_cell_angle_gamma                 98.479704
_cell_volume                      2605.74725329

loop_
_atom_site_label
_atom_site_type_symbol
_atom_type_description
_atom_site_fract_x
_atom_site_fract_y
_atom_site_fract_z
_atom_type_partial_charge
Ba1   Ba    Ba6+2 0.852650 0.537180 0.468240 1.652087
Ba2   Ba    Ba6+2 0.337190 0.462880 0.531770 1.660945
C1    C     C_3   0.573179 0.801216 0.273883 -0.360187
C2    C     C_3   0.569797 0.724063 0.301778 0.356533
C3    C     C_3   0.439900 0.336274 0.306156 0.313538
C4    C     C_3   0.358314 0.301191 0.230259 -0.364690
C5    C     C_3   0.014472 0.260610 0.717647 0.312969
C6    C     C_3   0.086531 0.273315 0.796625 -0.158276
C7    C     C_3   0.544705 0.255941 0.682577 0.412039
C8    C     C_3   0.511199 0.175304 0.704273 -0.371088
C9    C     C_2   0.307797 0.516794 0.297558 -0.251545
C10   C     C_3   0.443207 0.508202 0.246658 -0.035829
C11   C     C_2   0.383224 0.513573 0.169741 -0.121946
C12   C     C_3   0.111983 0.753189 0.292129 0.318742
C13   C     C_2   0.219207 0.500389 0.148727 -0.075466
C14   C     C_2   0.100830 0.485024 0.205310 -0.148746
C15   C     C_1   0.156069 0.483929 0.273391 0.096211
C16   C     C_R   0.047595 0.496005 0.929822 0.449794
C17   C     C_R   0.158086 0.499694 0.071320 0.456733
C18   C     C_R   0.090523 0.524576 0.802599 -0.117028
C19   C     C_R   0.034366 0.517916 0.728854 0.074870
C20   C     C_R   0.769931 0.449141 0.752230 -0.002603
C21   C     C_R   0.824351 0.456095 0.825771 -0.152950
C22   C     C_R   0.987263 0.492120 0.851851 -0.066398
C23   C     C_3   0.025548 0.776934 0.227501 -0.350688
C24   C     C_R   0.877026 0.477440 0.704118 -0.271471
C25   C     C_2   0.445815 0.719946 0.477292 -0.247561
C26   C     C_3   0.361591 0.770939 0.434390 -0.067970
C27   C     C_2   0.412965 0.857551 0.462229 -0.101135
C28   C     C_2   0.551406 0.884743 0.507156 0.013848
C29   C     C_2   0.641545 0.826416 0.535697 -0.119998
C30   C     C_1   0.579760 0.750093 0.521504 0.061078
C31   C     C_R   0.795497 0.139480 0.543710 -0.093764
C32   C     C_R   0.860947 0.219183 0.549157 -0.007859
C33   C     C_R   0.614857 0.240566 0.482997 0.036658
C34   C     C_3   0.250860 0.702985 0.629012 0.313537
C35   C     C_R   0.547566 0.161396 0.478431 -0.094951
C36   C     C_R   0.637355 0.110053 0.508289 0.033756
C37   C     C_2   0.615883 0.970733 0.528906 -0.068639
C38   C     C_2   0.571287 0.024806 0.491427 -0.027950
C39   C     C_R   0.768702 0.269690 0.520335 -0.279643
C40   C     C_3   0.287125 0.792394 0.651211 -0.376435
C41   C     C_3   0.880347 0.280675 0.310857 0.320771
C42   C     C_3   0.927189 0.213879 0.348929 -0.203391
C43   C     C_3   0.739973 0.642522 0.690971 0.311218
C44   C     C_3   0.759111 0.665706 0.773436 -0.386988
H1    H     H_    0.644973 0.737252 0.354856 0.070686
H2    H     H_    0.389051 0.809614 0.695059 0.116635
H3    H     H_    0.323678 0.819520 0.604051 0.076649
H4    H     H_    0.175202 0.815112 0.671014 0.130902
H5    H     H_    0.792770 0.311985 0.342702 0.038071
H6    H     H_    0.035304 0.192402 0.323425 0.088937
H7    H     H_    0.970096 0.239704 0.406461 0.050400
H8    H     H_    0.858314 0.628044 0.671661 0.005385
H9    H     H_    0.641917 0.590114 0.675655 0.060152
H10   H     H_    0.701471 0.825789 0.265387 0.135970
H11   H     H_    0.858990 0.717120 0.790299 0.125573
H12   H     H_    0.790717 0.615959 0.798175 0.066087
H13   H     H_    0.641730 0.681503 0.793768 0.129926
H14   H     H_    0.439928 0.699557 0.308124 -0.086102
H15   H     H_    0.525177 0.845121 0.314202 0.073299
H16   H     H_    0.348352 0.365271 0.337920 0.052726
H17   H     H_    0.547588 0.381462 0.302192 -0.002283
H18   H     H_    0.258688 0.251385 0.232968 0.145486
H19   H     H_    0.303296 0.346564 0.206606 0.058310
H20   H     H_    0.450206 0.279171 0.193946 0.101961
H21   H     H_    0.495884 0.791061 0.221651 0.114273
H22   H     H_    0.098377 0.766393 0.179458 0.072666
H23   H     H_    0.964095 0.314893 0.710111 -0.022546
H24   H     H_    0.914230 0.208790 0.706453 -0.008863
H25   H     H_    0.166261 0.332159 0.809574 0.122750
H26   H     H_    0.166629 0.228385 0.803158 0.129286
H27   H     H_    0.678791 0.270426 0.676934 -0.129835
H28   H     H_    0.475166 0.252610 0.629351 0.080270
H29   H     H_    0.558115 0.130869 0.664065 0.060097
H30   H     H_    0.376557 0.157078 0.706235 0.140479
H31   H     H_    0.115872 0.688460 0.279068 0.028654
H32   H     H_    0.573959 0.177575 0.758686 0.110643
H33   H     H_    0.474022 0.522848 0.130824 0.106900
H34   H     H_    0.969995 0.471545 0.189230 0.119372
H35   H     H_    0.213276 0.555702 0.821451 0.105314
H36   H     H_    0.740019 0.432800 0.862081 0.102326
H37   H     H_    0.336412 0.544567 0.354227 0.057443
H38   H     H_    0.833912 0.472116 0.647625 0.062737
H39   H     H_    0.484528 0.006660 0.443854 0.065858
H40   H     H_    0.755982 0.847372 0.569809 0.082571
H41   H     H_    0.871562 0.100633 0.563239 0.064656
H42   H     H_    0.239050 0.787065 0.300011 -0.030258
H43   H     H_    0.705279 0.989059 0.575737 0.061117
H44   H     H_    0.337888 0.896535 0.442192 0.068448
H45   H     H_    0.429253 0.138897 0.448090 0.091219
H46   H     H_    0.407059 0.656575 0.463231 0.070070
H47   H     H_    0.821295 0.330804 0.522392 0.074815
H48   H     H_    0.901072 0.741126 0.213944 0.164581
H49   H     H_    0.014534 0.840716 0.239992 0.120694
H50   H     H_    0.364523 0.680872 0.612279 0.000834
H51   H     H_    0.155223 0.687458 0.582681 0.088522
N1    N     N_R   0.209577 0.520146 0.953253 -0.240520
N2    N     N_R   0.263429 0.521839 0.022202 -0.241323
N3    N     N_R   0.996041 0.475822 0.047972 -0.249110
N4    N     N_R   0.942290 0.473865 0.978954 -0.248230
O1    O     O_2   0.865200 0.455450 0.325860 -0.491618
O2    O     O_3   0.698295 0.706432 0.661976 -0.635030
O3    O     O_3   0.027743 0.772064 0.354658 -0.569011
O4    O     O_2   0.324510 0.544570 0.674190 -0.459289
O5    O     O_3   0.071830 0.543290 0.586690 -0.499877
O6    O     O_3   0.531950 0.400150 0.621890 -0.484994
O7    O     O_3   0.196462 0.671003 0.688603 -0.638066
O8    O     O_3   0.606980 0.404400 0.458100 -0.488885
O9    O     O_3   0.107660 0.359170 0.583950 -0.461382
O10   O     O_2   0.196778 0.220918 0.534080 -0.479386
O11   O     O_3   0.139667 0.246143 0.671442 -0.589648
O12   O     O_3   0.117880 0.456770 0.413320 -0.466025
O13   O     O_3   0.582730 0.595670 0.541910 -0.496628
O14   O     O_2   0.334130 0.306180 0.453490 -0.439114
O15   O     O_3   0.493137 0.275738 0.337518 -0.612498
O16   O     O_2   0.432491 0.456333 0.751375 -0.470488
O17   O     O_3   0.492669 0.312191 0.735958 -0.583926
O18   O     O_3   0.657770 0.599920 0.378120 -0.482962
O19   O     O_2   0.788178 0.553669 0.254797 -0.473802
O20   O     O_3   0.030540 0.329940 0.309183 -0.649119
O21   O     O_3   0.636534 0.670757 0.251505 -0.593763
O22   O     O_2   0.855570 0.693850 0.546560 -0.455250
O23   O     O_3   0.082050 0.640900 0.416060 -0.475855
O24   O     O_2   0.061581 0.781250 0.495927 -0.480012
P1    P     P_3+3 0.032830 0.432130 0.335280 0.984940
P2    P     P_3+3 0.680690 0.682340 0.566920 0.982095
P3    P     P_3+3 0.133312 0.742885 0.426441 0.966675
P4    P     P_3+3 0.156880 0.567940 0.664730 0.984750
P5    P     P_3+3 0.075211 0.258314 0.584298 0.979985
P6    P     P_3+3 0.629978 0.581593 0.282962 0.982922
P7    P     P_3+3 0.515820 0.304745 0.432173 0.973569
P8    P     P_3+3 0.557130 0.405955 0.716274 0.973560
C45   C     C_3   0.807300 0.246849 0.231546 -0.194251
C46   C     C_3   0.811707 0.308301 0.182446 -0.395939
H52   H     H_    0.750790 0.358266 0.206605 0.125861
H53   H     H_    0.941120 0.329706 0.172887 0.134605
H54   H     H_    0.744884 0.280802 0.128922 0.114114
H55   H     H_    0.876147 0.200093 0.206344 0.094402
H56   H     H_    0.676796 0.219740 0.231135 0.160446
C47   C     C_2   0.798583 0.142074 0.347498 0.782988
O25   O     O_2   0.839326 0.086414 0.372167 -0.601317
O26   O     O_R   0.635952 0.137736 0.319294 -0.766018
H57   H     H_    0.564727 0.085720 0.322091 0.308195
C48   C     C_3   0.951705 0.270905 0.850293 -0.274080
C49   C     C_3   0.887120 0.186734 0.859768 -0.412488
H58   H     H_    0.837746 0.149087 0.806845 0.126926
H59   H     H_    0.987588 0.160530 0.883653 0.135557
H60   H     H_    0.786634 0.187697 0.897050 0.135923
H61   H     H_    0.003969 0.305623 0.904218 0.144000
H62   H     H_    0.847226 0.298414 0.831888 0.124392

loop_
_geom_bond_atom_site_label_1
_geom_bond_atom_site_label_2
_ccdc_geom_bond_type
O5    P4    S    
C19   C24   A    
C11   H33   S    
Ba2   O8    S    
C10   P6    S    
C44   H13   S    
C34   O7    S    
O19   P6    D    
C34   C40   S    
C6    C48   S    
O16   P8    D    
C5    H24   S    
C48   C49   S    
C8    H32   S    
C5    C6    S    
C43   C44   S    
C13   C17   S    
C23   H22   S    
C35   C36   A    
Ba1   O12   S    
C16   C22   S    
C30   P2    S    
C26   C27   S    
C33   C35   A    
C47   O26   S    
C45   H56   S    
C28   C29   S    
Ba2   O12   S    
C15   P1    S    
Ba2   O14   S    
Ba1   O13   S    
O26   H57   S    
Ba2   O6    S    
Ba2   P4    S    
C5    O11   S    
C3    H17   S    
Ba1   Ba2   S    
Ba1   O18   S    
C12   H31   S    
C4    H18   S    
C43   O2    S    
Ba1   O8    S    
C12   O3    S    
C42   H7    S    
C4    H19   S    
C39   H47   S    
C18   C22   A    
C14   C15   D    
O3    P3    S    
C3    H16   S    
O24   P3    D    
O18   P6    S    
C21   C22   A    
C34   H51   S    
O2    P2    S    
C7    C8    S    
C41   O20   S    
C48   H61   S    
Ba1   O5    S    
O23   P3    S    
C42   H6    S    
C23   H48   S    
C29   H40   S    
C18   H35   S    
C44   H12   S    
C7    O17   S    
C32   C39   A    
C7    H27   S    
C27   H44   S    
C49   H59   S    
O14   P7    D    
C1    H15   S    
C6    H26   S    
C13   C14   S    
C35   H45   S    
C20   P8    S    
C46   H52   S    
Ba1   P1    S    
C37   C38   D    
C17   N2    A    
C42   C47   S    
O4    P4    D    
O12   P1    S    
C9    H37   S    
Ba2   O5    S    
C14   H34   S    
C16   N4    A    
C38   H39   S    
C41   C45   S    
C41   C42   S    
Ba1   O22   S    
C27   C28   D    
C49   H60   S    
C1    H10   S    
C34   H50   S    
O10   P5    D    
O22   P2    D    
C29   C30   D    
O15   P7    S    
C17   N3    A    
C2    H14   S    
O8    P7    S    
C31   C32   A    
C2    O21   S    
C25   H46   S    
C40   H2    S    
C10   C11   S    
O17   P8    S    
C19   P4    S    
O7    P4    S    
C48   H62   S    
C46   H54   S    
C40   H4    S    
C43   H8    S    
C23   H49   S    
C11   C13   D    
C44   H11   S    
C7    H28   S    
C1    C2    S    
O21   P6    S    
C45   H55   S    
C49   H58   S    
C43   H9    S    
C46   H53   S    
C9    C15   D    
C6    H25   S    
C24   H38   S    
C25   C30   D    
C8    H30   S    
C1    H21   S    
Ba1   P2    S    
O1    P1    D    
C5    H23   S    
C9    C10   S    
C8    H29   S    
C45   C46   S    
Ba2   O4    S    
C31   C36   A    
C31   H41   S    
Ba1   O23   S    
C12   H42   S    
O20   P1    S    
C3    O15   S    
C47   O25   D    
C36   C38   S    
O13   P2    S    
Ba2   O13   S    
C41   H5    S    
C3    C4    S    
Ba1   O1    S    
N3    N4    A    
C28   C37   S    
O9    P5    S    
C12   C23   S    
C33   C39   A    
C21   H36   S    
C40   H3    S    
C4    H20   S    
C18   C19   A    
C32   P5    S    
O6    P8    S    
N1    N2    A    
C20   C24   A    
C25   C26   S    
C20   C21   A    
C16   N1    A    
O11   P5    S    
C33   P7    S    
C37   H43   S    
C26   P3    S    
C2    H1    S    
Ba2   O9    S    
