data_mof_unit_38377.cif
_audit_creation_date              2012-12-11T15:55:56-0500
_audit_creation_method            fapswitch 2.2
_symmetry_space_group_name_H-M    P1
_symmetry_Int_Tables_number       1
_space_group_crystal_system       triclinic
_cell_length_a                    11.028725
_cell_length_b                    11.02118
_cell_length_c                    18.784929
_cell_angle_alpha                 89.635753
_cell_angle_beta                  89.999359
_cell_angle_gamma                 59.650014
_cell_volume                      1970.33184974

loop_
_atom_site_label
_atom_site_type_symbol
_atom_type_description
_atom_site_fract_x
_atom_site_fract_y
_atom_site_fract_z
_atom_type_partial_charge
C1    C     C_R   0.358378 0.773614 0.397957 0.541122
C2    C     C_R   0.263365 0.448321 0.197359 0.029030
C3    C     C_R   0.253080 0.457908 0.272306 -0.030043
C4    C     C_R   0.383654 0.354546 0.388356 0.531500
C5    C     C_R   0.932216 0.824370 0.380004 -0.105555
C6    C     C_R   0.951161 0.691914 0.395018 -0.116154
C7    C     C_R   0.054088 0.574125 0.359014 -0.067384
C8    C     C_R   0.138446 0.587054 0.306911 0.072288
C9    C     C_R   0.351111 0.340650 0.313988 -0.029239
C10   C     C_R   0.898910 0.321016 0.190422 0.006228
C11   C     C_R   0.889074 0.216280 0.226936 0.009808
C12   C     C_R   0.572519 0.058738 0.181776 0.060476
C13   C     C_R   0.863047 0.226712 0.299270 -0.006004
C14   C     C_R   0.880897 0.434979 0.301740 -0.183203
C15   C     C_R   0.909042 0.423070 0.229546 -0.174961
C16   C     C_R   0.778524 0.378993 0.403748 0.542477
C17   C     C_3   0.787419 0.170628 0.212282 -0.275132
C18   C     C_3   0.750758 0.190502 0.289921 -0.251958
C19   C     C_R   0.853626 0.338773 0.337191 0.003811
C20   C     C_R   0.310773 0.923825 0.185680 0.033212
C21   C     C_R   0.420472 0.791874 0.205455 0.028258
C22   C     C_R   0.441222 0.749010 0.275226 0.002281
C23   C     C_R   0.359118 0.318200 0.165394 0.011964
C24   C     C_R   0.252106 0.974786 0.311371 -0.174410
C25   C     C_R   0.235851 0.020351 0.239984 -0.168505
C26   C     C_3   0.477305 0.647095 0.177578 -0.267507
C27   C     C_3   0.498790 0.598852 0.255184 -0.286026
C28   C     C_R   0.342572 0.771536 0.603473 0.543591
C29   C     C_R   0.349038 0.833833 0.328184 0.014082
C30   C     C_R   0.297921 0.304690 0.807636 0.018686
C31   C     C_R   0.404148 0.191905 0.770429 0.040366
C32   C     C_R   0.415031 0.194937 0.698220 0.024303
C33   C     C_R   0.197276 0.416773 0.693948 -0.171020
C34   C     C_R   0.446729 0.215669 0.281368 -0.169365
C35   C     C_R   0.186686 0.412392 0.768397 -0.168338
C36   C     C_3   0.559168 0.114426 0.782592 -0.275036
C37   C     C_3   0.572979 0.115757 0.702798 -0.269187
C38   C     C_R   0.320736 0.315296 0.659816 0.016264
C39   C     C_R   0.811928 0.330342 0.836779 0.014636
C40   C     C_R   0.368952 0.348106 0.594634 0.544574
C41   C     C_R   0.748064 0.462119 0.803294 0.020478
C42   C     C_R   0.739201 0.471814 0.730431 0.046005
C43   C     C_R   0.830938 0.223381 0.720473 -0.176163
C44   C     C_R   0.842496 0.211792 0.795047 -0.165573
C45   C     C_R   0.458366 0.201385 0.208268 -0.042711
C46   C     C_3   0.773703 0.583447 0.807797 -0.271670
C47   C     C_3   0.768951 0.589473 0.727408 -0.267607
C48   C     C_R   0.788458 0.353442 0.687372 0.021635
C49   C     C_R   0.289251 0.870574 0.820333 0.018076
C50   C     C_R   0.181522 0.869307 0.782564 0.022202
C51   C     C_R   0.189551 0.854068 0.709664 0.023005
C52   C     C_R   0.760372 0.377938 0.611393 0.544111
C53   C     C_R   0.396669 0.874051 0.707180 -0.158179
C54   C     C_R   0.391347 0.884309 0.781339 -0.150574
C55   C     C_3   0.120903 0.776479 0.792543 -0.281100
C56   C     C_R   0.120304 0.720850 0.293811 -0.035457
C57   C     C_3   0.130811 0.758035 0.712589 -0.267197
C58   C     C_R   0.304510 0.842885 0.671701 0.020069
C59   C     C_R   0.922524 0.310870 0.114633 0.532810
C60   C     C_R   0.328910 0.291635 0.093109 0.559315
C61   C     C_R   0.272566 0.961651 0.111778 0.560450
C62   C     C_R   0.880773 0.310207 0.905494 0.551620
C63   C     C_R   0.292831 0.285705 0.883792 0.548584
C64   C     C_R   0.771503 0.789925 0.130818 -0.085692
C65   C     C_R   0.272124 0.900752 0.896079 0.555747
C66   C     C_R   0.697617 0.802814 0.192982 -0.105286
C67   C     C_R   0.017196 0.838450 0.329493 -0.080022
C68   C     C_R   0.598720 0.935350 0.217993 -0.092922
C69   C     C_R   0.659618 0.042692 0.122888 -0.055767
C70   C     C_R   0.755277 0.909746 0.096681 -0.093330
Cr1   Cr    Cr6+3 0.601740 0.606840 0.505840 1.000018
Cr2   Cr    Cr6+3 0.291500 0.601560 0.495070 1.014852
Cr3   Cr    Cr6+3 0.606780 0.291630 0.499130 0.995971
Cr4   Cr    Cr6+3 0.062440 0.063060 0.008240 1.018774
Cr5   Cr    Cr6+3 0.062950 0.375000 0.998920 1.020839
Cr6   Cr    Cr6+3 0.374550 0.061770 0.992470 1.012473
H1    H     H_    0.522063 0.129111 0.314124 0.140523
H2    H     H_    0.771114 0.093360 0.317744 0.138562
H3    H     H_    0.185854 0.046777 0.352170 0.120687
H4    H     H_    0.816148 0.899864 0.049613 0.115345
H5    H     H_    0.161450 0.128264 0.226845 0.123176
H6    H     H_    0.577694 0.609542 0.148472 0.145257
H7    H     H_    0.397688 0.632766 0.149217 0.184552
H8    H     H_    0.431713 0.556435 0.272795 0.142712
H9    H     H_    0.610660 0.532886 0.269698 0.150713
H10   H     H_    0.117303 0.506696 0.664694 0.119674
H11   H     H_    0.097302 0.496455 0.795068 0.119575
H12   H     H_    0.854416 0.915158 0.408878 0.100425
H13   H     H_    0.600189 0.007227 0.804986 0.130424
H14   H     H_    0.595238 0.179238 0.810563 0.145381
H15   H     H_    0.620597 0.178732 0.685756 0.175768
H16   H     H_    0.008666 0.939043 0.320096 0.120821
H17   H     H_    0.620538 0.009390 0.678912 0.122054
H18   H     H_    0.861204 0.130433 0.688975 0.123464
H19   H     H_    0.888387 0.108175 0.818975 0.141355
H20   H     H_    0.878162 0.556783 0.828576 0.162929
H21   H     H_    0.684412 0.676815 0.832905 0.129612
H22   H     H_    0.680348 0.687462 0.705720 0.142951
H23   H     H_    0.887829 0.679921 0.435357 0.110963
H24   H     H_    0.872406 0.557778 0.702859 0.135045
H25   H     H_    0.478793 0.879414 0.678464 0.117821
H26   H     H_    0.468930 0.899844 0.808113 0.132747
H27   H     H_    0.010867 0.835139 0.812072 0.133274
H28   H     H_    0.842348 0.687041 0.109519 0.158229
H29   H     H_    0.192077 0.678358 0.822528 0.145492
H30   H     H_    0.210211 0.649991 0.696491 0.167369
H31   H     H_    0.026765 0.803688 0.685828 0.129132
H32   H     H_    0.712871 0.710248 0.220887 0.114927
H33   H     H_    0.539388 0.940298 0.264734 0.114047
H34   H     H_    0.072635 0.471037 0.373910 0.105919
H35   H     H_    0.188868 0.734564 0.257962 0.139838
H36   H     H_    0.649359 0.133587 0.094882 0.114643
H37   H     H_    0.858965 0.531336 0.326728 0.148100
H38   H     H_    0.928327 0.499879 0.203963 0.160388
H39   H     H_    0.844650 0.058515 0.196276 0.167557
H40   H     H_    0.700248 0.247264 0.177596 0.130275
H41   H     H_    0.645014 0.282881 0.299614 0.162437
I1    I     I_    0.136968 0.630739 0.130711 -0.446481
O1    O     O_R   0.748670 0.497520 0.427970 -0.532979
O2    O     O_R   0.417470 0.174910 0.067830 -0.534551
O3    O     O_R   0.375160 0.946380 0.070880 -0.489466
O4    O     O_R   0.476470 0.723930 0.429450 -0.499701
O5    O     O_R   0.160500 0.919670 0.926690 -0.506024
O6    O     O_R   0.933140 0.190380 0.936050 -0.510722
O7    O     O_R   0.909010 0.403210 0.925030 -0.523379
O8    O     O_R   0.179590 0.361290 0.918480 -0.500184
O9    O     O_R   0.391360 0.170840 0.907510 -0.524635
O10   O     O_R   0.350950 0.942600 0.922260 -0.510492
O11   O     O_3   0.166650 0.166610 0.999880 -0.280629
O12   O     O_R   0.300170 0.471020 0.567120 -0.509442
O13   O     O_R   0.264730 0.744140 0.416740 -0.509184
O14   O     O_R   0.309440 0.472410 0.418220 -0.493888
O15   O     O_R   0.501630 0.260530 0.414310 -0.535945
O16   O     O_R   0.727920 0.305730 0.428950 -0.503861
O17   O     O_R   0.738670 0.496020 0.588600 -0.521017
O18   O     O_R   0.467190 0.722540 0.578350 -0.507939
O19   O     O_R   0.254720 0.742640 0.577370 -0.523142
O20   O     O_R   0.491630 0.259030 0.574940 -0.524511
O21   O     O_R   0.718640 0.304340 0.577850 -0.510752
O22   O     O_3   0.500010 0.500010 0.500020 -0.247545
O23   O     O_R   0.186620 0.923750 0.087000 -0.486443
O24   O     O_R   0.957350 0.194160 0.084660 -0.515976
O25   O     O_R   0.935120 0.407280 0.085350 -0.526999
O26   O     O_R   0.203800 0.365060 0.067090 -0.465989

loop_
_geom_bond_atom_site_label_1
_geom_bond_atom_site_label_2
_ccdc_geom_bond_type
C36   H13   S    
C66   C68   A    
C12   C69   A    
C26   H7    S    
C23   C45   A    
C22   C29   A    
C41   C42   A    
Cr1   O4    S    
Cr4   O6    S    
C5    C67   A    
C16   O16   A    
C8    C56   A    
C62   O6    A    
C2    I1    S    
C7    C8    A    
C4    O14   A    
C53   C54   A    
C12   C68   A    
C26   C27   S    
Cr6   O2    S    
C47   H22   S    
C49   C65   S    
C13   C18   S    
C55   H29   S    
Cr6   O3    S    
C36   C37   S    
C38   C40   S    
C10   C15   A    
C31   C36   S    
C34   H1    S    
Cr1   O17   S    
C30   C31   A    
C69   H36   S    
C20   C25   A    
C49   C54   A    
C55   H27   S    
C43   H18   S    
C61   O3    A    
C20   C61   S    
C27   H9    S    
C1    O4    A    
C24   C29   A    
C5    H12   S    
C35   H11   S    
C59   O24   A    
C53   H25   S    
C40   O20   A    
C41   C46   S    
C60   O2    A    
C51   C57   S    
C64   C70   A    
C43   C48   A    
C56   H35   S    
C68   H33   S    
C57   H30   S    
Cr4   O24   S    
C59   O25   A    
C26   H6    S    
C21   C22   A    
C25   H5    S    
C21   C26   S    
C54   H26   S    
Cr2   O14   S    
C23   C60   S    
C37   H15   S    
C70   H4    S    
C65   O10   A    
C24   C25   A    
C39   C41   A    
C3    C8    S    
Cr5   O26   S    
C16   O1    A    
Cr1   O18   S    
C51   C58   A    
C13   C19   A    
Cr3   O21   S    
C50   C51   A    
C47   H24   S    
Cr5   O7    S    
C64   C66   A    
C43   C44   A    
C3    C9    A    
Cr6   O11   S    
C24   H3    S    
C31   C32   A    
C48   C52   S    
C18   H2    S    
C1    C29   S    
C17   C18   S    
C15   H38   S    
C37   H17   S    
C34   C45   A    
C42   C48   A    
C32   C37   S    
Cr3   O16   S    
C18   H41   S    
C39   C44   A    
Cr5   O25   S    
C30   C35   A    
C61   O23   A    
Cr2   O19   S    
C57   H31   S    
Cr4   O23   S    
Cr3   O15   S    
C32   C38   A    
C22   C27   S    
C55   C57   S    
C9    C34   A    
Cr6   O10   S    
C52   O17   A    
C56   C67   A    
C17   H39   S    
Cr2   O13   S    
C36   H14   S    
C64   H28   S    
C39   C62   S    
C40   O12   A    
C46   C47   S    
C11   C17   S    
Cr1   O22   S    
C28   O18   A    
C14   C19   A    
C46   H21   S    
C28   O19   A    
C50   C55   S    
C66   H32   S    
C12   C45   S    
C1    O13   A    
C62   O7    A    
C53   C58   A    
Cr2   O12   S    
C6    C7    A    
Cr3   O22   S    
C28   C58   S    
C14   H37   S    
C33   C38   A    
C7    H34   S    
Cr1   O1    S    
Cr5   O8    S    
C6    H23   S    
C2    C3    A    
C52   O21   A    
C44   H19   S    
C60   O26   A    
C27   H8    S    
C11   C13   A    
C5    C6    A    
C16   C19   S    
C67   H16   S    
C33   C35   A    
Cr4   O5    S    
C42   C47   S    
C65   O5    A    
C69   C70   A    
C63   O8    A    
C10   C11   A    
Cr2   O22   S    
C46   H20   S    
C20   C21   A    
C49   C50   A    
Cr3   O20   S    
Cr4   O11   S    
C2    C23   A    
Cr6   O9    S    
C14   C15   A    
C4    C9    S    
C30   C63   S    
C10   C59   S    
C33   H10   S    
C63   O9    A    
Cr5   O11   S    
C17   H40   S    
C4    O15   A    
