data_mof_unit_39922.cif
_audit_creation_date              2012-12-10T18:05:15-0500
_audit_creation_method            fapswitch 2.2
_symmetry_space_group_name_H-M    P1
_symmetry_Int_Tables_number       1
_space_group_crystal_system       triclinic
_cell_length_a                    9.49179
_cell_length_b                    10.834793
_cell_length_c                    17.154537
_cell_angle_alpha                 89.396322
_cell_angle_beta                  93.186091
_cell_angle_gamma                 90.002195
_cell_volume                      1761.37470328

loop_
_atom_site_label
_atom_site_type_symbol
_atom_type_description
_atom_site_fract_x
_atom_site_fract_y
_atom_site_fract_z
_atom_type_partial_charge
C1    C     C_R   0.499966 0.261988 0.500046 0.790987
C2    C     C_R   0.500030 0.738007 0.499896 0.776414
C3    C     C_R   0.372060 0.936117 0.500741 -0.187015
C4    C     C_R   0.627928 0.063868 0.499054 -0.180960
C5    C     C_R   0.500006 0.871809 0.499828 -0.013909
C6    C     C_R   0.499985 0.128178 0.500006 -0.014540
C7    C     C_R   0.079036 0.417650 0.545226 -0.015811
C8    C     C_R   0.921001 0.582901 0.455238 0.011141
C9    C     C_R   0.930013 0.417656 0.545194 -0.041717
C10   C     C_R   0.069982 0.582555 0.454970 -0.035472
C11   C     C_R   0.516399 0.497152 0.650965 0.863169
C12   C     C_R   0.483543 0.502406 0.348936 0.857178
C13   C     C_R   0.523683 0.494767 0.736823 -0.200044
C14   C     C_R   0.475736 0.504483 0.262877 -0.197738
C15   C     C_R   0.402677 0.469521 0.778699 0.457678
C16   C     C_R   0.598542 0.516675 0.220599 0.469734
C17   C     C_R   0.413933 0.467678 0.860172 -0.323331
C18   C     C_R   0.587646 0.509873 0.139445 -0.332921
C19   C     C_R   0.542546 0.496084 0.900890 0.229258
C20   C     C_R   0.455306 0.499004 0.098745 0.241403
C21   C     C_R   0.662850 0.519163 0.859281 0.490504
C22   C     C_R   0.331985 0.494045 0.140039 0.499645
C23   C     C_R   0.652576 0.520026 0.777653 -0.389037
C24   C     C_R   0.343654 0.493504 0.222264 -0.410196
C25   C     C_R   0.372052 0.063801 0.500850 -0.177143
C26   C     C_R   0.627935 0.936182 0.498931 -0.187376
Cu1   Cu    Cu3+1 0.640660 0.500020 0.500000 0.961369
Cu2   Cu    Cu3+1 0.359340 0.499980 0.500000 0.955753
H1    H     H_    0.684149 0.512528 0.108635 0.197255
H2    H     H_    0.321391 0.443694 0.891245 0.198081
H3    H     H_    0.745596 0.542126 0.746413 0.193196
H4    H     H_    0.249979 0.482002 0.254718 0.195679
H5    H     H_    0.272040 0.111815 0.501631 0.149581
H6    H     H_    0.727944 0.888165 0.498131 0.146064
H7    H     H_    0.272051 0.888048 0.501429 0.146860
H8    H     H_    0.727937 0.111935 0.498372 0.150443
H9    H     H_    0.139001 0.351895 0.581501 0.150050
H10   H     H_    0.861011 0.649811 0.420003 0.118303
H11   H     H_    0.877311 0.351871 0.581438 0.123175
H12   H     H_    0.122663 0.648613 0.418903 0.113499
N1    N     N_2   0.555759 0.501069 0.983506 -0.205233
N2    N     N_2   0.441758 0.493398 0.016037 -0.193674
N3    N     N_R   0.852070 0.500030 0.499980 -0.155127
N4    N     N_R   0.147930 0.499970 0.500020 -0.159162
O1    O     O_R   0.618740 0.319660 0.500000 -0.591082
O2    O     O_R   0.381260 0.680340 0.500000 -0.596920
O3    O     O_R   0.381170 0.319630 0.500010 -0.590077
O4    O     O_R   0.618830 0.680370 0.499990 -0.597470
O5    O     O_R   0.631780 0.498870 0.613920 -0.597652
O6    O     O_R   0.368220 0.501130 0.386080 -0.594759
O7    O     O_R   0.394210 0.498840 0.613930 -0.537962
O8    O     O_R   0.605790 0.501160 0.386070 -0.525130
O9    O     O_3   0.730984 0.524214 0.258311 -0.548575
C27   C     C_3   0.783260 0.645152 0.249334 -0.342318
H13   H     H_    0.714626 0.713591 0.276901 0.160311
H14   H     H_    0.795431 0.669825 0.186964 0.158898
H15   H     H_    0.889767 0.650359 0.279131 0.168486
O10   O     O_3   0.276367 0.436204 0.740353 -0.568600
C28   C     C_3   0.178237 0.533109 0.746157 -0.285865
H16   H     H_    0.218913 0.621121 0.721938 0.168102
H17   H     H_    0.148934 0.545940 0.807397 0.158959
H18   H     H_    0.080408 0.509039 0.711249 0.175078
O11   O     O_3   0.788370 0.550606 0.898884 -0.569462
C29   C     C_3   0.880202 0.448299 0.899202 -0.306971
H19   H     H_    0.908983 0.424955 0.839108 0.155162
H20   H     H_    0.833568 0.366553 0.928048 0.172275
H21   H     H_    0.979094 0.472280 0.933193 0.208208
O12   O     O_3   0.203806 0.478502 0.097753 -0.565433
C30   C     C_3   0.095511 0.550383 0.127763 -0.312826
H22   H     H_    0.132462 0.644188 0.145377 0.150040
H23   H     H_    0.048221 0.501505 0.177178 0.186613
H24   H     H_    0.010518 0.562847 0.081290 0.202957

loop_
_geom_bond_atom_site_label_1
_geom_bond_atom_site_label_2
_ccdc_geom_bond_type
Cu1   O4    S    
C30   H24   S    
C4    C26   A    
C4    H8    S    
Cu2   O3    S    
C15   C17   A    
C11   O5    A    
C5    C26   A    
N1    N2    D    
C12   O8    A    
C20   N2    S    
Cu2   O7    S    
C8    N3    A    
C3    H7    S    
C3    C5    A    
C1    O1    A    
C29   H19   S    
Cu1   O1    S    
C25   H5    S    
C24   H4    S    
C7    H9    S    
C28   H16   S    
C18   H1    S    
O9    C27   S    
C16   O9    S    
C17   H2    S    
C11   C13   S    
Cu2   O2    S    
C8    H10   S    
C7    N4    A    
Cu2   N4    S    
Cu1   O5    S    
C16   C18   A    
C19   C21   A    
C12   C14   S    
C23   H3    S    
C22   C24   A    
C21   C23   A    
C13   C15   A    
C30   H22   S    
O12   C30   S    
C15   O10   S    
C14   C16   A    
C9    N3    A    
C6    C25   A    
C28   H17   S    
O11   C29   S    
C10   N4    A    
C1    C6    S    
C2    C5    S    
C29   H21   S    
Cu1   N3    S    
C9    H11   S    
C3    C25   A    
C11   O7    A    
Cu1   O8    S    
C13   C23   A    
C18   C20   A    
C30   H23   S    
C4    C6    A    
C14   C24   A    
Cu1   Cu2   S    
C7    C9    A    
C12   O6    A    
C27   H13   S    
C17   C19   A    
C10   H12   S    
C2    O2    A    
C2    O4    A    
O10   C28   S    
C22   O12   S    
Cu2   O6    S    
C26   H6    S    
C8    C10   A    
C1    O3    A    
C19   N1    S    
C21   O11   S    
C20   C22   A    
C27   H14   S    
C28   H18   S    
C27   H15   S    
C29   H20   S    
