data_mof_unit_10808.cif
_audit_creation_date              2013-03-05T16:10:28-0500
_audit_creation_method            fapswitch 2.2
_symmetry_space_group_name_H-M    P1
_symmetry_Int_Tables_number       1
_space_group_crystal_system       triclinic
_cell_length_a                    10.682165
_cell_length_b                    9.849964
_cell_length_c                    14.926896
_cell_angle_alpha                 90.020821
_cell_angle_beta                  90.082878
_cell_angle_gamma                 89.938813
_cell_volume                      1570.58954342

loop_
_atom_site_label
_atom_site_type_symbol
_atom_site_description
_atom_site_fract_x
_atom_site_fract_y
_atom_site_fract_z
_atom_type_partial_charge
O1    O     O_R   0.316770 0.614620 0.499990 -0.623930
O2    O     O_R   0.683230 0.385380 0.500010 -0.623890
O3    O     O_R   0.683230 0.614620 0.500010 -0.633101
O4    O     O_R   0.316770 0.385380 0.499990 -0.633104
C1    C     C_R   0.259965 0.500057 0.499982 0.854663
C2    C     C_R   0.740035 0.499943 0.500020 0.854749
O5    O     O_R   0.499980 0.614680 0.367850 -0.602572
O6    O     O_R   0.500020 0.385320 0.632150 -0.602512
O7    O     O_R   0.500020 0.614680 0.632150 -0.626729
O8    O     O_R   0.499980 0.385320 0.367850 -0.626746
C3    C     C_R   0.498872 0.499945 0.327273 0.871742
C4    C     C_R   0.501121 0.500050 0.672727 0.871895
Zn1   Zn    Zn3+2 0.500000 0.653120 0.500000 0.956209
Zn2   Zn    Zn3+2 0.500000 0.346880 0.500000 0.956247
C5    C     C_R   0.619459 0.510801 0.813323 -0.053580
C6    C     C_R   0.380627 0.488579 0.186655 -0.053625
C7    C     C_R   0.505138 0.500285 0.767905 -0.129098
C8    C     C_R   0.494890 0.499627 0.232094 -0.128952
C9    C     C_R   0.392131 0.485000 0.811879 -0.245665
C10   C     C_R   0.607918 0.514802 0.188129 -0.245726
C11   C     C_R   0.388072 0.481964 0.904708 0.122461
C12   C     C_R   0.612069 0.517191 0.095289 0.122359
C13   C     C_R   0.501447 0.498513 0.953076 -0.006239
C14   C     C_R   0.498717 0.500489 0.046917 -0.006229
C15   C     C_R   0.617473 0.513781 0.907512 0.065910
C16   C     C_R   0.382691 0.485167 0.092474 0.065905
C17   C     C_R   0.273474 0.462719 0.949975 0.140666
C18   C     C_R   0.726758 0.535820 0.050016 0.140190
C19   C     C_R   0.272653 0.462750 0.043110 -0.168367
C20   C     C_R   0.727598 0.535683 0.956881 -0.168531
H1    H     H_    0.307714 0.474943 0.772084 0.154943
H2    H     H_    0.692281 0.525245 0.227941 0.154881
H3    H     H_    0.184835 0.442920 0.076396 0.192353
H4    H     H_    0.815482 0.555197 0.923600 0.192468
C21   C     C_R   0.064179 0.383911 0.471376 -0.178476
C22   C     C_R   0.935821 0.616088 0.528627 -0.178572
C23   C     C_R   0.935975 0.383768 0.471563 -0.171096
C24   C     C_R   0.064024 0.616232 0.528440 -0.171202
H5    H     H_    0.113416 0.294220 0.448318 0.145999
H6    H     H_    0.886583 0.705779 0.551686 0.146016
H7    H     H_    0.886862 0.293976 0.448652 0.155192
H8    H     H_    0.113138 0.706023 0.551351 0.155224
C25   C     C_R   0.872455 0.499881 0.500138 -0.002053
C26   C     C_R   0.127545 0.500118 0.499866 -0.002108
C27   C     C_R   0.581267 0.071849 0.553104 -0.062408
C28   C     C_R   0.418733 0.928151 0.446896 -0.062423
C29   C     C_R   0.418731 0.071994 0.446895 -0.065844
C30   C     C_R   0.581269 0.928006 0.553105 -0.065832
H9    H     H_    0.646250 0.126249 0.595585 0.141205
H10   H     H_    0.353750 0.873751 0.404415 0.141095
H11   H     H_    0.353743 0.126514 0.404417 0.122911
H12   H     H_    0.646258 0.873487 0.595583 0.122947
N1    N     N_R   0.500000 0.857200 0.500000 -0.083904
N2    N     N_R   0.500000 0.142800 0.500000 -0.083916
C31   C     C_2   0.737848 0.515905 0.760544 0.353307
H13   H     H_    0.742958 0.577644 0.700474 0.059039
O9    O     O_2   0.827651 0.445367 0.780651 -0.574708
C32   C     C_2   0.262200 0.483509 0.239396 0.353249
H14   H     H_    0.257179 0.422217 0.299648 0.059165
O10   O     O_2   0.172231 0.553600 0.219029 -0.574780
C33   C     C_3   0.151130 0.440978 0.900871 -0.851892
H15   H     H_    0.157867 0.349445 0.857703 0.251564
H16   H     H_    0.071480 0.425494 0.947506 0.243228
H17   H     H_    0.129159 0.531144 0.859059 0.247935
C34   C     C_3   0.849181 0.557030 0.099123 -0.850177
H18   H     H_    0.869993 0.467471 0.141899 0.247480
H19   H     H_    0.929256 0.570248 0.052434 0.243196
H20   H     H_    0.843254 0.649704 0.141395 0.251594

loop_
_geom_bond_atom_site_label_1
_geom_bond_atom_site_label_2
_geom_bond_distance
_ccdc_geom_bond_type
C4    C7    1.421302 S    
C23   C25   1.396154 A    
C33   H17   1.110369 S    
C21   H5    1.083923 S    
C13   C14   1.401236 A    
C3    C8    1.421308 S    
C24   C26   1.396154 A    
C30   N1    1.366502 A    
C17   C19   1.390249 A    
C10   C12   1.386800 A    
C28   H10   1.081832 S    
Zn1   N1    2.010181 S    
O3    Zn1   1.993293 S    
C27   H9    1.081832 S    
O6    C4    1.282028 A    
C34   H20   1.111300 S    
C9    H1    1.083707 S    
O3    C2    1.281659 A    
C31   H13   1.085078 S    
C18   C20   1.390269 A    
C18   C34   1.512892 S    
C11   C17   1.412109 A    
C5    C31   1.491838 S    
C12   C18   1.412181 A    
O5    C3    1.282075 A    
C21   C26   1.396310 A    
O2    C2    1.281816 A    
C29   N2    1.366504 A    
O1    C1    1.281818 A    
C28   N1    1.366555 A    
C22   C24   1.369503 A    
Zn2   N2    2.010181 S    
C1    C26   1.414535 S    
C14   C16   1.422759 A    
C27   N2    1.366554 A    
C24   H8    1.083833 S    
C30   H12   1.081916 S    
C8    C10   1.383303 A    
C2    C25   1.414534 S    
C31   O9    1.221050 D    
C11   C13   1.418578 A    
O4    Zn2   1.993295 S    
C33   H15   1.110336 S    
O2    Zn2   1.994088 S    
O7    C4    1.281527 A    
C12   C14   1.418581 A    
C5    C15   1.406426 A    
O1    Zn1   1.994090 S    
O8    C3    1.281486 A    
C20   H4    1.080216 S    
C32   O10   1.220901 D    
C19   H3    1.080203 S    
C22   H6    1.083923 S    
C13   C15   1.422755 A    
C21   C23   1.369502 A    
C16   C19   1.404035 A    
C6    C8    1.399827 A    
C34   H18   1.111261 S    
C10   H2    1.083723 S    
C27   C30   1.416848 A    
C15   C20   1.404056 A    
C5    C7    1.399824 A    
O7    Zn1   2.008733 S    
C28   C29   1.416849 A    
C22   C25   1.396309 A    
O6    Zn2   2.008462 S    
O5    Zn1   2.008464 S    
C17   C33   1.512887 S    
C7    C9    1.383302 A    
C32   H14   1.084823 S    
C23   H7    1.083833 S    
C33   H16   1.110777 S    
C29   H11   1.081916 S    
C34   H19   1.111913 S    
O8    Zn2   2.008734 S    
O4    C1    1.281656 A    
C9    C11   1.386721 A    
C6    C16   1.406418 A    
C6    C32   1.491871 S    
