data_mof_unit_18721.cif
_audit_creation_date              2013-03-05T16:42:04-0500
_audit_creation_method            fapswitch 2.2
_symmetry_space_group_name_H-M    P1
_symmetry_Int_Tables_number       1
_space_group_crystal_system       triclinic
_cell_length_a                    9.88959
_cell_length_b                    10.654687
_cell_length_c                    13.22156
_cell_angle_alpha                 91.001019
_cell_angle_beta                  71.819922
_cell_angle_gamma                 89.944122
_cell_volume                      1323.38408873

loop_
_atom_site_label
_atom_site_type_symbol
_atom_site_description
_atom_site_fract_x
_atom_site_fract_y
_atom_site_fract_z
_atom_type_partial_charge
O1    O     O_R   0.385310 0.683210 0.499990 -0.612629
O2    O     O_R   0.614650 0.683240 0.500000 -0.619812
C1    C     C_R   0.498319 0.740225 0.504276 0.883254
O3    O     O_R   0.328390 0.499940 0.653610 -0.608921
O4    O     O_R   0.557730 0.499980 0.653620 -0.639547
C2    C     C_R   0.422718 0.493352 0.702550 0.847657
Zn1   Zn    Zn3+2 0.346870 0.499980 0.499990 1.008727
Zn2   Zn    Zn3+2 0.653130 0.500020 0.500010 0.998318
O5    O     O_R   0.385350 0.316760 0.500000 -0.632519
O6    O     O_R   0.614690 0.316790 0.500010 -0.596640
O7    O     O_R   0.442270 0.500020 0.346380 -0.551482
O8    O     O_R   0.671610 0.500060 0.346390 -0.568086
C3    C     C_R   0.497513 0.260137 0.506181 0.893282
C4    C     C_R   0.575533 0.487606 0.296459 0.939226
C5    C     C_R   0.774033 0.367136 0.016895 0.315004
H1    H     H_    0.834037 0.428740 0.152551 0.225522
H2    H     H_    0.788278 0.281813 0.817277 0.210045
C6    C     C_R   0.607871 0.445386 0.183339 -0.238113
C7    C     C_R   0.239120 0.517918 0.874356 -0.122504
C8    C     C_R   0.183450 0.491986 0.980934 -0.066520
C9    C     C_R   0.266833 0.431045 0.031868 -0.066288
C10   C     C_R   0.414078 0.407687 0.980221 0.087580
C11   C     C_R   0.459928 0.410093 0.868257 0.082920
C12   C     C_R   0.520355 0.392450 0.032579 -0.054245
C13   C     C_R   0.662530 0.361369 0.970713 -0.000258
C14   C     C_R   0.688701 0.324201 0.864087 -0.152604
C15   C     C_R   0.589224 0.349739 0.812963 -0.217899
C16   C     C_R   0.493583 0.419802 0.141628 0.288028
C17   C     C_R   0.746700 0.416407 0.120444 -0.280225
C18   C     C_R   0.374131 0.472204 0.816177 -0.117294
H3    H     H_    0.173626 0.568230 0.836257 0.166693
H4    H     H_    0.208123 0.396871 0.108292 0.237016
H5    H     H_    0.074128 0.516734 0.023903 0.161835
H6    H     H_    0.616432 0.323310 0.729736 0.175822
C19   C     C_R   0.363359 0.936683 0.541633 0.088728
C20   C     C_R   0.490666 0.871822 0.525546 -0.097596
C21   C     C_R   0.609240 0.935945 0.536887 -0.195131
H7    H     H_    0.706249 0.887290 0.535040 0.177978
C22   C     C_R   0.607826 0.065843 0.539537 -0.159925
H8    H     H_    0.703443 0.114663 0.540008 0.212253
C23   C     C_R   0.488482 0.129827 0.529901 -0.121055
C24   C     C_R   0.361480 0.064884 0.545393 0.080117
C25   C     C_3   0.248538 0.072658 0.492499 -0.209490
C26   C     C_3   0.253652 0.929883 0.485425 -0.470216
H9    H     H_    0.282922 0.119208 0.414070 0.204524
H10   H     H_    0.154651 0.883162 0.533416 0.197830
H11   H     H_    0.297954 0.892987 0.402357 0.219643
C27   C     C_R   0.910773 0.599442 0.542664 0.157755
N1    N     N_R   0.856940 0.500860 0.500710 -0.170148
C28   C     C_R   0.949233 0.403961 0.453285 0.311524
C29   C     C_R   0.091291 0.403752 0.456121 -0.061740
H12   H     H_    0.160596 0.325425 0.422846 0.207076
N2    N     N_R   0.142580 0.500820 0.500710 -0.126273
C30   C     C_R   0.053385 0.599383 0.542695 0.210464
C31   C     C_3   0.010578 0.642448 0.656390 -0.503751
C32   C     C_3   0.857579 0.643916 0.655740 -0.473371
H13   H     H_    0.031344 0.570175 0.709425 0.243066
H14   H     H_    0.051483 0.737232 0.666606 0.198765
H15   H     H_    0.789938 0.573574 0.709424 0.233020
H16   H     H_    0.810948 0.739921 0.663469 0.202777
C33   C     C_1   0.114726 0.121827 0.567293 0.299243
N3    N     N_1   0.009714 0.160307 0.626472 -0.194515
N4    N     N_R   0.904785 0.300896 0.400629 0.226951
O9    O     O_R   0.859289 0.322169 0.320476 -0.352717
O10   O     O_R   0.946520 0.187672 0.411936 -0.426166
N5    N     N_R   0.916284 0.327099 0.959180 0.190356
O11   O     O_R   0.987210 0.258158 0.005695 -0.359828
O12   O     O_R   0.980907 0.370331 0.865094 -0.452240
N6    N     N_R   0.352300 0.405546 0.212322 0.186443
O13   O     O_R   0.303336 0.293135 0.237318 -0.425290
O14   O     O_R   0.268632 0.503068 0.243131 -0.424404

loop_
_geom_bond_atom_site_label_1
_geom_bond_atom_site_label_2
_geom_bond_distance
_ccdc_geom_bond_type
O4    Zn2   1.954297 S    
N5    O12   1.300984 A    
C31   C32   1.515862 S    
N4    O10   1.300715 A    
C5    C17   1.402407 A    
C21   H7    1.083381 S    
C28   N4    1.431433 S    
C11   C18   1.418243 A    
C11   C15   1.407724 A    
C26   H11   1.112225 S    
C23   C24   1.394412 A    
C4    C6    1.489714 S    
C19   C20   1.390681 A    
C32   H15   1.111870 S    
C27   C32   1.490106 S    
Zn2   O8    1.981704 S    
C7    H3    1.083050 S    
C7    C8    1.376544 A    
C3    C23   1.425479 S    
C28   C29   1.417038 A    
H1    C17   1.081921 S    
C21   C22   1.383805 A    
C6    C17   1.396296 A    
C15   H6    1.080188 S    
N2    C30   1.364311 A    
C8    C9    1.384146 A    
C27   C30   1.410508 A    
C19   C26   1.495343 S    
C25   H9    1.111367 S    
C30   C31   1.492591 S    
C14   C15   1.385494 A    
N6    O13   1.301269 A    
C1    C20   1.422500 S    
O3    Zn1   1.981702 S    
O4    C2    1.291926 A    
H2    C14   1.079741 S    
C8    H5    1.082637 S    
Zn2   O6    1.989291 S    
C27   N1    1.363599 A    
C2    C18   1.449219 S    
C26   H10   1.110557 S    
Zn1   O7    1.954300 S    
O2    C1    1.285404 A    
C31   H13   1.111422 S    
C25   C26   1.522289 S    
C33   N3    1.157469 T    
O7    C4    1.282123 A    
C10   C12   1.438010 A    
C5    C13   1.418295 A    
N6    O14   1.305164 A    
C24   C25   1.494259 S    
Zn1   N2    2.017405 S    
C29   N2    1.356752 A    
C29   H12   1.075959 S    
C9    H4    1.066707 S    
C32   H16   1.111518 S    
C22   H8    1.081344 S    
C6    C16   1.428361 A    
C12   C13   1.423965 A    
C25   C33   1.472259 S    
O3    C2    1.293052 A    
N1    C28   1.382240 A    
C5    N5    1.435595 S    
C31   H14   1.109913 S    
N5    O11   1.301442 A    
Zn1   O5    1.988543 S    
C19   C24   1.365879 A    
O5    C3    1.287658 A    
C10   C11   1.407176 A    
C20   C21   1.404301 A    
O1    Zn1   1.989291 S    
C13   C14   1.401382 A    
C9    C10   1.421829 A    
C7    C18   1.398731 A    
C16   N6    1.428078 S    
Zn2   N1    2.018533 S    
O2    Zn2   1.988544 S    
C22   C23   1.403319 A    
C12   C16   1.407402 A    
O8    C4    1.320926 A    
N4    O9    1.297154 A    
O1    C1    1.288773 A    
O6    C3    1.287630 A    
