data_mof_unit_19198.cif
_audit_creation_date              2012-12-10T20:45:33-0500
_audit_creation_method            fapswitch 2.2
_symmetry_space_group_name_H-M    P1
_symmetry_Int_Tables_number       1
_space_group_crystal_system       triclinic
_cell_length_a                    10.7746
_cell_length_b                    10.664864
_cell_length_c                    9.846881
_cell_angle_alpha                 89.81641
_cell_angle_beta                  91.670107
_cell_angle_gamma                 89.317891
_cell_volume                      1130.93363985

loop_
_atom_site_label
_atom_site_type_symbol
_atom_type_description
_atom_site_fract_x
_atom_site_fract_y
_atom_site_fract_z
_atom_type_partial_charge
C1    C     C_R   0.499944 0.260274 0.499672 0.880212
C2    C     C_R   0.844507 0.437125 0.982255 -0.144856
C3    C     C_R   0.851430 0.307969 0.005026 -0.110344
C4    C     C_R   0.260048 0.503286 0.497855 0.875285
C5    C     C_R   0.884212 0.227814 0.899830 -0.152167
C6    C     C_R   0.908555 0.276827 0.771480 -0.196644
C7    C     C_R   0.896770 0.406044 0.746319 0.151778
C8    C     C_R   0.596212 0.062038 0.563842 0.058463
C9    C     C_R   0.502314 0.128522 0.495337 -0.058980
C10   C     C_R   0.419830 0.066279 0.406574 -0.225954
C11   C     C_R   0.419325 0.936270 0.406766 -0.200567
C12   C     C_R   0.169662 0.692789 0.000159 0.061163
C13   C     C_R   0.499552 0.871205 0.497260 -0.084209
C14   C     C_R   0.592197 0.934517 0.568707 0.042920
C15   C     C_3   0.643914 0.929109 0.711494 -0.007390
C16   C     C_R   0.498313 0.739636 0.499713 0.881388
C17   C     C_3   0.652529 0.071683 0.703362 -0.541694
C18   C     C_R   0.411077 0.436885 0.068679 0.251239
C19   C     C_R   0.577126 0.575534 0.074334 -0.127932
C20   C     C_R   0.577483 0.575048 0.930130 -0.088066
C21   C     C_R   0.410324 0.437696 0.926315 0.209746
C22   C     C_3   0.381847 0.301423 0.920041 -0.508006
C23   C     C_R   0.928976 0.549508 0.391167 -0.241417
C24   C     C_3   0.384068 0.300426 0.074466 -0.516035
C25   C     C_R   0.740224 0.498830 0.502409 0.874372
C26   C     C_R   0.165775 0.774079 0.113083 0.214356
C27   C     C_R   0.134836 0.725455 0.240675 -0.177423
C28   C     C_R   0.107652 0.597983 0.255708 0.105815
C29   C     C_R   0.111954 0.518563 0.143063 -0.161193
C30   C     C_R   0.142442 0.565749 0.016267 -0.250174
C31   C     C_1   0.198210 0.737983 0.866396 0.192306
C32   C     C_1   0.555708 0.887707 0.813415 0.199033
C33   C     C_1   0.765197 0.864573 0.722173 0.128443
C34   C     C_R   0.872831 0.502484 0.506674 -0.077205
C35   C     C_3   0.190198 0.912135 0.097742 -0.944578
C36   C     C_R   0.944962 0.458453 0.619325 -0.002503
C37   C     C_R   0.071800 0.459833 0.611004 -0.242123
C38   C     C_R   0.127720 0.505164 0.495182 -0.076694
C39   C     C_R   0.056265 0.550772 0.383360 0.007866
C40   C     C_R   0.866962 0.486185 0.853497 -0.116353
H1    H     H_    0.834350 0.270408 0.104913 0.133484
H2    H     H_    0.288193 0.284032 0.874028 0.198692
H3    H     H_    0.458028 0.245290 0.877092 0.218727
H4    H     H_    0.291834 0.281769 0.117476 0.197465
H5    H     H_    0.462423 0.244234 0.119929 0.224215
H6    H     H_    0.128103 0.787122 0.327483 0.133942
H7    H     H_    0.088467 0.420536 0.152829 0.144182
H8    H     H_    0.143585 0.502937 0.930156 0.152112
H9    H     H_    0.873503 0.585483 0.305553 0.157082
H10   H     H_    0.127366 0.422757 0.696016 0.156727
H11   H     H_    0.866197 0.586641 0.838903 0.143067
H12   H     H_    0.893003 0.127939 0.918279 0.142888
H13   H     H_    0.825003 0.499537 0.065404 0.131584
H14   H     H_    0.286782 0.926068 0.065029 0.264544
H15   H     H_    0.124521 0.953536 0.020488 0.247350
H16   H     H_    0.177873 0.963309 0.194563 0.229122
H17   H     H_    0.939713 0.214551 0.692387 0.130210
H18   H     H_    0.352844 0.117618 0.342934 0.149889
H19   H     H_    0.352976 0.886968 0.342627 0.165637
H20   H     H_    0.593256 0.123716 0.774343 0.205159
H21   H     H_    0.748564 0.105907 0.698431 0.201071
H22   H     H_    0.641468 0.634205 0.130677 0.143998
H23   H     H_    0.642099 0.633173 0.877467 0.143591
N1    N     N_R   0.499160 0.499140 0.142800 -0.111130
N2    N     N_R   0.499160 0.499180 0.857150 -0.107507
N3    N     N_1   0.220818 0.773919 0.758980 -0.183952
N4    N     N_1   0.486244 0.856454 0.893930 -0.218134
N5    N     N_1   0.861055 0.814579 0.729999 -0.229610
O1    O     O_R   0.500020 0.316790 0.614690 -0.620280
O2    O     O_R   0.500000 0.316760 0.385350 -0.626336
O3    O     O_R   0.316770 0.500030 0.614670 -0.620775
O4    O     O_R   0.316750 0.499990 0.385330 -0.615995
O5    O     O_R   0.500000 0.683240 0.614650 -0.610776
O6    O     O_R   0.499980 0.683210 0.385310 -0.618559
O7    O     O_R   0.683250 0.500010 0.614670 -0.615933
O8    O     O_R   0.683230 0.499970 0.385330 -0.632439
Zn1   Zn    Zn3+2 0.500010 0.500020 0.653130 0.964115
Zn2   Zn    Zn3+2 0.499990 0.499980 0.346870 0.950694

loop_
_geom_bond_atom_site_label_1
_geom_bond_atom_site_label_2
_ccdc_geom_bond_type
C31   N3    T    
O2    Zn2   S    
C18   C21   A    
C7    C36   S    
O1    Zn1   S    
C19   C20   A    
C4    O4    A    
C15   C32   S    
C5    C6    A    
C26   C27   A    
C37   C38   A    
C29   H7    S    
C16   O6    A    
C24   H5    S    
C30   H8    S    
C28   C29   A    
C10   H18   S    
O8    Zn2   S    
C38   C39   A    
C23   H9    S    
C19   H22   S    
O4    Zn2   S    
C17   H21   S    
C3    H1    S    
C8    C9    A    
C7    C40   A    
C5    H12   S    
C18   C24   S    
C9    C10   A    
C25   C34   S    
C21   N2    A    
C13   C14   A    
C35   H14   S    
C6    H17   S    
C11   H19   S    
N2    Zn1   S    
C35   H15   S    
C16   O5    A    
C20   N2    A    
C1    C9    S    
C28   C39   S    
C1    O1    A    
C12   C26   A    
C25   O7    A    
C29   C30   A    
C22   H3    S    
C19   N1    A    
C23   C34   A    
O7    Zn1   S    
C32   N4    T    
C27   H6    S    
C4    C38   S    
C12   C31   S    
C24   H4    S    
C22   C24   S    
O3    Zn1   S    
C15   C17   S    
C36   C37   A    
C8    C14   A    
C12   C30   A    
C35   H16   S    
N1    Zn2   S    
C1    O2    A    
C3    C5    A    
C2    H13   S    
C6    C7    A    
C40   H11   S    
C8    C17   S    
C25   O8    A    
C20   H23   S    
C2    C3    A    
C37   H10   S    
C11   C13   A    
C18   N1    A    
C22   H2    S    
C23   C39   A    
C34   C36   A    
C10   C11   A    
C17   H20   S    
C2    C40   A    
C26   C35   S    
O6    Zn2   S    
C13   C16   S    
C27   C28   A    
O5    Zn1   S    
C14   C15   S    
C21   C22   S    
C15   C33   S    
C4    O3    A    
C33   N5    T    
