data_mof_unit_32382.cif
_audit_creation_date              2012-10-26T20:17:40-0400
_audit_creation_method            fapswitch 2.2
_symmetry_space_group_name_H-M    P1
_symmetry_Int_Tables_number       1
_space_group_crystal_system       triclinic
_cell_length_a                    27.853488
_cell_length_b                    8.701738
_cell_length_c                    7.523636
_cell_angle_alpha                 103.192342
_cell_angle_beta                  94.903974
_cell_angle_gamma                 93.864411
_cell_volume                      1761.79564576

loop_
_atom_site_label
_atom_site_type_symbol
_atom_type_description
_atom_site_fract_x
_atom_site_fract_y
_atom_site_fract_z
_atom_type_partial_charge
C1    C     C_R   0.498221 0.199776 0.453105 0.565005
C2    C     C_R   0.867157 0.375409 0.387681 0.022623
C3    C     C_R   0.355565 0.499808 0.503269 -0.018924
C4    C     C_R   0.644435 0.500184 0.496731 -0.018925
C5    C     C_R   0.969070 0.368085 0.393656 -0.024630
C6    C     C_R   0.030930 0.631863 0.606388 -0.024630
C7    C     C_R   0.979805 0.633691 0.603732 0.017932
C8    C     C_R   0.020195 0.366258 0.396311 0.017932
C9    C     C_R   0.949223 0.500717 0.499821 0.026086
C10   C     C_R   0.050777 0.499233 0.500221 0.026086
C11   C     C_R   0.936852 0.240897 0.288234 -0.079219
C12   C     C_R   0.501779 0.800224 0.546895 0.565004
C13   C     C_R   0.063148 0.759052 0.711811 -0.079220
C14   C     C_R   0.887031 0.240781 0.289745 0.260939
C15   C     C_R   0.112968 0.759171 0.710297 0.260938
C16   C     C_R   0.408002 0.498290 0.500881 0.553961
C17   C     C_R   0.591998 0.501710 0.499119 0.553961
C18   C     C_R   0.042043 0.232644 0.304286 -0.143987
C19   C     C_R   0.957957 0.767306 0.695756 -0.143987
C20   C     C_2   0.497162 0.031413 0.427366 -0.089598
C21   C     C_2   0.502836 0.968587 0.572634 -0.089601
C22   C     C_R   0.172390 0.384173 0.376178 0.408786
C23   C     C_R   0.101828 0.498560 0.500097 -0.065348
C24   C     C_R   0.827610 0.615788 0.623851 0.408783
C25   C     C_R   0.182834 0.608375 0.628199 0.408613
C26   C     C_R   0.817166 0.391584 0.371834 0.408614
C27   C     C_R   0.283736 0.644663 0.512312 0.026162
C28   C     C_R   0.716260 0.355315 0.487703 0.026160
C29   C     C_R   0.334436 0.644524 0.531400 -0.061080
C30   C     C_R   0.665561 0.355464 0.468606 -0.061080
C31   C     C_R   0.326182 0.356696 0.470182 -0.050518
C32   C     C_R   0.673820 0.643291 0.529819 -0.050519
C33   C     C_R   0.276572 0.359322 0.481151 -0.057612
C34   C     C_R   0.898172 0.501393 0.499941 -0.065348
C35   C     C_R   0.723430 0.640657 0.518862 -0.057611
C36   C     C_R   0.254353 0.501675 0.497633 0.183534
C37   C     C_R   0.745646 0.498298 0.502386 0.183533
C38   C     C_1   0.345908 0.206013 0.414868 0.255079
C39   C     C_1   0.654096 0.793979 0.585125 0.255081
C40   C     C_1   0.450966 0.349392 0.928204 0.446389
C41   C     C_1   0.549034 0.650607 0.071795 0.446389
C42   C     C_1   0.111123 0.083861 0.229841 0.274565
C43   C     C_1   0.888878 0.916095 0.770193 0.274564
C44   C     C_1   0.635043 0.207723 0.414148 0.239243
C45   C     C_R   0.122174 0.370403 0.390574 0.022670
C46   C     C_1   0.364953 0.792269 0.585855 0.239240
C47   C     C_1   0.737645 0.210651 0.501884 0.288253
C48   C     C_1   0.262348 0.789322 0.498134 0.288246
C49   C     C_R   0.877826 0.629553 0.609461 0.022669
C50   C     C_R   0.091961 0.233384 0.301702 -0.008294
C51   C     C_R   0.908039 0.766570 0.698334 -0.008293
C52   C     C_R   0.132843 0.624545 0.612358 0.022624
Cu1   Cu    Cu3+1 0.505380 0.517380 0.684380 1.027472
Cu2   Cu    Cu3+1 0.494620 0.482620 0.315620 1.027473
H1    H     H_    0.254875 0.248793 0.470080 0.185912
H2    H     H_    0.167644 0.911876 0.723797 0.367515
H3    H     H_    0.745129 0.751182 0.529935 0.185912
H4    H     H_    0.948805 0.136499 0.203371 0.140340
H5    H     H_    0.051195 0.863447 0.796677 0.140341
H6    H     H_    0.021445 0.122340 0.237716 0.098409
H7    H     H_    0.978556 0.877608 0.762329 0.098409
H8    H     H_    0.491920 0.958887 0.287709 0.143097
H9    H     H_    0.508078 0.041113 0.712291 0.143096
H10   H     H_    0.832354 0.088079 0.276251 0.367511
N1    N     N_R   0.202241 0.499132 0.499187 -0.396500
N2    N     N_1   0.873634 0.036419 0.824651 -0.177610
N3    N     N_1   0.610377 0.090506 0.367427 -0.248347
N4    N     N_1   0.389617 0.909488 0.632573 -0.248344
N5    N     N_1   0.754612 0.095122 0.513742 -0.260724
N6    N     N_1   0.245379 0.904848 0.486278 -0.260723
N7    N     N_R   0.797759 0.500832 0.500840 -0.396501
N8    N     N_2   0.486510 0.456430 0.038510 -0.209000
N9    N     N_2   0.513490 0.543570 0.961490 -0.209001
N10   N     N_1   0.361701 0.085675 0.366942 -0.244194
N11   N     N_1   0.638305 0.914322 0.633042 -0.244191
N12   N     N_1   0.421057 0.259429 0.838133 -0.280168
N13   N     N_1   0.578943 0.740569 0.161866 -0.280165
N14   N     N_1   0.126367 0.963538 0.175382 -0.177602
O1    O     O_R   0.503500 0.286120 0.619780 -0.514704
O2    O     O_2   0.809118 0.713797 0.762061 -0.454012
O3    O     O_2   0.788475 0.302864 0.225766 -0.441926
O4    O     O_2   0.211525 0.697095 0.774265 -0.441929
O5    O     O_3   0.859349 0.102534 0.202335 -0.627194
O6    O     O_3   0.140650 0.897417 0.797710 -0.627198
O7    O     O_R   0.496500 0.713880 0.380220 -0.514703
O8    O     O_R   0.494410 0.256780 0.308360 -0.503009
O9    O     O_R   0.505590 0.743220 0.691640 -0.503010
O10   O     O_R   0.434810 0.514700 0.655690 -0.502813
O11   O     O_R   0.565190 0.485300 0.344310 -0.502812
O12   O     O_R   0.425720 0.485350 0.344280 -0.503169
O13   O     O_R   0.574280 0.514650 0.655720 -0.503169
O14   O     O_2   0.190882 0.286168 0.237965 -0.454012

loop_
_geom_bond_atom_site_label_1
_geom_bond_atom_site_label_2
_ccdc_geom_bond_type
C27   C48   S    
C33   H1    S    
C28   C47   S    
C16   O12   A    
C23   C45   A    
C27   C29   A    
C17   O13   A    
H10   O5    S    
Cu1   Cu2   S    
C46   N4    T    
C12   O7    A    
C45   C50   A    
Cu1   O1    S    
Cu2   O12   S    
C41   N13   T    
C11   C14   A    
C1    O8    A    
C33   C36   A    
C32   C39   S    
C3    C29   A    
C47   N5    T    
C24   O2    S    
C49   C51   A    
Cu1   O13   S    
C31   C33   A    
C39   N11   T    
C11   H4    S    
C2    C34   A    
C26   N7    A    
C30   C44   S    
C14   O5    S    
H2    O6    S    
C32   C35   A    
C17   O11   A    
Cu2   O11   S    
Cu1   O9    S    
Cu2   O8    S    
C36   N1    S    
C12   C21   S    
C8    C18   A    
C40   N12   T    
C22   N1    A    
C5    C9    A    
C5    C8    A    
C25   N1    A    
C2    C26   A    
C4    C32   A    
C15   C52   A    
C3    C31   A    
C15   O6    S    
C42   C50   S    
C4    C17   S    
C18   H6    S    
C42   N14   T    
C26   O3    S    
C7    C19   A    
C37   N7    S    
C9    C34   A    
C27   C36   A    
C18   C50   A    
C38   N10   T    
C24   C49   A    
C7    C9    A    
C1    C20   S    
C40   N8    S    
C12   O9    A    
C35   C37   A    
Cu1   N9    S    
C48   N6    T    
N8    N9    D    
C6    C10   A    
Cu2   O7    S    
C5    C11   A    
C6    C7    A    
C13   H5    S    
C10   C23   A    
C31   C38   S    
C29   C46   S    
C35   H3    S    
C13   C15   A    
C25   C52   A    
C6    C13   A    
C43   C51   S    
C23   C52   A    
C25   O4    S    
C28   C37   A    
C19   H7    S    
C43   N2    T    
C1    O1    A    
C28   C30   A    
Cu1   O10   S    
C20   H8    S    
C2    C14   A    
C21   H9    S    
C41   N9    S    
C19   C51   A    
C22   C45   A    
Cu2   N8    S    
C20   C21   D    
C34   C49   A    
C8    C10   A    
C16   O10   A    
C22   O14   S    
C44   N3    T    
C4    C30   A    
C3    C16   S    
C24   N7    A    
