data_mof_unit_18126.cif
_audit_creation_date              2012-12-10T17:57:10-0500
_audit_creation_method            fapswitch 2.2
_symmetry_space_group_name_H-M    P1
_symmetry_Int_Tables_number       1
_space_group_crystal_system       triclinic
_cell_length_a                    18.257868
_cell_length_b                    18.441286
_cell_length_c                    25.952972
_cell_angle_alpha                 90.012997
_cell_angle_beta                  90.014802
_cell_angle_gamma                 90.047061
_cell_volume                      8738.32497936

loop_
_atom_site_label
_atom_site_type_symbol
_atom_type_description
_atom_site_fract_x
_atom_site_fract_y
_atom_site_fract_z
_atom_type_partial_charge
C1    C     C_R   0.860438 0.140661 0.248990 0.824107
C2    C     C_R   0.140152 0.140107 0.750584 0.838932
C3    C     C_R   0.140464 0.139754 0.250078 0.827337
C4    C     C_R   0.859229 0.139473 0.749874 0.823105
C5    C     C_R   0.359744 0.640012 0.749673 0.836930
C6    C     C_R   0.639963 0.640163 0.250448 0.824049
C7    C     C_R   0.640765 0.639417 0.750230 0.825778
C8    C     C_R   0.359373 0.639555 0.249891 0.828394
C9    C     C_R   0.266326 0.817333 0.227457 0.470595
C10   C     C_R   0.738211 0.812981 0.780034 0.494384
C11   C     C_R   0.753281 0.798164 0.208133 0.469782
C12   C     C_R   0.258709 0.810013 0.783487 0.480288
C13   C     C_R   0.755476 0.306487 0.713956 0.496289
C14   C     C_R   0.233810 0.317884 0.273018 0.480075
C15   C     C_R   0.233049 0.318011 0.728082 0.474753
C16   C     C_R   0.762573 0.313587 0.279196 0.472128
C17   C     C_R   0.809501 0.253825 0.716611 -0.358366
C18   C     C_R   0.180567 0.263627 0.271038 -0.389439
C19   C     C_R   0.181812 0.262377 0.727214 -0.358413
C20   C     C_R   0.813607 0.257886 0.279675 -0.366628
C21   C     C_R   0.319224 0.763124 0.229609 -0.368835
C22   C     C_R   0.684859 0.759009 0.777356 -0.382665
C23   C     C_R   0.701940 0.742393 0.208556 -0.376660
C24   C     C_R   0.309660 0.753973 0.783685 -0.371785
C25   C     C_R   0.801150 0.193643 0.748864 -0.190208
C26   C     C_R   0.197209 0.195288 0.250698 -0.165844
C27   C     C_R   0.195499 0.196995 0.752811 -0.183714
C28   C     C_R   0.806560 0.198872 0.246090 -0.185791
C29   C     C_R   0.302281 0.694624 0.249328 -0.167910
C30   C     C_R   0.698300 0.694064 0.751225 -0.167469
C31   C     C_R   0.695229 0.696997 0.251447 -0.165551
C32   C     C_R   0.303909 0.696435 0.748760 -0.172300
C33   C     C_R   0.737027 0.186132 0.778952 0.503478
C34   C     C_R   0.268118 0.180762 0.232100 0.505942
C35   C     C_R   0.261428 0.187657 0.780617 0.489344
C36   C     C_R   0.748691 0.197286 0.209900 0.501700
C37   C     C_R   0.231236 0.680009 0.267864 0.493484
C38   C     C_R   0.766453 0.682498 0.727149 0.480305
C39   C     C_R   0.740405 0.707551 0.294854 0.477667
C40   C     C_R   0.245536 0.694324 0.713286 0.490651
C41   C     C_R   0.179620 0.735302 0.268683 -0.356957
C42   C     C_R   0.817435 0.738304 0.726178 -0.365336
C43   C     C_R   0.795419 0.759584 0.292888 -0.362420
C44   C     C_R   0.192001 0.747631 0.715323 -0.364559
C45   C     C_R   0.686742 0.242419 0.780065 -0.352312
C46   C     C_R   0.319341 0.236253 0.230268 -0.364590
C47   C     C_R   0.314776 0.241102 0.778012 -0.352509
C48   C     C_R   0.694045 0.249353 0.212928 -0.352458
C49   C     C_R   0.196561 0.803925 0.248794 -0.163462
C50   C     C_R   0.803832 0.803556 0.752004 -0.160406
C51   C     C_R   0.802415 0.804858 0.249810 -0.158495
C52   C     C_R   0.197882 0.805393 0.750045 -0.164265
C53   C     C_R   0.695226 0.302694 0.747844 -0.188866
C54   C     C_R   0.302889 0.304578 0.250643 -0.157065
C55   C     C_R   0.301489 0.306085 0.751733 -0.176844
C56   C     C_R   0.699759 0.307085 0.247798 -0.174026
C57   C     C_R   0.065782 0.012529 0.026666 0.323589
C58   C     C_R   0.934696 0.983298 0.973531 0.335483
C59   C     C_R   0.936852 0.976953 0.026856 0.345886
C60   C     C_R   0.067162 0.004551 0.973512 0.334509
C61   C     C_R   0.565526 0.488068 0.526408 0.302183
C62   C     C_R   0.435441 0.518759 0.473058 0.312752
C63   C     C_R   0.433783 0.511580 0.526361 0.307656
C64   C     C_R   0.563182 0.480112 0.473160 0.314155
C65   C     C_R   0.000484 0.996007 0.946354 -0.391933
C66   C     C_R   0.000728 0.997177 0.053794 -0.386622
C67   C     C_R   0.499591 0.500004 0.446082 -0.356609
C68   C     C_R   0.499801 0.500258 0.553585 -0.363558
C69   C     C_R   0.140493 0.860203 0.249899 0.838684
C70   C     C_R   0.859671 0.860053 0.750353 0.843043
C71   C     C_R   0.859715 0.859989 0.249703 0.840028
C72   C     C_R   0.140473 0.860232 0.750188 0.839994
C73   C     C_R   0.640009 0.359748 0.749448 0.833856
C74   C     C_R   0.359426 0.360346 0.249984 0.842721
C75   C     C_R   0.359212 0.360585 0.750328 0.826999
C76   C     C_R   0.640948 0.360618 0.249656 0.828274
C77   C     C_R   0.000128 0.999413 0.109857 0.875659
C78   C     C_R   0.000068 0.998817 0.890202 0.895025
C79   C     C_R   0.499955 0.500097 0.609776 0.895917
C80   C     C_R   0.499921 0.499804 0.390098 0.893631
C81   C     C_R   0.998168 0.000110 0.389928 0.779731
C82   C     C_R   0.998261 0.000075 0.610080 0.780824
C83   C     C_R   0.502086 0.500134 0.889923 0.779946
C84   C     C_R   0.502017 0.500109 0.110078 0.779969
C85   C     C_R   0.887068 0.084369 0.446366 -0.175631
C86   C     C_R   0.886801 0.083755 0.553856 -0.177000
C87   C     C_R   0.609934 0.589083 0.946382 -0.177032
C88   C     C_R   0.609970 0.588804 0.053822 -0.177516
C89   C     C_R   0.835618 0.125173 0.473411 -0.142988
C90   C     C_R   0.835387 0.124725 0.526952 -0.148624
C91   C     C_R   0.659020 0.632763 0.973413 -0.151333
C92   C     C_R   0.659010 0.632604 0.026942 -0.143725
C93   C     C_R   0.940794 0.043199 0.527408 0.100887
C94   C     C_R   0.940848 0.043371 0.472698 0.097180
C95   C     C_R   0.557931 0.545633 0.027402 0.099346
C96   C     C_R   0.557927 0.545726 0.972685 0.100202
C97   C     C_R   0.992896 0.000277 0.446056 -0.073898
C98   C     C_R   0.992920 0.000163 0.553972 -0.071927
C99   C     C_R   0.507726 0.500369 0.946043 -0.073361
C100  C     C_R   0.507695 0.500295 0.053965 -0.074846
C101  C     C_R   0.041000 0.955595 0.473321 -0.209171
C102  C     C_R   0.041038 0.955565 0.526665 -0.209595
C103  C     C_R   0.461649 0.453596 0.973314 -0.210623
C104  C     C_R   0.461622 0.453571 0.026631 -0.210763
H1    H     H_    0.080108 0.921747 0.453124 0.157274
H2    H     H_    0.080184 0.921713 0.546827 0.155338
H3    H     H_    0.423964 0.418088 0.953148 0.156654
H4    H     H_    0.423911 0.418060 0.046744 0.158605
H5    H     H_    0.794925 0.156265 0.452690 0.143335
H6    H     H_    0.794377 0.155237 0.547804 0.139146
H7    H     H_    0.698123 0.665935 0.952702 0.128986
H8    H     H_    0.697999 0.665638 0.047834 0.144260
H9    H     H_    0.125790 0.723948 0.284302 0.194410
H10   H     H_    0.868465 0.729559 0.705786 0.199828
H11   H     H_    0.831230 0.765854 0.325898 0.196512
H12   H     H_    0.145557 0.743365 0.689583 0.193819
H13   H     H_    0.639957 0.237715 0.805525 0.201662
H14   H     H_    0.372966 0.224897 0.214326 0.194369
H15   H     H_    0.366913 0.231282 0.796683 0.195989
H16   H     H_    0.647637 0.244913 0.187089 0.199370
O1    O     O_3   1.000000 0.000000 0.249960 -0.493483
O2    O     O_3   1.000000 0.000000 0.750040 -0.493351
O3    O     O_3   0.500000 0.500000 0.749960 -0.496030
O4    O     O_3   0.500000 0.500000 0.250040 -0.492826
O5    O     O_R   0.914520 0.146190 0.280310 -0.656591
O6    O     O_R   0.085480 0.146190 0.719690 -0.646778
O7    O     O_R   0.085480 0.146190 0.280310 -0.652149
O8    O     O_R   0.914520 0.146190 0.719690 -0.658121
O9    O     O_R   0.414520 0.646190 0.780310 -0.652933
O10   O     O_R   0.585480 0.646190 0.219690 -0.659345
O11   O     O_R   0.585480 0.646190 0.780310 -0.660159
O12   O     O_R   0.414520 0.646190 0.219690 -0.650376
O13   O     O_R   0.085470 0.853840 0.280350 -0.651067
O14   O     O_R   0.914530 0.853840 0.719650 -0.654884
O15   O     O_R   0.914530 0.853840 0.280350 -0.652029
O16   O     O_R   0.085470 0.853840 0.719650 -0.657225
O17   O     O_R   0.585470 0.353840 0.780350 -0.653697
O18   O     O_R   0.414530 0.353840 0.219650 -0.653791
O19   O     O_R   0.414530 0.353840 0.780350 -0.657503
O20   O     O_R   0.585470 0.353840 0.219650 -0.652751
O21   O     O_R   0.853820 0.914550 0.219610 -0.617175
O22   O     O_R   0.146180 0.914550 0.780390 -0.613305
O23   O     O_R   0.146180 0.914550 0.219610 -0.619467
O24   O     O_R   0.853820 0.914550 0.780390 -0.607650
O25   O     O_R   0.353820 0.414550 0.719610 -0.607476
O26   O     O_R   0.646180 0.414550 0.280390 -0.622686
O27   O     O_R   0.646180 0.414550 0.719610 -0.613205
O28   O     O_R   0.353820 0.414550 0.280390 -0.616257
O29   O     O_R   0.146180 0.085440 0.219600 -0.619921
O30   O     O_R   0.853820 0.085440 0.780400 -0.623465
O31   O     O_R   0.853820 0.085440 0.219600 -0.621241
O32   O     O_R   0.146180 0.085440 0.780400 -0.627433
O33   O     O_R   0.646180 0.585440 0.719600 -0.610458
O34   O     O_R   0.353820 0.585440 0.280400 -0.627483
O35   O     O_R   0.353820 0.585440 0.719600 -0.607808
O36   O     O_R   0.646180 0.585440 0.280400 -0.615899
O37   O     O_R   0.939280 0.999970 0.134160 -0.635560
O38   O     O_R   0.060720 0.999970 0.865840 -0.638216
O39   O     O_R   0.060720 0.999970 0.134160 -0.610625
O40   O     O_R   0.939280 0.999970 0.865840 -0.626252
O41   O     O_R   0.439280 0.499970 0.634160 -0.621395
O42   O     O_R   0.560720 0.499970 0.365840 -0.619136
O43   O     O_R   0.560720 0.499970 0.634160 -0.619125
O44   O     O_R   0.439280 0.499970 0.365840 -0.625067
O45   O     O_R   0.000000 0.060760 0.365770 -0.644932
O46   O     O_R   1.000000 0.060760 0.634230 -0.644313
O47   O     O_R   0.500000 0.560760 0.865770 -0.645977
O48   O     O_R   0.500000 0.560760 0.134230 -0.646412
O49   O     O_R   1.000000 0.939310 0.365780 -0.635961
O50   O     O_R   1.000000 0.939310 0.634220 -0.637103
O51   O     O_R   0.500000 0.439310 0.865780 -0.637295
O52   O     O_R   0.500000 0.439310 0.134220 -0.637090
Zn1   Zn    Zn3+2 1.000000 0.913250 0.293350 0.952701
Zn2   Zn    Zn3+2 1.000000 0.913250 0.706650 0.949258
Zn3   Zn    Zn3+2 0.500000 0.413250 0.793350 0.943662
Zn4   Zn    Zn3+2 0.500000 0.413250 0.206650 0.947856
Zn5   Zn    Zn3+2 0.913230 0.999990 0.206580 0.955893
Zn6   Zn    Zn3+2 0.086770 0.999990 0.793420 0.963925
Zn7   Zn    Zn3+2 0.086770 0.999990 0.206580 0.968650
Zn8   Zn    Zn3+2 0.913230 0.999990 0.793420 0.968873
Zn9   Zn    Zn3+2 0.413230 0.499990 0.706580 0.975277
Zn10  Zn    Zn3+2 0.586770 0.499990 0.293420 0.964279
Zn11  Zn    Zn3+2 0.586770 0.499990 0.706580 0.968488
Zn12  Zn    Zn3+2 0.413230 0.499990 0.293420 0.959809
Zn13  Zn    Zn3+2 1.000000 0.086780 0.293330 0.940782
Zn14  Zn    Zn3+2 1.000000 0.086780 0.706670 0.946046
Zn15  Zn    Zn3+2 0.500000 0.586780 0.793330 0.941128
Zn16  Zn    Zn3+2 0.500000 0.586780 0.206670 0.939149
H17   H     H_    0.882783 0.084244 0.404857 0.149145
H18   H     H_    0.882291 0.083102 0.595353 0.143978
H19   H     H_    0.614715 0.588803 0.904918 0.148072
H20   H     H_    0.614824 0.588304 0.095284 0.148862
O53   O     O_3   0.286028 0.885802 0.210625 -0.650189
C105  C     C_3   0.294890 0.885389 0.156469 0.096240
H21   H     H_    0.240090 0.886759 0.137682 0.171530
H22   H     H_    0.325233 0.836848 0.142317 0.123124
C106  C     C_3   0.338353 0.952648 0.140763 -0.314076
H23   H     H_    0.309693 0.001837 0.154726 0.267141
H24   H     H_    0.393592 0.950465 0.158692 0.217424
C107  C     C_3   0.346620 0.958173 0.082510 -0.997531
H25   H     H_    0.372582 0.908484 0.066674 0.270074
H26   H     H_    0.381319 0.005704 0.072762 0.269106
H27   H     H_    0.292036 0.965919 0.064772 0.280011
O54   O     O_3   0.723840 0.877667 0.805565 -0.646769
C108  C     C_3   0.705626 0.865776 0.858082 0.082926
H28   H     H_    0.744449 0.897574 0.882125 0.183046
H29   H     H_    0.711102 0.808228 0.870978 0.124108
C109  C     C_3   0.627926 0.893382 0.868602 -0.373070
H30   H     H_    0.626871 0.953351 0.864714 0.224173
H31   H     H_    0.589258 0.870286 0.839941 0.222257
C110  C     C_3   0.601759 0.872627 0.922451 -0.939705
H32   H     H_    0.599575 0.812682 0.926468 0.268719
H33   H     H_    0.545962 0.894759 0.928924 0.270660
H34   H     H_    0.639024 0.895152 0.952170 0.259989
O55   O     O_3   0.759464 0.842068 0.165133 -0.652176
C111  C     C_3   0.699280 0.890178 0.163494 0.086310
H35   H     H_    0.692549 0.919018 0.201019 0.144826
H36   H     H_    0.647998 0.860176 0.154222 0.133293
C112  C     C_3   0.712640 0.946725 0.121509 -0.279312
H37   H     H_    0.763761 0.977102 0.130252 0.268310
H38   H     H_    0.719422 0.919075 0.083796 0.217721
C113  C     C_3   0.649006 0.000004 0.117660 -0.949891
H39   H     H_    0.597616 0.970920 0.107689 0.254988
H40   H     H_    0.660670 0.040357 0.087052 0.265975
H41   H     H_    0.641515 0.029106 0.154757 0.293434
O56   O     O_3   0.264920 0.865114 0.819537 -0.645243
C114  C     C_3   0.324830 0.910895 0.807243 0.082547
H42   H     H_    0.304008 0.958177 0.785071 0.187509
H43   H     H_    0.368213 0.884155 0.783604 0.119981
C115  C     C_3   0.360025 0.937885 0.857181 -0.322796
H44   H     H_    0.319592 0.970183 0.879414 0.223819
H45   H     H_    0.376798 0.890615 0.880961 0.222852
C116  C     C_3   0.427473 0.984397 0.846480 -0.976034
H46   H     H_    0.470243 0.951504 0.827070 0.267783
H47   H     H_    0.450173 0.004983 0.883390 0.263547
H48   H     H_    0.412903 0.031321 0.821697 0.287007
O57   O     O_3   0.763969 0.363254 0.679749 -0.642377
C117  C     C_3   0.737864 0.342628 0.630446 0.098752
H49   H     H_    0.704364 0.388136 0.615497 0.217022
H50   H     H_    0.701044 0.294122 0.630582 0.102414
C118  C     C_3   0.802310 0.329701 0.593812 -0.382922
H51   H     H_    0.841462 0.375746 0.596429 0.229925
H52   H     H_    0.831425 0.279299 0.605029 0.217650
C119  C     C_3   0.776448 0.322070 0.538183 -0.962010
H53   H     H_    0.735384 0.277871 0.534973 0.253179
H54   H     H_    0.823743 0.308968 0.512967 0.273610
H55   H     H_    0.751648 0.373607 0.524708 0.287321
O58   O     O_3   0.217472 0.385566 0.293370 -0.642246
C120  C     C_3   0.196202 0.379294 0.345638 0.063830
H56   H     H_    0.223089 0.332592 0.365529 0.130423
H57   H     H_    0.135751 0.372434 0.347720 0.145875
C121  C     C_3   0.217804 0.448492 0.374387 -0.272521
H58   H     H_    0.278181 0.455731 0.372367 0.269337
H59   H     H_    0.191541 0.496147 0.355976 0.239152
C122  C     C_3   0.194568 0.445053 0.430803 -0.979792
H60   H     H_    0.134037 0.440775 0.433811 0.262404
H61   H     H_    0.212620 0.494888 0.451151 0.283624
H62   H     H_    0.220014 0.397446 0.449852 0.257607
O59   O     O_3   0.216585 0.382284 0.703343 -0.629058
C123  C     C_3   0.178451 0.428060 0.737807 0.083259
H63   H     H_    0.218395 0.454649 0.764162 0.150163
H64   H     H_    0.137033 0.398162 0.761326 0.112121
C124  C     C_3   0.137900 0.485944 0.706847 -0.299890
H65   H     H_    0.176369 0.512257 0.679622 0.266077
H66   H     H_    0.093601 0.459862 0.684006 0.199818
C125  C     C_3   0.104677 0.543705 0.741844 -0.918804
H67   H     H_    0.066000 0.518564 0.769594 0.244446
H68   H     H_    0.074480 0.583948 0.718156 0.266171
H69   H     H_    0.148483 0.572402 0.763485 0.275142
O60   O     O_3   0.772221 0.371506 0.312297 -0.641843
C126  C     C_3   0.817710 0.423340 0.288225 0.073425
H70   H     H_    0.794795 0.439873 0.250134 0.132542
H71   H     H_    0.873878 0.401040 0.282690 0.129789
C127  C     C_3   0.822437 0.490436 0.322661 -0.271558
H72   H     H_    0.766452 0.512032 0.329536 0.275564
H73   H     H_    0.846510 0.475090 0.360461 0.210205
C128  C     C_3   0.869412 0.549602 0.298142 -0.931020
H74   H     H_    0.925851 0.529374 0.291253 0.249470
H75   H     H_    0.872431 0.597052 0.324400 0.287860
H76   H     H_    0.844989 0.567403 0.261032 0.263746
H77   H     H_    0.857880 0.260133 0.692922 0.196039
H78   H     H_    0.126061 0.275213 0.285290 0.186148
H79   H     H_    0.130677 0.271269 0.706971 0.199494
H80   H     H_    0.858983 0.261443 0.306478 0.200972
H81   H     H_    0.374162 0.775311 0.216353 0.191264
H82   H     H_    0.632494 0.768228 0.795700 0.194547
H83   H     H_    0.667555 0.734481 0.174975 0.187603
H84   H     H_    0.353945 0.756054 0.811462 0.199636
O61   O     O_3   0.723956 0.125927 0.809450 -0.643164
C129  C     C_3   0.693010 0.069909 0.778995 0.130880
H85   H     H_    0.709138 0.017592 0.796691 0.219241
H86   H     H_    0.714507 0.068777 0.738707 0.111116
C130  C     C_3   0.609176 0.074456 0.778599 -0.405747
H87   H     H_    0.588190 0.071856 0.818756 0.230523
H88   H     H_    0.591542 0.126633 0.761277 0.222754
C131  C     C_3   0.575901 0.012708 0.747163 -0.954090
H89   H     H_    0.595789 0.014953 0.706749 0.264218
H90   H     H_    0.515335 0.017862 0.746867 0.266848
H91   H     H_    0.590775 0.959474 0.764141 0.278274
O62   O     O_3   0.287880 0.112693 0.214870 -0.655071
C132  C     C_3   0.310403 0.069573 0.257183 0.090615
H92   H     H_    0.288167 0.014259 0.251120 0.221825
H93   H     H_    0.288610 0.087886 0.295282 0.096826
C133  C     C_3   0.394107 0.065712 0.259205 -0.361660
H94   H     H_    0.415883 0.052087 0.220433 0.230436
H95   H     H_    0.416420 0.119400 0.270688 0.211935
C134  C     C_3   0.419954 0.008621 0.297655 -0.949638
H96   H     H_    0.399312 0.021450 0.336868 0.259830
H97   H     H_    0.480747 0.007793 0.298664 0.261098
H98   H     H_    0.400122 0.954030 0.286031 0.283244
O63   O     O_3   0.277212 0.124272 0.806955 -0.648099
C135  C     C_3   0.251269 0.129344 0.858338 0.159814
H99   H     H_    0.232497 0.074411 0.869944 0.198945
H100  H     H_    0.202840 0.165839 0.862810 0.111853
C136  C     C_3   0.312688 0.153090 0.894856 -0.415611
H101  H     H_    0.361507 0.118235 0.888948 0.242439
H102  H     H_    0.328234 0.210124 0.886547 0.218640
C137  C     C_3   0.288613 0.147630 0.951028 -0.936233
H103  H     H_    0.240477 0.183057 0.958047 0.259879
H104  H     H_    0.333996 0.165338 0.976598 0.265405
H105  H     H_    0.274144 0.090749 0.960767 0.281050
O64   O     O_3   0.742415 0.143400 0.172974 -0.634791
C138  C     C_3   0.788338 0.159808 0.130456 0.132751
H106  H     H_    0.806745 0.107610 0.113450 0.182552
H107  H     H_    0.839210 0.189764 0.141450 0.102333
C139  C     C_3   0.746255 0.201996 0.089140 -0.383261
H108  H     H_    0.698689 0.169373 0.075837 0.232848
H109  H     H_    0.725508 0.253694 0.105491 0.221647
C140  C     C_3   0.795322 0.219410 0.043172 -0.974297
H110  H     H_    0.841109 0.255270 0.055286 0.261251
H111  H     H_    0.762901 0.247750 0.013109 0.272882
H112  H     H_    0.818242 0.168882 0.026446 0.261519
O65   O     O_3   0.212229 0.612725 0.287177 -0.650714
C141  C     C_3   0.187215 0.567395 0.246733 0.096619
H113  H     H_    0.218858 0.516076 0.248562 0.214640
H114  H     H_    0.195697 0.589843 0.207132 0.095030
C142  C     C_3   0.105907 0.550403 0.254502 -0.338102
H115  H     H_    0.096907 0.528946 0.293995 0.230766
H116  H     H_    0.073490 0.601012 0.250188 0.211695
C143  C     C_3   0.078817 0.494519 0.215517 -0.958357
H117  H     H_    0.086201 0.515131 0.175641 0.259085
H118  H     H_    0.019690 0.483728 0.221974 0.256002
H119  H     H_    0.109332 0.442806 0.220014 0.286517
O66   O     O_3   0.782983 0.618370 0.702207 -0.628711
C144  C     C_3   0.821113 0.572430 0.736588 0.078529
H120  H     H_    0.781086 0.545144 0.762490 0.150977
H121  H     H_    0.861966 0.602328 0.760624 0.113248
C145  C     C_3   0.862609 0.515286 0.705531 -0.298087
H122  H     H_    0.824738 0.488719 0.677960 0.266953
H123  H     H_    0.906819 0.542097 0.683060 0.199544
C146  C     C_3   0.896287 0.457685 0.740445 -0.917810
H124  H     H_    0.934609 0.483085 0.768342 0.244347
H125  H     H_    0.926987 0.417855 0.716724 0.265619
H126  H     H_    0.852713 0.428466 0.761935 0.275619
O67   O     O_3   0.732070 0.666825 0.339195 -0.632443
C147  C     C_3   0.678297 0.700310 0.370279 0.091296
H127  H     H_    0.625732 0.706466 0.348809 0.120550
H128  H     H_    0.697389 0.754780 0.383230 0.128458
C148  C     C_3   0.664192 0.653366 0.417743 -0.291541
H129  H     H_    0.652131 0.596935 0.405475 0.270788
H130  H     H_    0.714052 0.652547 0.442316 0.206206
C149  C     C_3   0.599637 0.682179 0.449014 -1.023252
H131  H     H_    0.611475 0.737843 0.463096 0.270974
H132  H     H_    0.589551 0.646524 0.482656 0.249732
H133  H     H_    0.549238 0.683062 0.425058 0.253700
O68   O     O_3   0.237404 0.637329 0.679160 -0.639196
C150  C     C_3   0.255966 0.659448 0.628570 0.087865
H134  H     H_    0.298814 0.621800 0.614201 0.212024
H135  H     H_    0.279414 0.715357 0.625720 0.106140
C151  C     C_3   0.188569 0.653641 0.593762 -0.360421
H136  H     H_    0.162578 0.599603 0.598770 0.223119
H137  H     H_    0.147952 0.695655 0.604734 0.216922
C152  C     C_3   0.209008 0.663801 0.537260 -0.969082
H138  H     H_    0.234054 0.718029 0.531132 0.263838
H139  H     H_    0.159167 0.659335 0.512945 0.268094
H140  H     H_    0.248383 0.621233 0.525257 0.285772
O69   O     O_3   0.130622 0.027813 0.052063 -0.603836
C153  C     C_3   0.138362 0.103754 0.056086 0.118684
H141  H     H_    0.091589 0.127555 0.077915 0.114903
H142  H     H_    0.141125 0.129073 0.017149 0.143845
C154  C     C_3   0.209351 0.120467 0.084960 -0.292256
H143  H     H_    0.208873 0.092186 0.122738 0.275827
H144  H     H_    0.256675 0.100028 0.062339 0.221099
C155  C     C_3   0.218766 0.201680 0.093997 -0.958747
H145  H     H_    0.219061 0.231208 0.056701 0.254614
H146  H     H_    0.271611 0.211809 0.113927 0.283749
H147  H     H_    0.173661 0.222641 0.118549 0.259699
O70   O     O_3   0.870250 0.966243 0.948045 -0.626160
C156  C     C_3   0.825423 0.028625 0.943170 0.181612
H148  H     H_    0.805167 0.029908 0.902781 0.198572
H149  H     H_    0.854735 0.081102 0.949553 0.089145
C157  C     C_3   0.759501 0.023322 0.979486 -0.372752
H150  H     H_    0.738714 0.966772 0.980045 0.230358
H151  H     H_    0.776533 0.038021 0.019206 0.244234
C158  C     C_3   0.697669 0.073721 0.962662 -0.955074
H152  H     H_    0.717273 0.130668 0.960974 0.278956
H153  H     H_    0.651849 0.070307 0.990663 0.263670
H154  H     H_    0.676883 0.057560 0.924093 0.278039
O71   O     O_3   0.875793 0.950449 0.052220 -0.631861
C159  C     C_3   0.885939 0.875938 0.063638 0.135883
H155  H     H_    0.862579 0.865978 0.102375 0.217033
H156  H     H_    0.944567 0.858849 0.066015 0.086610
C160  C     C_3   0.845510 0.828703 0.024280 -0.329397
H157  H     H_    0.788006 0.847515 0.020292 0.222884
H158  H     H_    0.872760 0.833411 0.986179 0.239215
C161  C     C_3   0.845409 0.749200 0.040485 -0.995444
H159  H     H_    0.902426 0.729140 0.044840 0.264192
H160  H     H_    0.817482 0.716235 0.010543 0.259392
H161  H     H_    0.815786 0.742449 0.077571 0.285095
O72   O     O_3   0.134316 0.008271 0.948692 -0.624127
C162  C     C_3   0.159457 0.937153 0.937291 0.168275
H162  H     H_    0.185392 0.938622 0.898596 0.200700
H163  H     H_    0.114882 0.895668 0.935022 0.109708
C163  C     C_3   0.217216 0.913263 0.976341 -0.389283
H164  H     H_    0.263597 0.952277 0.975566 0.225264
H165  H     H_    0.192905 0.912609 0.015520 0.255003
C164  C     C_3   0.245880 0.837433 0.964326 -0.965878
H166  H     H_    0.200798 0.797127 0.966995 0.264724
H167  H     H_    0.289033 0.822677 0.992592 0.265938
H168  H     H_    0.269742 0.835527 0.925045 0.294054
O73   O     O_3   0.631415 0.477941 0.551815 -0.618733
C165  C     C_3   0.672827 0.542490 0.547514 0.126367
H169  H     H_    0.640502 0.590281 0.560869 0.129479
H170  H     H_    0.690298 0.550973 0.506878 0.165586
C166  C     C_3   0.741211 0.536930 0.581086 -0.336139
H171  H     H_    0.724613 0.527965 0.621777 0.274219
H172  H     H_    0.774873 0.490237 0.568236 0.211967
C167  C     C_3   0.787377 0.605794 0.577641 -0.899602
H173  H     H_    0.804003 0.616051 0.537117 0.245192
H174  H     H_    0.837559 0.599504 0.601369 0.276036
H175  H     H_    0.755901 0.653062 0.592229 0.279944
O74   O     O_3   0.371670 0.537766 0.447601 -0.605333
C168  C     C_3   0.370900 0.613774 0.441031 0.110546
H176  H     H_    0.420305 0.632275 0.419467 0.117335
H177  H     H_    0.369093 0.641603 0.479133 0.144660
C169  C     C_3   0.302943 0.634844 0.410094 -0.299620
H178  H     H_    0.302792 0.604973 0.373001 0.276958
H179  H     H_    0.252865 0.619236 0.431624 0.218885
C170  C     C_3   0.300927 0.716133 0.399300 -0.954645
H180  H     H_    0.301684 0.747120 0.436003 0.256032
H181  H     H_    0.249965 0.729779 0.378090 0.283025
H182  H     H_    0.348658 0.732276 0.375353 0.257496
O75   O     O_3   0.367395 0.518798 0.551501 -0.613497
C171  C     C_3   0.331713 0.450686 0.550646 0.135410
H183  H     H_    0.365719 0.408768 0.570307 0.129450
H184  H     H_    0.320878 0.432942 0.510330 0.153998
C172  C     C_3   0.258670 0.456763 0.578835 -0.329387
H185  H     H_    0.268593 0.476529 0.618665 0.268480
H186  H     H_    0.223213 0.496323 0.558460 0.214249
C173  C     C_3   0.219247 0.383833 0.581105 -0.899835
H187  H     H_    0.208218 0.363306 0.541654 0.243465
H188  H     H_    0.166158 0.390348 0.601434 0.277873
H189  H     H_    0.252963 0.343521 0.602266 0.282619
O76   O     O_3   0.623560 0.452268 0.447883 -0.605542
C174  C     C_3   0.617855 0.375800 0.448312 0.076718
H190  H     H_    0.563144 0.357441 0.434105 0.109440
H191  H     H_    0.626529 0.354684 0.488037 0.160390
C175  C     C_3   0.676053 0.344280 0.412732 -0.252919
H192  H     H_    0.666196 0.365299 0.373386 0.278995
H193  H     H_    0.731318 0.361966 0.425600 0.237337
C176  C     C_3   0.672958 0.261632 0.411342 -1.006705
H194  H     H_    0.681299 0.239001 0.450533 0.256723
H195  H     H_    0.716762 0.240772 0.385642 0.282180
H196  H     H_    0.619157 0.243163 0.396235 0.261126

loop_
_geom_bond_atom_site_label_1
_geom_bond_atom_site_label_2
_ccdc_geom_bond_type
C105  H22   S    
C122  H61   S    
C87   C91   A    
C162  H163  S    
C129  C130  S    
C33   C45   A    
C166  H171  S    
C39   O67   S    
C111  C112  S    
C35   C47   A    
O12   Zn16  S    
C142  H115  S    
C48   H16   S    
O65   C141  S    
C169  H178  S    
C72   O22   A    
O15   Zn1   S    
C121  H59   S    
C160  H158  S    
C63   O75   S    
C59   C66   A    
C9    O53   S    
C105  C106  S    
C85   H17   S    
C126  H70   S    
C96   C99   A    
O29   Zn7   S    
C119  H53   S    
C30   C38   A    
O2    Zn6   S    
C127  H72   S    
C106  H24   S    
O3    Zn11  S    
C22   H82   S    
C163  C164  S    
C54   C74   S    
C133  C134  S    
O1    Zn1   S    
C83   O51   A    
C139  H108  S    
C81   O49   A    
C61   O73   S    
C76   O20   A    
C88   C95   A    
C76   O26   A    
C49   C69   S    
C163  H165  S    
C82   C98   S    
C51   C71   S    
C79   O41   A    
C41   C49   A    
C123  C124  S    
C2    O32   A    
C117  H50   S    
C3    O29   A    
C42   H10   S    
O43   Zn11  S    
C138  H106  S    
C84   C100  S    
C143  H117  S    
C157  H151  S    
C86   C90   A    
C152  H140  S    
C13   O57   S    
C20   C28   A    
C94   C97   A    
C27   C35   A    
C98   C102  A    
C21   C29   A    
C147  C148  S    
C23   C31   A    
O2    Zn8   S    
O55   C111  S    
C172  H186  S    
O4    Zn10  S    
C84   O48   A    
C151  H137  S    
O67   C147  S    
C16   C20   A    
C168  C169  S    
C139  C140  S    
C144  C145  S    
C115  H45   S    
C77   O39   A    
C78   O40   A    
C131  H89   S    
C60   C65   A    
C120  H57   S    
O9    Zn15  S    
C154  H143  S    
C166  C167  S    
C161  H160  S    
C142  C143  S    
C19   H79   S    
O62   C132  S    
O50   Zn2   S    
C132  C133  S    
C124  H66   S    
C66   C77   S    
C159  H155  S    
O14   Zn2   S    
C137  H105  S    
O46   Zn14  S    
C3    C26   S    
C41   H9    S    
C155  H146  S    
C4    O30   A    
C119  H55   S    
C17   C25   A    
O38   Zn6   S    
O3    Zn9   S    
O33   Zn11  S    
C141  C142  S    
C9    C21   A    
C73   O17   A    
C11   C23   A    
C145  H122  S    
O7    Zn13  S    
C150  C151  S    
C165  H170  S    
C50   C70   S    
C35   O63   S    
C34   O62   S    
C44   H12   S    
C107  H26   S    
O53   C105  S    
C148  H129  S    
C70   O14   A    
C103  H3    S    
C118  H52   S    
C153  H141  S    
C37   O65   S    
C121  H58   S    
O11   Zn15  S    
C173  H188  S    
O73   C165  S    
C146  H124  S    
C143  H119  S    
C100  C104  A    
C57   C66   A    
C6    O10   A    
C62   O74   S    
C151  H136  S    
C146  H126  S    
C176  H194  S    
C120  H56   S    
C8    C29   S    
C111  H36   S    
O4    Zn12  S    
C170  H181  S    
O31   Zn5   S    
C173  H189  S    
C112  H38   S    
C149  H131  S    
O71   C159  S    
O25   Zn9   S    
C135  H99   S    
O5    Zn13  S    
C118  H51   S    
O40   Zn8   S    
C137  H104  S    
C78   O38   A    
C131  H91   S    
O24   Zn8   S    
O70   C156  S    
C18   H78   S    
C154  C155  S    
O76   C174  S    
C34   C46   A    
O23   Zn7   S    
C116  H46   S    
C169  C170  S    
O28   Zn12  S    
C71   O21   A    
C55   C75   S    
C44   C52   A    
C68   C79   S    
C133  H95   S    
C45   C53   A    
O57   C117  S    
C140  H111  S    
C164  H167  S    
C108  H29   S    
C86   H18   S    
C175  H192  S    
C9    C49   A    
C99   C103  A    
C91   C92   A    
O4    Zn16  S    
O36   Zn10  S    
C141  H113  S    
O1    Zn5   S    
C113  H41   S    
C168  H177  S    
O2    Zn2   S    
C83   O47   A    
C145  C146  S    
C171  H183  S    
C138  H107  S    
C15   C55   A    
C16   C56   A    
C130  H87   S    
C86   C93   A    
C58   C65   A    
C12   O56   S    
C147  H128  S    
O61   C129  S    
C113  H40   S    
C80   O42   A    
O72   C162  S    
C125  H68   S    
C42   C50   A    
C121  C122  S    
C114  H43   S    
C165  H169  S    
C36   O64   S    
O3    Zn15  S    
C103  C104  A    
C167  H173  S    
C174  H191  S    
C176  H196  S    
C45   H13   S    
C63   C68   A    
C120  C121  S    
C22   C30   A    
C14   C54   A    
C161  H159  S    
C123  H63   S    
C84   O52   A    
C125  H69   S    
C16   O60   S    
O35   Zn9   S    
O4    Zn4   S    
C12   C24   A    
C135  C136  S    
C13   C17   A    
C134  H98   S    
C75   O19   A    
C112  C113  S    
O22   Zn6   S    
O13   Zn1   S    
C5    O9    A    
C119  H54   S    
O64   C138  S    
C148  C149  S    
C127  H73   S    
C37   C41   A    
C106  H23   S    
C116  H48   S    
O16   Zn2   S    
C136  H101  S    
C110  H34   S    
O54   C108  S    
C165  C166  S    
O56   C114  S    
C128  H76   S    
O49   Zn1   S    
C139  H109  S    
C6    O36   A    
O52   Zn4   S    
C11   O55   S    
C126  C127  S    
C24   H84   S    
C101  C102  A    
O48   Zn16  S    
C127  C128  S    
C18   C26   A    
C15   O59   S    
C124  H65   S    
O1    Zn7   S    
C10   C22   A    
C15   C19   A    
C74   O18   A    
C117  C118  S    
C73   O27   A    
C171  C172  S    
O8    Zn14  S    
C74   O28   A    
C143  H118  S    
C130  C131  S    
C152  H139  S    
C158  H154  S    
C46   H14   S    
C48   C56   A    
C129  H85   S    
O68   C150  S    
C80   O44   A    
C142  H116  S    
C95   C96   A    
C109  H30   S    
C136  C137  S    
C1    C28   S    
C2    C27   S    
C144  H121  S    
C7    O11   A    
C167  H175  S    
C5    C32   S    
C17   H77   S    
C131  H90   S    
C6    C31   S    
C122  H62   S    
C174  H190  S    
C7    C30   S    
C83   C99   S    
C162  C163  S    
C166  H172  S    
C159  C160  S    
C12   C52   A    
C169  H179  S    
C4    C25   S    
C13   C53   A    
C132  H93   S    
C154  H144  S    
O26   Zn10  S    
C57   O69   S    
C134  H96   S    
O6    Zn14  S    
C160  C161  S    
C58   O70   S    
C112  H37   S    
C85   C89   A    
C95   C100  A    
C92   H8    S    
C57   C60   A    
C58   C59   A    
C172  H185  S    
C106  C107  S    
C170  H180  S    
C62   C63   A    
C64   O76   S    
O3    Zn3   S    
C110  H32   S    
C46   C54   A    
C123  H64   S    
C145  H123  S    
C150  H135  S    
C163  H164  S    
C153  H142  S    
C10   C50   A    
C104  H4    S    
O58   C120  S    
O30   Zn8   S    
C82   O46   A    
C88   H20   S    
C117  H49   S    
C65   C78   S    
C132  H92   S    
C67   C80   S    
O39   Zn7   S    
C157  H150  S    
C33   O61   S    
C158  H152  S    
C146  H125  S    
O17   Zn3   S    
C69   O23   A    
C70   O24   A    
O42   Zn10  S    
C118  C119  S    
C153  C154  S    
C172  C173  S    
C59   O71   S    
C5    O35   A    
C105  H21   S    
C43   C51   A    
C149  H132  S    
C109  C110  S    
C135  H100  S    
C1    O31   A    
C3    O7    A    
C115  H44   S    
C151  C152  S    
O2    Zn14  S    
C28   C36   A    
C29   C37   A    
C162  H162  S    
C156  H149  S    
O60   C126  S    
C40   O68   S    
C20   H80   S    
C89   C90   A    
C21   H81   S    
C38   O66   S    
C149  H133  S    
C23   H83   S    
C124  C125  S    
O63   C135  S    
C82   O50   A    
C93   C94   A    
C56   C76   S    
C61   C64   A    
C140  H110  S    
C14   C18   A    
O19   Zn3   S    
C160  H157  S    
C155  H145  S    
C24   C32   A    
C164  H166  S    
C108  H28   S    
C75   O25   A    
C175  H193  S    
C62   C67   A    
C52   C72   S    
C1    O5    A    
C38   C42   A    
C71   O15   A    
C141  H114  S    
C72   O16   A    
C89   H5    S    
C122  H60   S    
C115  C116  S    
C171  H184  S    
C91   H7    S    
C43   H11   S    
C26   C34   A    
C114  H42   S    
C107  H25   S    
C161  H161  S    
O34   Zn12  S    
C8    O12   A    
C174  C175  S    
C36   C48   A    
C8    O34   A    
O20   Zn4   S    
C47   H15   S    
C173  H187  S    
O41   Zn9   S    
C157  C158  S    
C167  H174  S    
C14   O58   S    
C176  H195  S    
C101  H1    S    
C60   O72   S    
C136  H102  S    
C64   C67   A    
C88   C92   A    
C111  H35   S    
C159  H156  S    
C170  H182  S    
C39   C43   A    
O51   Zn3   S    
C175  C176  S    
O45   Zn13  S    
C134  H97   S    
C137  H103  S    
O44   Zn12  S    
C156  C157  S    
C150  H134  S    
C85   C94   A    
C87   H19   S    
C7    O33   A    
C40   C44   A    
O21   Zn5   S    
O47   Zn15  S    
C87   C96   A    
C148  H130  S    
O37   Zn5   S    
O66   C144  S    
C116  H47   S    
O69   C153  S    
C2    O6    A    
C133  H94   S    
C110  H33   S    
C128  H75   S    
O18   Zn4   S    
C140  H112  S    
C90   H6    S    
O59   C123  S    
C155  H147  S    
C164  H168  S    
C19   C27   A    
C47   C55   A    
C108  C109  S    
O27   Zn11  S    
C126  H71   S    
O74   C168  S    
C4    O8    A    
C69   O13   A    
C53   C73   S    
C79   O43   A    
O10   Zn16  S    
C138  C139  S    
O75   C171  S    
C130  H88   S    
C152  H138  S    
C158  H153  S    
C61   C68   A    
C156  H148  S    
C81   C97   S    
C107  H27   S    
C147  H127  S    
C31   C39   A    
C102  H2    S    
C129  H86   S    
C32   C40   A    
O32   Zn6   S    
C113  H39   S    
C11   C51   A    
C125  H67   S    
O1    Zn13  S    
C114  C115  S    
C109  H31   S    
C168  H176  S    
C25   C33   A    
C81   O45   A    
C144  H120  S    
C128  H74   S    
C10   O54   S    
C93   C98   A    
C97   C101  A    
C77   O37   A    
