data_mof_unit_55988.cif
_audit_creation_date              2012-12-11T15:30:33-0500
_audit_creation_method            fapswitch 2.2
_symmetry_space_group_name_H-M    P1
_symmetry_Int_Tables_number       1
_space_group_crystal_system       triclinic
_cell_length_a                    6.954746
_cell_length_b                    20.482565
_cell_length_c                    24.404321
_cell_angle_alpha                 89.747745
_cell_angle_beta                  90.55542
_cell_angle_gamma                 89.301376
_cell_volume                      3475.96354654

loop_
_atom_site_label
_atom_site_type_symbol
_atom_type_description
_atom_site_fract_x
_atom_site_fract_y
_atom_site_fract_z
_atom_type_partial_charge
O1    O     O_R   0.507310 0.423620 0.460450 -0.534712
O2    O     O_R   0.170760 0.556060 0.437190 -0.538635
O3    O     O_R   0.004040 0.576380 0.539550 -0.537287
C1    C     C_R   0.338498 0.576185 0.421246 0.718877
O4    O     O_R   0.177350 0.422870 0.454070 -0.536958
O5    O     O_R   0.010680 0.442240 0.556560 -0.532796
C2    C     C_R   0.346438 0.399019 0.443299 0.708505
O6    O     O_R   0.500670 0.557760 0.443440 -0.537089
O7    O     O_3   0.340380 0.506510 0.533610 -0.364991
V1    V     V_3+5 0.064130 0.498790 0.493770 1.437966
O8    O     O_R   0.681170 0.443940 0.562810 -0.531350
C3    C     C_R   0.851169 0.423880 0.578640 0.726760
O9    O     O_R   0.674570 0.577130 0.545930 -0.539231
C4    C     C_R   0.842542 0.601058 0.556556 0.689273
V2    V     V_3+5 0.564560 0.501210 0.506230 1.445843
O10   O     O_3   0.838170 0.493490 0.466390 -0.369580
C5    C     C_R   0.977042 0.838158 0.911341 -0.047855
C6    C     C_R   0.846987 0.661712 0.588778 -0.042404
C7    C     C_R   0.042875 0.722265 0.906074 -0.162536
C8    C     C_R   0.033286 0.779540 0.936410 -0.160027
C9    C     C_R   0.930835 0.839268 0.855107 -0.215954
C10   C     C_R   0.942768 0.781528 0.822802 0.088130
C11   C     C_R   0.999625 0.722750 0.849766 0.139739
C12   C     C_R   0.903021 0.780040 0.764890 0.057031
C13   C     C_R   0.920997 0.719791 0.735257 0.058962
C14   C     C_R   0.977432 0.663068 0.764562 -0.187649
C15   C     C_R   0.015357 0.664705 0.820471 -0.201689
C16   C     C_R   0.846489 0.836759 0.735595 -0.185724
C17   C     C_R   0.808450 0.835122 0.679698 -0.194641
C18   C     C_R   0.824215 0.777084 0.650401 0.135011
C19   C     C_R   0.881252 0.718308 0.677342 0.086751
C20   C     C_R   0.780785 0.777578 0.594110 -0.154540
C21   C     C_R   0.790428 0.720323 0.563759 -0.166066
C22   C     C_R   0.893341 0.660586 0.645009 -0.214199
H1    H     H_    0.058816 0.619787 0.841035 0.121360
H2    H     H_    0.933512 0.613795 0.662183 0.093155
H3    H     H_    0.752396 0.721626 0.520599 0.108845
H4    H     H_    0.764866 0.880034 0.659146 0.131224
H5    H     H_    0.086981 0.677433 0.926625 0.115400
H6    H     H_    0.071130 0.778244 0.979588 0.129172
H7    H     H_    0.890925 0.886070 0.837910 0.094018
H8    H     H_    0.994394 0.616120 0.745469 0.121967
H9    H     H_    0.829439 0.883703 0.754687 0.125099
H10   H     H_    0.736482 0.822406 0.573585 0.122682
C23   C     C_3   0.711246 0.228601 0.782774 -0.377363
C24   C     C_3   0.045260 0.268763 0.802285 -0.334912
C25   C     C_3   0.023342 0.318699 0.754368 -0.356303
H11   H     H_    0.634884 0.325205 0.751124 0.092097
H12   H     H_    0.658257 0.252075 0.820906 0.123225
H13   H     H_    0.199643 0.254854 0.807483 0.144037
H14   H     H_    0.998400 0.292046 0.841128 0.141425
H15   H     H_    0.962399 0.365346 0.770212 0.136766
H16   H     H_    0.167622 0.329849 0.737789 0.187218
C26   C     C_1   0.864392 0.378306 0.624238 -0.139950
C27   C     C_3   0.924579 0.206965 0.791088 0.268416
C28   C     C_3   0.690344 0.278324 0.734000 -0.099007
C29   C     C_3   0.891141 0.291745 0.708271 0.195949
C30   C     C_3   0.980410 0.226017 0.688798 -0.306243
C31   C     C_3   0.995622 0.176065 0.736889 -0.321116
C32   C     C_1   0.876778 0.339650 0.662072 -0.037234
C33   C     C_1   0.944426 0.159626 0.837419 -0.086985
C34   C     C_1   0.959208 0.121306 0.875454 -0.189995
H17   H     H_    0.908391 0.132413 0.726972 0.167048
H18   H     H_    0.147698 0.159281 0.741736 0.152651
H19   H     H_    0.893848 0.205204 0.654747 0.179772
H20   H     H_    0.620926 0.184782 0.776393 0.170299
H21   H     H_    0.125524 0.234513 0.672019 0.182991
C35   C     C_3   0.543075 0.683274 0.251229 -0.331912
C36   C     C_3   0.196572 0.717725 0.258664 -0.381407
C37   C     C_3   0.222338 0.768215 0.211015 -0.124157
H22   H     H_    0.554962 0.708953 0.163758 0.189834
H23   H     H_    0.499686 0.635584 0.233617 0.164749
H24   H     H_    0.081760 0.735561 0.286549 0.139755
H25   H     H_    0.148156 0.669681 0.242870 0.164543
H26   H     H_    0.129010 0.811297 0.220329 0.134235
C38   C     C_1   0.476365 0.878567 0.124796 -0.133316
C39   C     C_3   0.387020 0.707978 0.291488 0.250096
C40   C     C_3   0.574236 0.733198 0.203981 -0.296800
C41   C     C_3   0.435139 0.792952 0.209244 0.134664
C42   C     C_3   0.475683 0.825843 0.265976 -0.166286
C43   C     C_3   0.450537 0.775402 0.313705 -0.353166
C44   C     C_1   0.460816 0.840314 0.162834 -0.044162
C45   C     C_1   0.362591 0.660363 0.337518 -0.074704
C46   C     C_1   0.347670 0.621809 0.375394 -0.191104
H27   H     H_    0.586279 0.768912 0.337866 0.146436
H28   H     H_    0.340569 0.794373 0.342606 0.150158
H29   H     H_    0.681384 0.674954 0.273670 0.136921
H30   H     H_    0.725925 0.749726 0.205117 0.164431
H31   H     H_    0.369896 0.866400 0.271698 0.126351
C47   C     C_R   0.471951 0.161582 0.089247 -0.043726
C48   C     C_R   0.353537 0.337786 0.411723 -0.065455
C49   C     C_R   0.545797 0.276272 0.096212 -0.163058
C50   C     C_R   0.533255 0.219584 0.065267 -0.169595
C51   C     C_R   0.422003 0.160714 0.145011 -0.210072
C52   C     C_R   0.434739 0.218071 0.177831 0.092081
C53   C     C_R   0.499817 0.275872 0.152081 0.139143
C54   C     C_R   0.391219 0.219797 0.235360 0.047168
C55   C     C_R   0.418442 0.278438 0.266093 0.068645
C56   C     C_R   0.486504 0.333970 0.238127 -0.184521
C57   C     C_R   0.523528 0.332757 0.182366 -0.202141
C58   C     C_R   0.317139 0.165239 0.262729 -0.216183
C59   C     C_R   0.285625 0.164987 0.319064 -0.051666
C60   C     C_R   0.330320 0.220378 0.351360 0.021565
C61   C     C_R   0.380431 0.279503 0.323925 0.078617
C62   C     C_R   0.317955 0.220074 0.409871 -0.014982
C63   C     C_R   0.323065 0.278992 0.438640 -0.195927
C64   C     C_R   0.386682 0.338025 0.355245 -0.204142
H32   H     H_    0.575601 0.376745 0.162908 0.124872
H33   H     H_    0.408873 0.385159 0.336782 0.092366
H34   H     H_    0.308015 0.279023 0.482855 0.139824
H35   H     H_    0.595600 0.320441 0.076581 0.112990
H36   H     H_    0.574259 0.220709 0.022551 0.104732
H37   H     H_    0.382063 0.114107 0.161760 0.100998
H38   H     H_    0.517214 0.379299 0.258362 0.123335
H39   H     H_    0.277021 0.121883 0.240715 0.126840
O11   O     O_R   0.323590 0.942280 0.056590 -0.531801
O12   O     O_R   0.647030 0.077140 0.045940 -0.538536
O13   O     O_R   0.813570 0.057750 0.943430 -0.537482
C65   C     C_R   0.478034 0.101008 0.056755 0.690105
O14   O     O_R   0.653510 0.943950 0.062820 -0.530208
O15   O     O_R   0.820100 0.923600 0.960440 -0.535461
C66   C     C_R   0.485743 0.923908 0.078800 0.727100
O16   O     O_R   0.317060 0.076430 0.039590 -0.537951
O17   O     O_3   0.483830 0.993520 0.966410 -0.370411
V3    V     V_3+5 0.760140 0.001200 0.006230 1.451259
O18   O     O_R   0.149560 0.922820 0.954030 -0.538474
C67   C     C_R   0.981580 0.898847 0.943502 0.704000
O19   O     O_R   0.143080 0.056020 0.937150 -0.539453
C68   C     C_R   0.973027 0.076026 0.921275 0.719550
V4    V     V_3+5 0.259690 0.998730 0.993720 1.439309
O20   O     O_3   0.986120 0.006480 0.033580 -0.363536
C69   C     C_2   0.545435 0.256302 0.691354 0.716143
O21   O     O_2   0.442523 0.296935 0.668306 -0.579025
O22   O     O_R   0.533764 0.190458 0.676824 -0.672281
H40   H     H_    0.435250 0.182581 0.646774 0.298088
C70   C     C_2   0.151336 0.741228 0.156804 0.739958
O23   O     O_2   0.031526 0.772035 0.129910 -0.571405
O24   O     O_R   0.219832 0.681079 0.137803 -0.673469
H41   H     H_    0.160655 0.668666 0.101237 0.289069
C71   C     C_1   0.668074 0.855591 0.268805 0.320242
N1    N     N_1   0.818621 0.878933 0.271053 -0.357407
C72   C     C_1   0.185318 0.109037 0.340520 0.351930
N2    N     N_1   0.104442 0.064227 0.357299 -0.306811
C73   C     C_2   0.319940 0.159512 0.443382 0.776219
O25   O     O_2   0.213775 0.154777 0.482837 -0.550458
O26   O     O_R   0.449998 0.109091 0.431337 -0.648829
H42   H     H_    0.439506 0.070703 0.457462 0.310520

loop_
_geom_bond_atom_site_label_1
_geom_bond_atom_site_label_2
_ccdc_geom_bond_type
C13   C19   A    
O18   C67   A    
C27   C31   S    
C4    C6    S    
C36   C39   S    
C7    C8    A    
C34   C68   S    
C1    O6    A    
O19   C68   A    
C56   H38   S    
C54   C55   A    
C26   C32   T    
C14   C15   A    
C58   C59   A    
O11   C66   A    
C16   C17   A    
O15   C67   A    
C36   C37   S    
O12   C65   A    
O5    C3    A    
C18   C19   A    
C8    H6    S    
C39   C45   S    
V2    O10   S    
C27   C33   S    
C49   C53   A    
C5    C8    A    
C28   C29   S    
C42   H31   S    
O8    V2    S    
C52   C53   A    
C23   C28   S    
C69   O21   D    
C24   C27   S    
C36   H24   S    
O1    V2    S    
O13   V3    S    
C11   C15   A    
O7    V1    S    
C43   H28   S    
C25   H16   S    
C3    C26   S    
O9    C4    A    
C37   C70   S    
C64   H33   S    
C48   C63   A    
C51   C52   A    
C62   C73   S    
C51   H37   S    
O14   C66   A    
C47   C51   A    
C35   C40   S    
C57   H32   S    
C72   N2    T    
C59   C60   A    
C48   C64   A    
C12   C13   A    
C73   O26   S    
C38   C44   T    
O4    C2    A    
O14   V3    S    
C5    C67   S    
C29   C32   S    
C15   H1    S    
C30   C31   S    
C42   C71   S    
C24   H14   S    
C21   H3    S    
C23   H20   S    
C17   H4    S    
C7    C11   A    
O15   V3    S    
C17   C18   A    
C25   C29   S    
V3    O20   S    
C30   H19   S    
C45   C46   T    
C1    C46   S    
C23   H12   S    
C35   H23   S    
C2    C48   S    
C20   H10   S    
C19   C22   A    
O17   V4    S    
C36   H25   S    
C60   C62   A    
C71   N1    T    
C6    C22   A    
C28   C69   S    
O3    C4    A    
C7    H5    S    
C9    H7    S    
C70   O24   S    
C55   C56   A    
O6    V2    S    
O9    V2    S    
O16   V4    S    
C58   H39   S    
C10   C12   A    
C42   C43   S    
O2    V1    S    
C37   H26   S    
C14   H8    S    
C47   C50   A    
O26   H42   S    
C63   H34   S    
C40   H30   S    
C35   C39   S    
H11   C28   S    
C24   C25   S    
C16   H9    S    
C37   C41   S    
O1    C2    A    
C12   C16   A    
C73   O25   D    
O19   V4    S    
O5    V1    S    
C41   C44   S    
O8    C3    A    
C52   C54   A    
C49   H35   S    
C25   H15   S    
C65   O16   A    
C62   C63   A    
C24   H13   S    
O22   H40   S    
C31   H17   S    
C56   C57   A    
C38   C66   S    
C47   C65   S    
V4    O20   S    
C13   C14   A    
O4    V1    S    
O3    V1    S    
V1    O10   S    
C20   C21   A    
C18   C20   A    
C40   C41   S    
C29   C30   S    
C55   C61   A    
O2    C1    A    
C53   C57   A    
C49   C50   A    
C22   H2    S    
H22   C40   S    
O7    V2    S    
C33   C34   T    
C6    C21   A    
C43   H27   S    
O24   H41   S    
C50   H36   S    
C41   C42   S    
C31   H18   S    
C30   H21   S    
O11   V4    S    
C23   C27   S    
C69   O22   S    
C39   C43   S    
C60   C61   A    
O13   C68   A    
C35   H29   S    
O18   V4    S    
C10   C11   A    
C70   O23   D    
C59   C72   S    
C9    C10   A    
O12   V3    S    
C61   C64   A    
C54   C58   A    
O17   V3    S    
C5    C9    A    
