data_mof_unit_5104.cif
_audit_creation_date              2012-12-10T20:14:09-0500
_audit_creation_method            fapswitch 2.2
_symmetry_space_group_name_H-M    P1
_symmetry_Int_Tables_number       1
_space_group_crystal_system       triclinic
_cell_length_a                    18.792217
_cell_length_b                    18.48579
_cell_length_c                    10.470008
_cell_angle_alpha                 90.126624
_cell_angle_beta                  90.257117
_cell_angle_gamma                 89.859452
_cell_volume                      3637.10900982

loop_
_atom_site_label
_atom_site_type_symbol
_atom_type_description
_atom_site_fract_x
_atom_site_fract_y
_atom_site_fract_z
_atom_type_partial_charge
C1    C     C_R   0.365067 0.500047 0.498622 0.911446
C2    C     C_R   0.635049 0.499937 0.497260 0.916871
C3    C     C_R   0.964272 0.560880 0.320077 0.357753
C4    C     C_R   0.035307 0.429127 0.368966 0.329591
C5    C     C_R   0.038417 0.559559 0.327131 0.315986
C6    C     C_R   0.960707 0.431218 0.367038 0.324413
C7    C     C_R   0.073465 0.494348 0.356409 -0.161935
C8    C     C_R   0.925697 0.497726 0.347961 -0.198360
C9    C     C_R   0.543258 0.726003 0.582312 0.028578
C10   C     C_R   0.456588 0.274093 0.417801 0.026970
C11   C     C_R   0.456647 0.725918 0.417696 0.029424
C12   C     C_R   0.543408 0.273998 0.582076 0.029847
C13   C     C_R   0.544007 0.801947 0.583898 -0.278222
C14   C     C_R   0.455736 0.198152 0.416106 -0.280643
C15   C     C_R   0.455772 0.801862 0.416025 -0.281409
C16   C     C_R   0.544183 0.198055 0.583630 -0.281278
C17   C     C_R   0.499864 0.841340 0.499935 0.119722
C18   C     C_R   0.499931 0.158675 0.499851 0.120267
C19   C     C_R   0.491741 0.961881 0.385447 -0.181655
C20   C     C_R   0.507914 0.038143 0.614307 -0.181803
C21   C     C_R   0.507885 0.962148 0.614333 -0.182447
C22   C     C_R   0.491760 0.037882 0.385426 -0.183299
C23   C     C_R   0.499865 0.077319 0.499855 0.124367
C24   C     C_R   0.499818 0.922703 0.499901 0.124619
C25   C     C_R   0.498515 0.499855 0.257218 0.853499
C26   C     C_R   0.499992 0.500119 0.742951 0.859869
C27   C     C_3   0.447917 0.546202 0.041473 -0.182536
C28   C     C_3   0.548368 0.453533 0.959210 -0.181887
C29   C     C_3   0.512957 0.567287 0.960283 -0.134479
C30   C     C_3   0.483416 0.432581 0.040330 -0.143021
C31   C     C_3   0.434044 0.479414 0.956216 -0.196653
C32   C     C_3   0.562449 0.520373 0.044101 -0.186154
C33   C     C_3   0.499041 0.500398 0.877877 0.040812
C34   C     C_3   0.497541 0.499449 0.122547 0.037413
C35   C     C_R   0.759898 0.534732 0.536798 -0.327843
C36   C     C_R   0.238825 0.506421 0.557294 -0.337827
C37   C     C_R   0.272803 0.493305 0.334791 -0.350721
C38   C     C_R   0.728264 0.468361 0.344713 -0.329305
C39   C     C_R   0.831068 0.534183 0.499914 0.500371
C40   C     C_R   0.167432 0.506135 0.521731 0.504317
C41   C     C_R   0.200990 0.490715 0.297113 0.410548
C42   C     C_R   0.798412 0.472206 0.301576 0.439462
C43   C     C_R   0.850330 0.503202 0.381489 0.053420
C44   C     C_R   0.148696 0.496693 0.392229 0.064672
C45   C     C_R   0.709235 0.499895 0.461292 -0.141289
C46   C     C_R   0.290868 0.499821 0.464072 -0.122730
H1    H     H_    0.382153 0.462909 0.915043 0.123617
H2    H     H_    0.614430 0.537023 0.085222 0.125242
H3    H     H_    0.406931 0.583550 0.080211 0.131357
H4    H     H_    0.587760 0.414551 0.920837 0.147828
H5    H     H_    0.525119 0.622120 0.923341 0.137429
H6    H     H_    0.471214 0.377790 0.077429 0.137002
H7    H     H_    0.744780 0.559644 0.626499 0.165616
H8    H     H_    0.253495 0.512537 0.656933 0.153278
H9    H     H_    0.315009 0.491077 0.264766 0.135260
H10   H     H_    0.688387 0.441693 0.286231 0.164564
H11   H     H_    0.577491 0.696154 0.646826 0.120516
H12   H     H_    0.422302 0.304019 0.353478 0.119153
H13   H     H_    0.422421 0.696003 0.353267 0.121959
H14   H     H_    0.577735 0.303844 0.646428 0.120402
H15   H     H_    0.579692 0.829476 0.649149 0.134687
H16   H     H_    0.419931 0.170693 0.350970 0.133719
H17   H     H_    0.420031 0.829327 0.350767 0.133467
H18   H     H_    0.579959 0.170508 0.648716 0.133568
H19   H     H_    0.486631 0.933798 0.295056 0.129375
H20   H     H_    0.513033 0.066229 0.704696 0.129252
H21   H     H_    0.512979 0.934284 0.704745 0.129012
H22   H     H_    0.486655 0.065758 0.295025 0.128807
N1    N     N_R   0.500000 0.689440 0.500000 -0.090715
N2    N     N_R   0.500000 0.310560 0.500000 -0.090283
O1    O     O_R   0.398180 0.560840 0.499970 -0.616848
O2    O     O_R   0.601820 0.439160 0.500030 -0.616440
O3    O     O_R   0.601820 0.560840 0.500030 -0.611362
O4    O     O_R   0.398180 0.439160 0.499970 -0.611801
O5    O     O_R   0.499980 0.560800 0.313940 -0.622957
O6    O     O_R   0.500020 0.439200 0.686060 -0.624318
O7    O     O_R   0.500020 0.560800 0.686060 -0.632527
O8    O     O_R   0.499980 0.439200 0.313940 -0.634559
Zn1   Zn    Zn3+2 0.500000 0.581210 0.500000 0.936747
Zn2   Zn    Zn3+2 0.500000 0.418790 0.500000 0.933795
O9    O     O_3   0.881528 0.563363 0.581465 -0.632831
C47   C     C_3   0.910894 0.507839 0.658669 0.096702
H23   H     H_    0.963417 0.491999 0.619106 0.194823
H24   H     H_    0.877436 0.457987 0.663866 0.143162
C48   C     C_3   0.921635 0.536597 0.794246 -0.359621
H25   H     H_    0.956381 0.584894 0.791887 0.236763
H26   H     H_    0.869605 0.553837 0.833995 0.214652
C49   C     C_3   0.954986 0.479193 0.880771 -0.978828
H27   H     H_    0.918809 0.432075 0.889744 0.275144
H28   H     H_    0.964535 0.502238 0.977310 0.247333
H29   H     H_    0.006602 0.460418 0.841276 0.285501
O10   O     O_3   0.115925 0.514192 0.614481 -0.652258
C50   C     C_3   0.101983 0.588758 0.634481 0.111225
H30   H     H_    0.045978 0.599422 0.605702 0.199833
H31   H     H_    0.136060 0.626371 0.577830 0.153614
C51   C     C_3   0.111321 0.606965 0.776054 -0.387963
H32   H     H_    0.080621 0.568316 0.834791 0.237056
H33   H     H_    0.168366 0.601686 0.802985 0.216970
C52   C     C_3   0.085838 0.683689 0.805314 -0.961479
H34   H     H_    0.121982 0.723805 0.760994 0.274891
H35   H     H_    0.085193 0.692292 0.910084 0.260346
H36   H     H_    0.030946 0.692441 0.768691 0.268753
O11   O     O_3   0.178428 0.487400 0.170114 -0.673222
C53   C     C_3   0.225367 0.449207 0.089226 0.038291
H37   H     H_    0.248473 0.400648 0.137151 0.133977
H38   H     H_    0.268653 0.485914 0.057684 0.154418
C54   C     C_3   0.183367 0.423824 0.972080 -0.325439
H39   H     H_    0.139989 0.387143 0.003196 0.216635
H40   H     H_    0.158809 0.471288 0.924040 0.232431
C55   C     C_3   0.230498 0.383942 0.876744 -0.931658
H41   H     H_    0.271472 0.420945 0.838258 0.249876
H42   H     H_    0.197440 0.364121 0.795812 0.284104
H43   H     H_    0.256854 0.336898 0.923022 0.256572
O12   O     O_3   0.818319 0.438371 0.189058 -0.660717
C56   C     C_3   0.785678 0.471353 0.081781 0.041913
H44   H     H_    0.827559 0.500367 0.028450 0.166717
H45   H     H_    0.743519 0.511884 0.104966 0.113928
C57   C     C_3   0.753981 0.412839 0.995451 -0.306972
H46   H     H_    0.793953 0.369296 0.979901 0.229768
H47   H     H_    0.706923 0.388816 0.043105 0.209702
C58   C     C_3   0.731718 0.443542 0.865945 -1.008486
H48   H     H_    0.694877 0.490068 0.878165 0.261640
H49   H     H_    0.704702 0.400989 0.808712 0.264070
H50   H     H_    0.779084 0.461803 0.812553 0.271057
O13   O     O_3   0.930130 0.626609 0.304119 -0.580018
C59   C     C_3   0.906292 0.631338 0.176322 0.070596
H51   H     H_    0.858541 0.596955 0.163075 0.134607
H52   H     H_    0.948359 0.614331 0.107395 0.110879
C60   C     C_3   0.885732 0.709446 0.146687 -0.305173
H53   H     H_    0.842329 0.726906 0.211720 0.231053
H54   H     H_    0.932452 0.745137 0.162809 0.224754
C61   C     C_3   0.860682 0.717179 0.008453 -0.981449
H55   H     H_    0.904012 0.701691 0.941806 0.267636
H56   H     H_    0.845504 0.774277 0.989790 0.271740
H57   H     H_    0.813668 0.682225 0.990355 0.259916
O14   O     O_3   0.069147 0.366371 0.408575 -0.599969
C62   C     C_3   0.100173 0.331797 0.301857 0.072440
H58   H     H_    0.148023 0.361405 0.270922 0.169923
H59   H     H_    0.062402 0.328080 0.219616 0.104575
C63   C     C_3   0.123573 0.255602 0.339762 -0.320729
H60   H     H_    0.161827 0.258971 0.420862 0.233732
H61   H     H_    0.076652 0.223944 0.371222 0.220489
C64   C     C_3   0.159136 0.216541 0.228343 -0.982380
H62   H     H_    0.121403 0.211393 0.146864 0.267015
H63   H     H_    0.175781 0.161530 0.258821 0.269475
H64   H     H_    0.206997 0.246702 0.196795 0.261435
O15   O     O_3   0.075112 0.624340 0.332476 -0.628589
C65   C     C_3   0.098970 0.644275 0.209687 0.116271
H65   H     H_    0.061500 0.684850 0.169173 0.147873
H66   H     H_    0.102304 0.598224 0.140872 0.164409
C66   C     C_3   0.172536 0.678861 0.223760 -0.318298
H67   H     H_    0.168304 0.728289 0.283935 0.220299
H68   H     H_    0.209139 0.640590 0.272691 0.232493
C67   C     C_3   0.204353 0.699022 0.095002 -0.974772
H69   H     H_    0.207062 0.650852 0.031550 0.277259
H70   H     H_    0.259133 0.719968 0.109495 0.261085
H71   H     H_    0.171946 0.742020 0.048981 0.266397
O16   O     O_3   0.921977 0.372371 0.409830 -0.617749
C68   C     C_3   0.916817 0.319367 0.312736 0.157223
H72   H     H_    0.961315 0.280333 0.323197 0.147892
H73   H     H_    0.918137 0.342656 0.214403 0.150610
C69   C     C_3   0.847235 0.277789 0.329220 -0.307920
H74   H     H_    0.847804 0.249718 0.423009 0.216932
H75   H     H_    0.801573 0.316024 0.328181 0.252601
C70   C     C_3   0.836854 0.222094 0.223042 -0.979978
H76   H     H_    0.833961 0.249363 0.128694 0.268079
H77   H     H_    0.786377 0.192363 0.238635 0.269388
H78   H     H_    0.881543 0.182645 0.222925 0.262979

loop_
_geom_bond_atom_site_label_1
_geom_bond_atom_site_label_2
_ccdc_geom_bond_type
C64   H64   S    
C70   H76   S    
C5    O15   S    
C27   C29   S    
C54   H40   S    
C14   C18   A    
O15   C65   S    
C65   C66   S    
C57   H47   S    
C53   H38   S    
O9    C47   S    
C48   H25   S    
C62   H59   S    
C1    O1    A    
C1    O4    A    
C20   H20   S    
C10   H12   S    
C65   H66   S    
C60   H53   S    
C29   C32   S    
C61   H57   S    
C68   H72   S    
C30   C31   S    
C11   H13   S    
C1    C46   S    
C35   H7    S    
C64   H62   S    
C14   H16   S    
C51   C52   S    
C29   C33   S    
C64   H63   S    
C66   C67   S    
C9    H11   S    
C9    C13   A    
C55   H41   S    
C38   C45   A    
C12   N2    A    
C57   H46   S    
C28   H4    S    
C42   O12   S    
C12   C16   A    
C61   H55   S    
C56   H45   S    
C51   H33   S    
C26   O6    A    
C54   H39   S    
C31   C33   S    
C36   C46   A    
C67   H70   S    
C25   C34   S    
C4    O14   S    
C60   C61   S    
C49   H27   S    
C48   H26   S    
C70   H77   S    
C31   H1    S    
C21   H21   S    
C32   H2    S    
C11   C15   A    
C4    C7    A    
C2    O2    A    
O1    Zn1   S    
C53   H37   S    
C6    O16   S    
O12   C56   S    
C69   H75   S    
O7    Zn1   S    
C27   C34   S    
C50   H31   S    
C62   C63   S    
C17   C24   S    
C30   C34   S    
N2    Zn2   S    
C18   C23   S    
C26   O7    A    
C28   C32   S    
C19   C22   A    
C63   H60   S    
C39   O9    S    
C67   H71   S    
C4    C6    A    
C3    C8    A    
C10   C14   A    
C5    C7    A    
C39   C43   A    
C59   C60   S    
C20   C23   A    
C27   C31   S    
C25   O8    A    
C25   O5    A    
C57   C58   S    
C12   H14   S    
C35   C39   A    
C69   C70   S    
C26   C33   S    
C52   H34   S    
C49   H29   S    
C36   C40   A    
C66   H67   S    
C56   C57   S    
C51   H32   S    
C68   H73   S    
O3    Zn1   S    
C68   C69   S    
C13   H15   S    
C50   H30   S    
C7    C44   S    
C40   O10   S    
C63   C64   S    
C55   H43   S    
C22   H22   S    
C58   H48   S    
C2    O3    A    
C10   N2    A    
C16   C18   A    
C52   H35   S    
C49   H28   S    
C28   C33   S    
C50   C51   S    
C47   H24   S    
O16   C68   S    
C41   C44   A    
N1    Zn1   S    
C42   C43   A    
C35   C45   A    
C27   H3    S    
C69   H74   S    
C29   H5    S    
C48   C49   S    
C15   C17   A    
C30   H6    S    
C59   H52   S    
O6    Zn2   S    
C9    N1    A    
O14   C62   S    
C3    C5    A    
C6    C8    A    
C11   N1    A    
C38   C42   A    
C63   H61   S    
C70   H78   S    
C47   C48   S    
C62   H58   S    
C13   C17   A    
C3    O13   S    
C28   C30   S    
C19   C24   A    
O2    Zn2   S    
O13   C59   S    
C59   H51   S    
C8    C43   S    
O10   C50   S    
C54   C55   S    
C19   H19   S    
O8    Zn2   S    
C65   H65   S    
C66   H68   S    
C37   C41   A    
C55   H42   S    
C58   H49   S    
C36   H8    S    
C2    C45   S    
C37   H9    S    
C41   O11   S    
C67   H69   S    
C40   C44   A    
C52   H36   S    
C38   H10   S    
C20   C21   A    
C61   H56   S    
C47   H23   S    
C21   C24   A    
O11   C53   S    
C58   H50   S    
C15   H17   S    
C22   C23   A    
O4    Zn2   S    
C16   H18   S    
C37   C46   A    
O5    Zn1   S    
C53   C54   S    
C56   H44   S    
C32   C34   S    
C60   H54   S    
