data_mof_unit_5644.cif
_audit_creation_date              2012-12-10T19:44:28-0500
_audit_creation_method            fapswitch 2.2
_symmetry_space_group_name_H-M    P1
_symmetry_Int_Tables_number       1
_space_group_crystal_system       triclinic
_cell_length_a                    10.778693
_cell_length_b                    12.364679
_cell_length_c                    13.276645
_cell_angle_alpha                 117.34297
_cell_angle_beta                  76.188282
_cell_angle_gamma                 101.43826
_cell_volume                      1518.22118868

loop_
_atom_site_label
_atom_site_type_symbol
_atom_type_description
_atom_site_fract_x
_atom_site_fract_y
_atom_site_fract_z
_atom_type_partial_charge
C1    C     C_R   0.513921 0.854763 0.286692 0.769152
C2    C     C_R   0.614602 0.858633 0.806120 -0.145743
C3    C     C_R   0.036668 0.960591 0.570613 -0.233147
C4    C     C_R   0.129333 0.997832 0.495796 -0.080079
C5    C     C_R   0.092992 0.038789 0.424612 -0.000522
C6    C     C_R   0.963469 0.041203 0.430021 -0.243432
C7    C     C_R   0.870909 0.002702 0.503850 -0.076250
C8    C     C_R   0.907299 0.964545 0.576902 0.030929
C9    C     C_R   0.205515 0.200563 0.361641 -0.153164
C10   C     C_R   0.299880 0.238747 0.288630 -0.095017
C11   C     C_R   0.375759 0.154247 0.195824 -0.094268
C12   C     C_R   0.737126 0.000698 0.501046 0.775025
C13   C     C_R   0.357092 0.031261 0.175561 -0.130724
C14   C     C_R   0.263254 0.992731 0.248714 -0.109927
C15   C     C_R   0.187342 0.077423 0.342742 0.124079
C16   C     C_R   0.300232 0.283684 0.015052 0.155587
C17   C     C_R   0.449471 0.227756 0.834748 -0.080709
C18   C     C_R   0.622201 0.808628 0.088265 -0.208380
C19   C     C_R   0.657343 0.725727 0.975127 -0.169467
C20   C     C_R   0.603595 0.604688 0.936452 -0.182091
C21   C     C_R   0.510055 0.564230 0.010631 0.100468
C22   C     C_R   0.465536 0.652109 0.122652 0.083533
C23   C     C_R   0.479984 0.145070 0.713297 0.800721
C24   C     C_R   0.458434 0.439829 0.976898 0.041408
C25   C     C_R   0.354171 0.406955 0.049989 0.147551
C26   C     C_R   0.303993 0.498122 0.155434 -0.233765
C27   C     C_R   0.357864 0.618502 0.190653 -0.222969
C28   C     C_R   0.507671 0.347052 0.872079 -0.280432
C29   C     C_R   0.348803 0.194820 0.906988 -0.243268
C30   C     C_R   0.529321 0.772148 0.163612 -0.103563
C31   C     C_R   0.696948 0.333134 0.312343 0.067894
C32   C     C_R   0.319740 0.757416 0.640263 0.084552
C33   C     C_R   0.268116 0.653498 0.656688 -0.290254
C34   C     C_R   0.263021 0.998826 0.498073 0.781396
C35   C     C_R   0.330191 0.547461 0.595483 -0.159929
C36   C     C_R   0.449711 0.545956 0.522157 0.012049
C37   C     C_R   0.491913 0.650823 0.500418 0.288695
C38   C     C_R   0.524706 0.442586 0.465197 -0.068196
C39   C     C_R   0.627336 0.437758 0.373822 0.091601
C40   C     C_R   0.660952 0.539540 0.349135 -0.284872
C41   C     C_R   0.597875 0.644380 0.413334 -0.185180
C42   C     C_R   0.507597 0.348135 0.501185 0.293522
C43   C     C_R   0.664477 0.237297 0.345332 -0.007757
C44   C     C_R   0.645479 0.982648 0.831814 -0.148610
C45   C     C_R   0.744598 0.020241 0.760343 0.208970
C46   C     C_R   0.812184 0.930823 0.661676 0.115722
C47   C     C_R   0.782235 0.806682 0.638594 -0.182735
C48   C     C_R   0.683721 0.770925 0.710446 -0.143260
Cu1   Cu    Cu3+1 0.529370 0.098270 0.475420 0.925848
Cu2   Cu    Cu3+1 0.470630 0.901730 0.524580 0.926435
H1    H     H_    0.537242 0.830527 0.860843 0.143100
H2    H     H_    0.448692 0.184070 0.139475 0.131912
H3    H     H_    0.415931 0.965950 0.103639 0.126357
H4    H     H_    0.250839 0.897533 0.233164 0.098800
H5    H     H_    0.303161 0.101673 0.876645 0.142379
H6    H     H_    0.222658 0.477156 0.211928 0.166363
H7    H     H_    0.590243 0.364834 0.815504 0.144407
H8    H     H_    0.671218 0.900462 0.117927 0.149145
H9    H     H_    0.635632 0.546198 0.847365 0.120894
H10   H     H_    0.729797 0.754544 0.917786 0.151162
H11   H     H_    0.591141 0.049218 0.906848 0.116251
H12   H     H_    0.311694 0.685405 0.270986 0.169044
H13   H     H_    0.713432 0.155212 0.297966 0.130195
H14   H     H_    0.739465 0.541672 0.281843 0.167913
H15   H     H_    0.269760 0.838852 0.685619 0.118497
H16   H     H_    0.278975 0.466468 0.602729 0.172720
H17   H     H_    0.177873 0.653885 0.714124 0.145174
H18   H     H_    0.634331 0.718046 0.390184 0.205957
H19   H     H_    0.832707 0.737313 0.562910 0.135758
H20   H     H_    0.659723 0.674890 0.691031 0.138737
H21   H     H_    0.065260 0.932029 0.627032 0.145056
H22   H     H_    0.934685 0.070133 0.373944 0.149761
H23   H     H_    0.148501 0.267208 0.434154 0.121724
H24   H     H_    0.314509 0.333961 0.304186 0.144721
N1    N     N_R   0.573890 0.246290 0.438210 -0.198735
N2    N     N_R   0.426890 0.754320 0.561170 -0.199147
O1    O     O_R   0.536940 0.972510 0.318130 -0.575376
O2    O     O_R   0.487330 0.806530 0.359650 -0.597645
O3    O     O_R   0.705160 0.082990 0.479250 -0.583572
O4    O     O_R   0.655550 0.917010 0.520760 -0.588849
O5    O     O_R   0.512670 0.193470 0.640350 -0.597060
O6    O     O_R   0.463060 0.027490 0.681870 -0.578391
O7    O     O_R   0.344450 0.082990 0.479240 -0.574913
O8    O     O_R   0.294840 0.917010 0.520750 -0.597321
N3    N     N_3   0.192334 0.250334 0.086656 -0.618803
H25   H     H_    0.111552 0.281531 0.081870 0.211859
H26   H     H_    0.174277 0.155114 0.054700 0.221134
C49   C     C_3   0.806081 0.319933 0.212533 -0.422120
C50   C     C_3   0.755627 0.286938 0.102852 -0.838623
H27   H     H_    0.696343 0.197125 0.077707 0.242248
H28   H     H_    0.696566 0.357224 0.114658 0.257263
H29   H     H_    0.838019 0.280071 0.032329 0.252504
H30   H     H_    0.873892 0.404519 0.233791 0.198330
H31   H     H_    0.864117 0.246207 0.194918 0.193959
N4    N     N_3   0.435222 0.369041 0.612504 -0.617701
H32   H     H_    0.367282 0.295290 0.609126 0.262806
H33   H     H_    0.497788 0.391491 0.669849 0.236675
N5    N     N_3   0.777882 0.148106 0.787980 -0.610497
H34   H     H_    0.753035 0.164674 0.725373 0.204687
H35   H     H_    0.722333 0.201260 0.865612 0.213833

loop_
_geom_bond_atom_site_label_1
_geom_bond_atom_site_label_2
_ccdc_geom_bond_type
C23   O6    A    
C1    O1    A    
N4    H32   S    
Cu2   O8    S    
C7    C8    A    
C45   C46   A    
C6    H22   S    
C33   H17   S    
C42   N1    A    
C17   C23   S    
C31   C43   A    
C36   C37   A    
C38   C42   A    
C45   N5    S    
N3    H25   S    
C38   C39   A    
C12   O3    A    
C11   C13   A    
C17   C29   A    
C18   C19   A    
Cu1   O5    S    
C47   H19   S    
C11   H2    S    
C49   H30   S    
C18   H8    S    
C35   C36   A    
C2    C44   A    
Cu1   N1    S    
C18   C30   A    
C50   H28   S    
C23   O5    A    
C9    C10   A    
C21   C22   A    
C37   C41   A    
C1    O2    A    
C34   O8    A    
Cu2   O2    S    
C41   H18   S    
C13   H3    S    
N3    H26   S    
C43   N1    A    
C7    C12   S    
C4    C34   S    
C43   H13   S    
C42   N4    S    
C24   C25   A    
C3    C8    A    
C10   C11   A    
C39   C40   A    
C29   H5    S    
C35   H16   S    
C2    C48   A    
C16   C29   A    
C28   H7    S    
Cu1   O3    S    
C26   H6    S    
C50   H29   S    
C3    H21   S    
C27   H12   S    
Cu2   N2    S    
C47   C48   A    
C26   C27   A    
C20   C21   A    
C20   H9    S    
C40   C41   A    
C14   H4    S    
C37   N2    A    
N5    H34   S    
N5    H35   S    
C22   C27   A    
C16   N3    S    
C44   H11   S    
C34   O7    A    
C3    C4    A    
C44   C45   A    
Cu2   O6    S    
C16   C25   A    
C46   C47   A    
C31   C49   S    
C22   C30   A    
C17   C28   A    
C9    H23   S    
C24   C28   A    
C48   H20   S    
C4    C5    A    
Cu2   O4    S    
C32   N2    A    
N4    H33   S    
C6    C7    A    
C19   H10   S    
C40   H14   S    
C32   C33   A    
Cu1   O7    S    
C19   C20   A    
C36   C38   A    
C25   C26   A    
C10   H24   S    
C5    C6    A    
C12   O4    A    
C1    C30   S    
C33   C35   A    
Cu1   O1    S    
C9    C15   A    
C8    C46   S    
C5    C15   S    
C2    H1    S    
C49   C50   S    
Cu1   Cu2   S    
C21   C24   A    
C31   C39   A    
C49   H31   S    
C14   C15   A    
C50   H27   S    
C13   C14   A    
C32   H15   S    
