data_mof_unit_35319.cif
_audit_creation_date              2012-10-26T19:15:54-0400
_audit_creation_method            fapswitch 2.2
_symmetry_space_group_name_H-M    P1
_symmetry_Int_Tables_number       1
_space_group_crystal_system       triclinic
_cell_length_a                    7.865291
_cell_length_b                    9.085952
_cell_length_c                    17.07114
_cell_angle_alpha                 89.587957
_cell_angle_beta                  92.818972
_cell_angle_gamma                 90.011851
_cell_volume                      1218.45829096

loop_
_atom_site_label
_atom_site_type_symbol
_atom_type_description
_atom_site_fract_x
_atom_site_fract_y
_atom_site_fract_z
_atom_type_partial_charge
C1    C     C_R   0.499966 0.220355 0.499951 0.547022
C2    C     C_R   0.642563 0.486649 0.144554 0.043763
C3    C     C_R   0.540449 0.436431 0.904820 0.209074
C4    C     C_R   0.506486 0.550484 0.099338 0.142599
C5    C     C_R   0.688559 0.421846 0.863550 0.034889
C6    C     C_R   0.365356 0.608278 0.136133 0.045493
C7    C     C_R   0.684259 0.467906 0.784150 -0.080520
C8    C     C_R   0.351883 0.591967 0.218074 -0.032018
C9    C     C_1   0.499970 0.065466 0.499908 -0.047388
C10   C     C_1   0.500004 0.934544 0.499902 -0.045626
C11   C     C_3   0.729227 0.330175 0.263034 -0.303001
C12   C     C_R   0.500021 0.779646 0.499941 0.554876
C13   C     C_3   0.221116 0.384967 0.737405 -0.362699
C14   C     C_2   0.813561 0.477499 0.110303 0.296237
C15   C     C_2   0.229266 0.468528 0.907199 0.217342
C16   C     C_2   0.839482 0.343616 0.899169 0.257831
C17   C     C_2   0.233415 0.686355 0.087225 0.287315
C18   C     C_3   0.844459 0.516740 0.748381 -0.390276
C19   C     C_3   0.203283 0.659532 0.258665 -0.325250
C20   C     C_R   0.519539 0.491839 0.651983 0.548831
C21   C     C_R   0.480704 0.501854 0.348565 0.540747
C22   C     C_R   0.527170 0.471058 0.739754 0.007381
C23   C     C_R   0.477762 0.508738 0.261650 -0.001329
C24   C     C_R   0.377596 0.442800 0.780419 -0.027681
C25   C     C_R   0.616575 0.446655 0.222969 -0.029545
C26   C     C_R   0.383703 0.449828 0.863081 0.050671
Cu1   Cu    Cu3+1 0.669080 0.500010 0.500000 1.000906
Cu2   Cu    Cu3+1 0.330920 0.499990 0.500000 1.000979
H1    H     H_    0.846953 0.381085 0.289216 0.177441
H2    H     H_    0.151094 0.625294 0.046563 0.163514
H3    H     H_    0.946067 0.536586 0.793208 0.183538
H4    H     H_    0.883233 0.430743 0.707225 0.148381
H5    H     H_    0.825021 0.624321 0.717968 0.173244
H6    H     H_    0.116423 0.725756 0.219630 0.170915
H7    H     H_    0.124187 0.571047 0.283353 0.170989
H8    H     H_    0.251479 0.733851 0.306108 0.144007
H9    H     H_    0.662044 0.270303 0.309263 0.126318
H10   H     H_    0.762850 0.244229 0.220524 0.187438
H11   H     H_    0.255983 0.297667 0.695877 0.151143
H12   H     H_    0.134307 0.330783 0.777196 0.101307
H13   H     H_    0.157172 0.476878 0.705133 0.170271
H14   H     H_    0.833151 0.527690 0.053627 0.171534
H15   H     H_    0.199784 0.390245 0.952882 0.149293
H16   H     H_    0.944533 0.317672 0.863817 0.097110
N1    N     N_1   0.076820 0.499970 0.500010 -0.091683
N2    N     N_1   0.923180 0.500030 0.499990 -0.091054
N3    N     N_2   0.548902 0.433918 0.987863 -0.203747
N4    N     N_2   0.506300 0.554056 0.016102 -0.238282
O1    O     O_R   0.642760 0.288400 0.500000 -0.498275
O2    O     O_2   0.142995 0.579206 0.897618 -0.525338
O3    O     O_2   0.843115 0.295759 0.966173 -0.466585
O4    O     O_2   0.218728 0.819780 0.091312 -0.468741
O5    O     O_R   0.357240 0.711600 0.500000 -0.493839
O6    O     O_R   0.357190 0.288380 0.500000 -0.494892
O7    O     O_R   0.642810 0.711620 0.500000 -0.490355
O8    O     O_R   0.658410 0.498660 0.613920 -0.508879
O9    O     O_R   0.341590 0.501340 0.386080 -0.507275
O10   O     O_R   0.372840 0.498650 0.613930 -0.509956
O11   O     O_R   0.627160 0.501350 0.386070 -0.506089
O12   O     O_2   0.936482 0.421789 0.145418 -0.532076

loop_
_geom_bond_atom_site_label_1
_geom_bond_atom_site_label_2
_ccdc_geom_bond_type
C11   H10   S    
C2    C4    A    
Cu2   O5    S    
C21   O9    A    
C11   H9    S    
Cu2   O10   S    
C7    C22   A    
C14   O12   D    
C9    C10   T    
C16   H16   S    
C12   O5    A    
C16   O3    D    
C14   H14   S    
C1    O6    A    
C7    C18   S    
C13   H13   S    
C15   H15   S    
Cu1   O11   S    
N1    N2    T    
C17   H2    S    
C11   H1    S    
C10   C12   S    
C17   O4    D    
C3    N3    S    
C13   H12   S    
C20   C22   S    
C19   H7    S    
C21   O11   A    
C2    C25   A    
Cu1   O7    S    
C20   O8    A    
C23   C25   A    
C21   C23   S    
C2    C14   S    
C18   H5    S    
C22   C24   A    
Cu2   N1    S    
C13   H11   S    
C8    C19   S    
C18   H4    S    
C11   C25   S    
C20   O10   A    
C12   O7    A    
Cu1   O1    S    
C8    C23   A    
C1    C9    S    
Cu1   N2    S    
C4    C6    A    
C4    N4    S    
C15   O2    D    
Cu1   Cu2   S    
C5    C7    A    
C6    C17   S    
Cu2   O6    S    
Cu1   O8    S    
C5    C16   S    
C6    C8    A    
C18   H3    S    
C3    C5    A    
C19   H8    S    
Cu2   O9    S    
C1    O1    A    
C3    C26   A    
N3    N4    D    
C13   C24   S    
C24   C26   A    
C15   C26   S    
C19   H6    S    
