data_mof_unit_36171.cif
_audit_creation_date              2012-10-26T19:00:12-0400
_audit_creation_method            fapswitch 2.2
_symmetry_space_group_name_H-M    P1
_symmetry_Int_Tables_number       1
_space_group_crystal_system       triclinic
_cell_length_a                    10.918243
_cell_length_b                    10.776081
_cell_length_c                    9.613388
_cell_angle_alpha                 90.014608
_cell_angle_beta                  90.877189
_cell_angle_gamma                 89.471834
_cell_volume                      1130.89092567

loop_
_atom_site_label
_atom_site_type_symbol
_atom_type_description
_atom_site_fract_x
_atom_site_fract_y
_atom_site_fract_z
_atom_type_partial_charge
C1    C     C_R   0.498791 0.262735 0.500082 0.541384
C2    C     C_R   0.814751 0.520207 0.988901 -0.113760
C3    C     C_R   0.799124 0.396661 0.028997 -0.100632
C4    C     C_R   0.262277 0.496042 0.498594 0.544015
C5    C     C_R   0.827520 0.300596 0.937222 -0.121126
C6    C     C_R   0.872231 0.327783 0.805425 -0.089440
C7    C     C_R   0.887221 0.451583 0.764453 0.072552
C8    C     C_R   0.543929 0.063920 0.613153 0.018818
C9    C     C_R   0.491982 0.129545 0.501789 0.012880
C10   C     C_R   0.429658 0.065417 0.395679 -0.168321
C11   C     C_R   0.429872 0.935985 0.395913 -0.166857
C12   C     C_R   0.201477 0.416372 0.971692 -0.050268
C13   C     C_R   0.493811 0.870920 0.501190 0.012306
C14   C     C_R   0.545935 0.935981 0.612269 0.015158
C15   C     C_3   0.675408 0.930930 0.665700 -0.280121
C16   C     C_R   0.499639 0.737393 0.500023 0.547456
C17   C     C_3   0.671867 0.071456 0.669228 -0.275100
C18   C     C_R   0.526319 0.605255 0.073710 0.155433
C19   C     C_R   0.490916 0.392662 0.073831 -0.016196
C20   C     C_R   0.491614 0.392558 0.925731 -0.013789
C21   C     C_R   0.527660 0.605101 0.927234 0.165241
C22   C     C_3   0.463699 0.727665 0.919995 -0.271520
C23   C     C_R   0.931495 0.499245 0.377109 -0.158039
C24   C     C_3   0.459697 0.726312 0.077771 -0.278478
C25   C     C_R   0.737469 0.497748 0.501434 0.541049
C26   C     C_R   0.164026 0.538185 0.003315 0.283965
C27   C     C_R   0.119068 0.562270 0.137889 -0.084898
C28   C     C_R   0.110660 0.466244 0.234649 0.012574
C29   C     C_R   0.144477 0.344911 0.199108 -0.076693
C30   C     C_R   0.189317 0.318980 0.066916 -0.011883
C31   C     C_3   0.122826 0.743598 0.929707 -0.156723
C32   C     C_3   0.225309 0.188142 0.027602 -0.285140
C33   C     C_3   0.139176 0.135802 0.916172 -0.439380
C34   C     C_R   0.871227 0.493565 0.504024 -0.011829
C35   C     C_R   0.940673 0.479246 0.628160 -0.035805
C36   C     C_R   0.067319 0.482381 0.622246 -0.142151
C37   C     C_R   0.127887 0.489896 0.495968 -0.010913
C38   C     C_R   0.058018 0.490122 0.371478 -0.030287
C39   C     C_R   0.857655 0.547800 0.856381 -0.048980
Cu1   Cu    Cu3+1 0.499990 0.499980 0.640670 0.955490
Cu2   Cu    Cu3+1 0.500010 0.500020 0.359330 0.926826
H1    H     H_    0.241590 0.396456 0.872094 0.130352
H2    H     H_    0.735804 0.115169 0.595186 0.128649
H3    H     H_    0.479274 0.305698 0.127437 0.116165
H4    H     H_    0.480462 0.305532 0.871674 0.113370
H5    H     H_    0.523524 0.801558 0.880199 0.115121
H6    H     H_    0.373297 0.723332 0.867124 0.207791
H7    H     H_    0.516195 0.800465 0.126094 0.122793
H8    H     H_    0.365916 0.717372 0.119607 0.152819
H9    H     H_    0.090438 0.654123 0.169914 0.083932
H10   H     H_    0.134787 0.270877 0.274355 0.099710
H11   H     H_    0.880043 0.505389 0.280548 0.133447
H12   H     H_    0.764171 0.375065 0.130745 0.128041
H13   H     H_    0.118628 0.474356 0.717186 0.177704
H14   H     H_    0.867762 0.643579 0.825088 0.094676
H15   H     H_    0.792847 0.594689 0.060056 0.093378
H16   H     H_    0.176680 0.791070 0.012617 0.102275
H17   H     H_    0.025045 0.736223 0.958376 0.106663
H18   H     H_    0.126344 0.802420 0.835228 0.138499
H19   H     H_    0.140391 0.193622 0.820568 0.147673
H20   H     H_    0.169001 0.040205 0.888872 0.125694
H21   H     H_    0.044341 0.132078 0.955851 0.150620
H22   H     H_    0.320362 0.186677 0.988476 0.123698
H23   H     H_    0.815553 0.205096 0.968588 0.088049
H24   H     H_    0.223336 0.125922 0.119726 0.129786
H25   H     H_    0.895965 0.252674 0.735690 0.088201
H26   H     H_    0.383539 0.115050 0.311788 0.113616
H27   H     H_    0.382538 0.887180 0.312997 0.114813
H28   H     H_    0.684652 0.889024 0.770769 0.121216
H29   H     H_    0.740037 0.892755 0.587872 0.131418
H30   H     H_    0.674693 0.110062 0.776406 0.130738
N1    N     N_R   0.500790 0.500930 0.147930 -0.230450
N2    N     N_R   0.500790 0.500890 0.852020 -0.219799
O1    O     O_R   0.500000 0.319640 0.618810 -0.514146
O2    O     O_R   0.500010 0.319680 0.381230 -0.520293
O3    O     O_R   0.319640 0.499990 0.618790 -0.494824
O4    O     O_R   0.319650 0.500030 0.381210 -0.491035
O5    O     O_R   0.499990 0.680320 0.618770 -0.500493
O6    O     O_R   0.500000 0.680360 0.381190 -0.509956
O7    O     O_R   0.680350 0.499970 0.618790 -0.488082
O8    O     O_R   0.680360 0.500010 0.381210 -0.516976
O9    O     O_3   0.174685 0.626652 0.898261 -0.591669

loop_
_geom_bond_atom_site_label_1
_geom_bond_atom_site_label_2
_ccdc_geom_bond_type
C25   O7    A    
C11   C13   A    
C35   C36   A    
C10   H26   S    
C19   H3    S    
C26   C27   A    
C29   C30   A    
C31   O9    S    
C18   C24   S    
C1    O1    A    
C31   H17   S    
C28   C29   A    
Cu2   O4    S    
C5    C6    A    
C18   C21   A    
C21   N2    A    
Cu1   N2    S    
C34   C35   A    
C31   H18   S    
C12   H1    S    
C2    C39   A    
C39   H14   S    
C19   C20   A    
C33   H21   S    
Cu1   O7    S    
C9    C10   A    
C20   H4    S    
C27   H9    S    
C25   C34   S    
C22   H6    S    
C26   O9    S    
C21   C22   S    
C25   O8    A    
C19   N1    A    
C18   N1    A    
C15   H28   S    
C1    O2    A    
C1    C9    S    
C8    C9    A    
Cu1   O3    S    
C5    H23   S    
C12   C26   A    
C24   H7    S    
C17   H2    S    
C37   C38   A    
Cu2   O2    S    
C28   C38   S    
C23   C34   A    
Cu2   O8    S    
Cu2   N1    S    
Cu1   O5    S    
Cu1   Cu2   S    
C22   H5    S    
C17   H30   S    
C33   H19   S    
C22   C24   S    
C11   H27   S    
C29   H10   S    
C24   H8    S    
C15   C17   S    
C15   H29   S    
C36   C37   A    
C8    C14   A    
C12   C30   A    
C7    C35   S    
C32   H22   S    
C3    C5    A    
Cu2   O6    S    
C6    C7    A    
C23   C38   A    
C8    C17   S    
C16   O6    A    
C32   C33   S    
C31   H16   S    
C2    C3    A    
C4    O4    A    
C2    H15   S    
C30   C32   S    
C3    H12   S    
C23   H11   S    
Cu1   O1    S    
C20   N2    A    
C16   O5    A    
C4    O3    A    
C36   H13   S    
C10   C11   A    
C6    H25   S    
C4    C37   S    
C33   H20   S    
C13   C16   S    
C27   C28   A    
C7    C39   A    
C14   C15   S    
C13   C14   A    
C32   H24   S    
