data_mof_unit_5518.cif
_audit_creation_date              2012-12-10T17:14:44-0500
_audit_creation_method            fapswitch 2.2
_symmetry_space_group_name_H-M    P1
_symmetry_Int_Tables_number       1
_space_group_crystal_system       triclinic
_cell_length_a                    10.649101
_cell_length_b                    12.953474
_cell_length_c                    11.753628
_cell_angle_alpha                 100.471997
_cell_angle_beta                  94.605044
_cell_angle_gamma                 91.121759
_cell_volume                      1588.21117154

loop_
_atom_site_label
_atom_site_type_symbol
_atom_type_description
_atom_site_fract_x
_atom_site_fract_y
_atom_site_fract_z
_atom_type_partial_charge
C1    C     C_R   0.499814 0.299197 0.478318 0.807257
C2    C     C_R   0.500186 0.700803 0.521682 0.807255
C3    C     C_R   0.458651 0.137134 0.551932 -0.257700
C4    C     C_R   0.541349 0.862866 0.448068 -0.257702
C5    C     C_R   0.470274 0.029644 0.546282 0.175940
C6    C     C_R   0.529724 0.970356 0.453718 0.175938
C7    C     C_R   0.388583 0.395921 0.016389 -0.355794
C8    C     C_R   0.611421 0.604076 0.983611 -0.355790
C9    C     C_R   0.397857 0.405005 0.138303 0.196629
C10   C     C_R   0.602140 0.594997 0.861698 0.196632
C11   C     C_R   0.546927 0.546505 0.159051 0.019135
C12   C     C_R   0.453078 0.453491 0.840949 0.019138
C13   C     C_R   0.540129 0.537978 0.036060 0.056728
C14   C     C_R   0.459877 0.462018 0.963939 0.056727
C15   C     C_R   0.259419 0.500400 0.499705 0.796605
C16   C     C_R   0.740581 0.499601 0.500295 0.796606
C17   C     C_3   0.037827 0.400296 0.473045 -0.228439
C18   C     C_3   0.962173 0.599705 0.526953 -0.228456
C19   C     C_3   0.947424 0.454919 0.393826 -0.203322
C20   C     C_3   0.052575 0.545083 0.606174 -0.203332
C21   C     C_3   0.877252 0.499435 0.500540 -0.020262
C22   C     C_3   0.122748 0.500566 0.499460 -0.020256
C23   C     C_3   0.966019 0.445630 0.578312 0.040539
C24   C     C_3   0.033980 0.554372 0.421687 0.040549
C25   C     C_R   0.494169 0.814076 0.533392 -0.026682
C26   C     C_R   0.505831 0.185924 0.466608 -0.026691
C27   C     C_R   0.576554 0.019518 0.368407 -0.224429
C28   C     C_R   0.423444 0.980481 0.631593 -0.224439
C29   C     C_R   0.565182 0.127196 0.375243 -0.207082
C30   C     C_R   0.434817 0.872804 0.624756 -0.207068
Cu1   Cu    Cu3+1 0.509400 0.507730 0.615930 0.949750
Cu2   Cu    Cu3+1 0.490600 0.492270 0.384070 0.949749
H1    H     H_    0.901458 0.419739 0.306944 0.140167
H2    H     H_    0.098537 0.580267 0.693057 0.140174
H3    H     H_    0.071372 0.318893 0.454310 0.142964
H4    H     H_    0.928627 0.681109 0.545682 0.142955
H5    H     H_    0.586802 0.817022 0.377173 0.138366
H6    H     H_    0.413198 0.182977 0.622827 0.138366
H7    H     H_    0.394805 0.835040 0.689146 0.143457
H8    H     H_    0.605194 0.164960 0.310853 0.143453
H9    H     H_    0.622870 0.975023 0.297395 0.136444
H10   H     H_    0.377128 0.024977 0.702604 0.136443
H11   H     H_    0.390634 0.394620 0.786071 0.122752
H12   H     H_    0.609371 0.605376 0.213929 0.122753
H13   H     H_    0.326616 0.335688 0.962562 0.144839
H14   H     H_    0.673384 0.664312 0.037438 0.144837
N1    N     N_R   0.523540 0.519360 0.790140 -0.195501
N2    N     N_R   0.476460 0.480640 0.209860 -0.195501
O1    O     O_R   0.506670 0.354460 0.582000 -0.585571
O2    O     O_R   0.493330 0.645540 0.418000 -0.585573
O3    O     O_R   0.490800 0.341410 0.386200 -0.585366
O4    O     O_R   0.509200 0.658590 0.613800 -0.585359
O5    O     O_R   0.324790 0.506500 0.597880 -0.593861
O6    O     O_R   0.675210 0.493500 0.402120 -0.593862
O7    O     O_R   0.308910 0.493440 0.402080 -0.577508
O8    O     O_R   0.691090 0.506560 0.597920 -0.577514
C31   C     C_1   0.927161 0.385254 0.664523 0.209034
N3    N     N_1   0.896339 0.337724 0.732518 -0.291612
C32   C     C_1   0.072839 0.614747 0.335476 0.209028
N4    N     N_1   0.103661 0.662276 0.267480 -0.291616
C33   C     C_R   0.675525 0.674814 0.818210 0.165837
C34   C     C_R   0.802719 0.659359 0.798895 -0.127794
C35   C     C_R   0.878673 0.742320 0.778433 -0.172588
C36   C     C_R   0.828398 0.840865 0.776831 -0.121181
C37   C     C_R   0.703146 0.857783 0.799834 -0.135356
C38   C     C_R   0.627887 0.775798 0.823207 -0.144170
H15   H     H_    0.843822 0.584239 0.803203 0.141752
H16   H     H_    0.977146 0.730927 0.765502 0.132631
H17   H     H_    0.887300 0.904700 0.760426 0.133958
H18   H     H_    0.665121 0.934919 0.801911 0.143361
H19   H     H_    0.532754 0.790997 0.846459 0.116086
C39   C     C_R   0.324452 0.325203 0.181793 0.165840
C40   C     C_R   0.197257 0.340672 0.201078 -0.127811
C41   C     C_R   0.121282 0.257722 0.221529 -0.172574
C42   C     C_R   0.171538 0.159174 0.223153 -0.121208
C43   C     C_R   0.296793 0.142243 0.200183 -0.135380
C44   C     C_R   0.372073 0.224217 0.176818 -0.144140
H20   H     H_    0.156169 0.415793 0.196753 0.141755
H21   H     H_    0.022808 0.269124 0.234432 0.132636
H22   H     H_    0.112620 0.095348 0.239548 0.133962
H23   H     H_    0.334804 0.065106 0.198122 0.143369
H24   H     H_    0.467207 0.209006 0.153586 0.116092

loop_
_geom_bond_atom_site_label_1
_geom_bond_atom_site_label_2
_ccdc_geom_bond_type
C16   C21   S    
C27   C29   A    
C18   C21   S    
C40   C41   A    
C9    C39   S    
Cu1   O4    S    
C4    C25   A    
C34   C35   A    
C34   H15   S    
C18   C24   S    
C7    H13   S    
C19   C21   S    
C12   H11   S    
C5    C6    A    
C37   H18   S    
C23   C31   S    
C2    O2    A    
C33   C38   A    
C15   C22   S    
C38   H19   S    
C3    H6    S    
C40   H20   S    
Cu1   O8    S    
C42   H22   S    
Cu2   O7    S    
C6    C27   A    
C20   H2    S    
C32   N4    T    
Cu1   N1    S    
C13   C14   A    
Cu2   N2    S    
C11   N2    A    
Cu1   O1    S    
C12   N1    A    
Cu2   O6    S    
C8    H14   S    
C7    C14   A    
C41   C42   A    
C43   C44   A    
C4    C6    A    
C19   H1    S    
C15   O7    A    
C42   C43   A    
C16   O8    A    
Cu2   O3    S    
C39   C44   A    
C5    C28   A    
C27   H9    S    
Cu1   Cu2   S    
C20   C23   S    
C11   H12   S    
C17   C23   S    
C36   H17   S    
Cu1   O5    S    
C1    O3    A    
Cu2   O2    S    
C2    O4    A    
C26   C29   A    
C12   C14   A    
C41   H21   S    
C21   C23   S    
C1    C26   S    
C22   C24   S    
C10   C33   S    
C15   O5    A    
C25   C30   A    
C7    C9    A    
C35   H16   S    
C3    C26   A    
C20   C22   S    
C39   C40   A    
C3    C5    A    
C43   H23   S    
C17   C22   S    
C36   C37   A    
C28   C30   A    
C19   C24   S    
C11   C13   A    
C31   N3    T    
C1    O1    A    
C44   H24   S    
C24   C32   S    
C29   H8    S    
C28   H10   S    
C17   C19   S    
C30   H7    S    
C2    C25   S    
C18   C20   S    
C33   C34   A    
C16   O6    A    
C35   C36   A    
C8    C13   A    
C4    H5    S    
C9    N2    A    
C8    C10   A    
C37   C38   A    
C10   N1    A    
C17   H3    S    
C18   H4    S    
