data_mof_unit_18203.cif
_audit_creation_date              2013-03-05T15:47:14-0500
_audit_creation_method            fapswitch 2.2
_symmetry_space_group_name_H-M    P1
_symmetry_Int_Tables_number       1
_space_group_crystal_system       triclinic
_cell_length_a                    27.816707
_cell_length_b                    10.805823
_cell_length_c                    9.775538
_cell_angle_alpha                 109.93147
_cell_angle_beta                  98.365387
_cell_angle_gamma                 91.056903
_cell_volume                      2725.63746448

loop_
_atom_site_label
_atom_site_type_symbol
_atom_site_description
_atom_site_fract_x
_atom_site_fract_y
_atom_site_fract_z
_atom_type_partial_charge
O1    O     O_R   0.504520 0.332330 0.577400 -0.549588
O2    O     O_R   0.495480 0.667670 0.422600 -0.579381
O3    O     O_R   0.490210 0.295500 0.332650 -0.571116
O4    O     O_R   0.509790 0.704500 0.667350 -0.563975
C1    C     C_R   0.494088 0.252787 0.442305 0.817278
C2    C     C_R   0.501861 0.747105 0.557603 0.864691
O5    O     O_R   0.437420 0.518430 0.622370 -0.579855
O6    O     O_R   0.562580 0.481570 0.377630 -0.576204
O7    O     O_R   0.423110 0.481600 0.377610 -0.572503
O8    O     O_R   0.576890 0.518400 0.622390 -0.575609
C3    C     C_R   0.407571 0.503134 0.501715 0.834982
C4    C     C_R   0.592530 0.500698 0.498951 0.835166
Cu1   Cu    Cu3+1 0.508480 0.521810 0.644910 0.957730
Cu2   Cu    Cu3+1 0.491520 0.478190 0.355090 0.946711
C5    C     C_R   0.173891 0.401544 0.424307 0.589926
C6    C     C_R   0.825262 0.633918 0.551308 0.606204
O9    O     O_2   0.195385 0.293205 0.351063 -0.506433
O10   O     O_2   0.803134 0.745563 0.609390 -0.506459
N1    N     N_R   0.202375 0.514491 0.505939 -0.436783
N2    N     N_R   0.797793 0.516229 0.492508 -0.451916
C7    C     C_R   0.182888 0.626002 0.585956 0.638072
C8    C     C_R   0.818209 0.399675 0.434964 0.581106
C9    C     C_R   0.273228 0.522534 0.381648 0.335095
C10   C     C_R   0.713440 0.508857 0.366278 0.366480
C11   C     C_R   0.323506 0.516327 0.381892 -0.283058
C12   C     C_R   0.663257 0.503013 0.369486 -0.285915
C13   C     C_R   0.335739 0.509623 0.629454 -0.290702
C14   C     C_R   0.678161 0.510155 0.622349 -0.205301
C15   C     C_R   0.285473 0.509669 0.629458 0.248409
C16   C     C_R   0.728449 0.515757 0.622627 0.247429
C17   C     C_R   0.254020 0.516454 0.505793 0.223572
C18   C     C_R   0.746255 0.514604 0.493887 0.179760
C19   C     C_R   0.102054 0.512972 0.501036 -0.091148
C20   C     C_R   0.897939 0.517762 0.494538 -0.093982
C21   C     C_R   0.122762 0.398162 0.418226 -0.056793
C22   C     C_R   0.876134 0.638105 0.551831 -0.063658
C23   C     C_R   0.091758 0.284724 0.332468 0.267825
C24   C     C_R   0.905831 0.757695 0.607448 0.265770
C25   C     C_R   0.132522 0.627494 0.585030 -0.010745
C26   C     C_R   0.868523 0.398082 0.435031 -0.006210
C27   C     C_R   0.354895 0.509491 0.504654 -0.125537
C28   C     C_R   0.645381 0.504197 0.496757 -0.161874
H1    H     H_    0.359577 0.506117 0.725877 0.161771
H2    H     H_    0.664663 0.508105 0.720093 0.191913
C29   C     C_R   0.970065 0.395804 0.430874 0.072864
C30   C     C_R   0.030400 0.632461 0.575851 0.071803
C31   C     C_R   0.978967 0.635617 0.564209 0.006137
C32   C     C_R   0.020664 0.396767 0.422996 0.005994
C33   C     C_R   0.949128 0.516490 0.496532 0.069710
C34   C     C_R   0.050900 0.513960 0.499943 0.070562
C35   C     C_R   0.939591 0.277659 0.376208 -0.211454
C36   C     C_R   0.062221 0.743921 0.662201 -0.205048
C37   C     C_R   0.889852 0.279052 0.378339 -0.147772
C38   C     C_R   0.112246 0.741210 0.666552 -0.135313
O11   O     O_2   0.789780 0.285610 0.378622 -0.528284
O12   O     O_2   0.212258 0.735539 0.664967 -0.530108
C39   C     C_R   0.041844 0.284736 0.337596 -0.272684
C40   C     C_R   0.956311 0.754907 0.615065 -0.273246
H3    H     H_    0.638020 0.499614 0.272605 0.200989
H4    H     H_    0.338373 0.519769 0.286736 0.202421
H5    H     H_    0.868117 0.185698 0.335138 0.184069
H6    H     H_    0.135032 0.829438 0.734268 0.182923
H7    H     H_    0.953339 0.181549 0.334799 0.137208
H8    H     H_    0.049637 0.834110 0.731441 0.135828
H9    H     H_    0.020041 0.196505 0.266860 0.140278
H10   H     H_    0.976830 0.849397 0.655191 0.139457
C41   C     C_2   0.485460 0.110599 0.414173 0.038438
C42   C     C_2   0.499043 0.889142 0.584074 0.020937
C43   C     C_2   0.463581 0.068426 0.507791 0.202483
C44   C     C_2   0.464396 0.928392 0.496675 0.174700
H11   H     H_    0.467061 0.417029 0.847584 0.176164
H12   H     H_    0.532269 0.585191 0.153231 0.164536
N3    N     N_2   0.478780 0.445430 0.137360 -0.284638
N4    N     N_2   0.521220 0.554570 0.862640 -0.280590
C45   C     C_2   0.504074 0.511688 0.081055 -0.066384
C46   C     C_2   0.495550 0.489577 0.919377 -0.066391
H13   H     H_    0.548047 0.623044 0.933314 0.201123
H14   H     H_    0.452259 0.376115 0.066403 0.192427
N5    N     N_2   0.532757 0.981385 0.700960 -0.454246
H15   H     H_    0.526261 0.079720 0.729245 0.266472
C47   C     C_3   0.583714 0.958965 0.695934 -0.640942
H16   H     H_    0.606489 0.034141 0.792224 0.244753
H17   H     H_    0.593784 0.967203 0.593272 0.223528
H18   H     H_    0.591578 0.860104 0.700988 0.231085
N6    N     N_2   0.503330 0.018106 0.292900 -0.453968
H19   H     H_    0.538337 0.044615 0.284843 0.256323
C48   C     C_3   0.471114 0.984722 0.153179 -0.667402
H20   H     H_    0.484475 0.899543 0.070353 0.234959
H21   H     H_    0.470290 0.069423 0.113144 0.240943
H22   H     H_    0.433531 0.957023 0.163518 0.232449
N7    N     N_2   0.266383 0.502198 0.753918 -0.403026
H23   H     H_    0.288119 0.553885 0.853047 0.280006
C49   C     C_3   0.252791 0.369070 0.743590 -0.593684
H24   H     H_    0.235278 0.371902 0.839457 0.269816
H25   H     H_    0.285594 0.311776 0.743268 0.211394
H26   H     H_    0.226302 0.318537 0.641983 0.242116
N8    N     N_2   0.760699 0.516156 0.750510 -0.411538
H27   H     H_    0.795095 0.487091 0.733891 0.253709
C50   C     C_3   0.761264 0.632053 0.880662 -0.540672
H28   H     H_    0.786718 0.621250 0.973869 0.254249
H29   H     H_    0.724538 0.644347 0.913061 0.239932
H30   H     H_    0.773746 0.721484 0.860203 0.234590
N9    N     N_2   0.109941 0.169620 0.238357 -0.374350
H31   H     H_    0.093619 0.082658 0.237213 0.246883
C51   C     C_3   0.110886 0.170044 0.090899 -0.570675
H32   H     H_    0.128237 0.081446 0.027499 0.226268
H33   H     H_    0.132347 0.259264 0.094680 0.263200
H34   H     H_    0.073195 0.167901 0.033214 0.187698
N10   N     N_2   0.885579 0.882499 0.654225 -0.379667
H35   H     H_    0.906095 0.951055 0.746294 0.242006
C52   C     C_3   0.872583 0.935372 0.537362 -0.565658
H36   H     H_    0.854344 0.028191 0.580209 0.234470
H37   H     H_    0.847018 0.864159 0.444730 0.258895
H38   H     H_    0.905758 0.957302 0.496080 0.187661
N11   N     N_R   0.730258 0.508334 0.233214 0.139399
O13   O     O_R   0.701303 0.462793 0.107053 -0.365157
O14   O     O_R   0.773006 0.561792 0.237628 -0.374324
N12   N     N_R   0.242520 0.535475 0.255665 0.136745
O15   O     O_R   0.258015 0.505606 0.129773 -0.390198
O16   O     O_R   0.201149 0.589071 0.268478 -0.356475
N13   N     N_2   0.430457 0.832654 0.385126 -0.424936
H39   H     H_    0.441831 0.797813 0.283936 0.282708
C53   C     C_3   0.379767 0.860739 0.376550 -0.659259
H40   H     H_    0.357067 0.772134 0.299180 0.242028
H41   H     H_    0.373496 0.943458 0.334581 0.228012
H42   H     H_    0.368463 0.884823 0.486585 0.239792
N14   N     N_2   0.443260 0.158264 0.626132 -0.451527
H43   H     H_    0.442561 0.126881 0.714406 0.243253
C54   C     C_3   0.396939 0.204543 0.583608 -0.665563
H44   H     H_    0.388733 0.289090 0.677662 0.216976
H45   H     H_    0.367337 0.125695 0.555815 0.225992
H46   H     H_    0.397669 0.237032 0.487762 0.220682

loop_
_geom_bond_atom_site_label_1
_geom_bond_atom_site_label_2
_geom_bond_distance
_ccdc_geom_bond_type
C48   H20   1.110397 S    
C49   H24   1.109199 S    
C13   C15   1.398239 A    
C52   H36   1.110411 S    
C1    C41   1.474124 S    
N1    C17   1.436564 S    
C9    N12   1.442792 S    
C10   C18   1.416673 A    
N8    H27   1.030519 S    
C53   H40   1.110183 S    
C31   C33   1.415569 A    
N6    H19   1.031442 S    
C5    N1    1.367670 A    
C51   H33   1.111436 S    
C16   N8    1.427398 S    
C19   C25   1.410659 A    
N4    C46   1.293463 D    
O1    C1    1.293224 A    
N1    C7    1.364726 A    
C10   C12   1.401580 A    
N10   C52   1.447281 S    
H11   C46   1.084081 S    
C53   H41   1.110253 S    
C25   C38   1.397067 A    
C29   C35   1.413190 A    
N11   O13   1.301722 A    
C30   C36   1.413080 A    
C14   C28   1.400410 A    
O4    Cu1   1.909543 S    
N12   O15   1.301211 A    
C4    C28   1.473389 S    
C47   H17   1.111454 S    
C24   C40   1.396755 A    
C37   H5    1.083635 S    
C40   H10   1.078179 S    
N11   O14   1.300863 A    
N4    H13   1.030892 S    
N3    H14   1.030968 S    
C11   H4    1.082871 S    
C12   H3    1.083037 S    
C6    N2    1.367300 A    
C54   H46   1.109534 S    
C42   N5    1.433803 S    
C2    C42   1.472529 S    
C49   H25   1.111884 S    
Cu1   Cu2   2.676542 S    
N3    C45   1.293604 D    
O2    C2    1.289901 A    
H12   C45   1.085213 S    
C5    C21   1.414088 A    
N8    C50   1.447249 S    
C36   C38   1.387143 A    
C47   H16   1.110604 S    
N6    C48   1.447326 S    
C51   H34   1.111723 S    
C41   N6    1.425978 S    
Cu2   N3    2.010796 S    
C32   C39   1.410654 A    
C35   H7    1.077862 S    
N9    C51   1.447098 S    
C36   H8    1.078069 S    
C11   C27   1.402112 A    
N7    H23   1.031810 S    
N5    C47   1.447460 S    
O7    Cu2   1.946778 S    
C53   H42   1.110954 S    
C38   H6    1.083607 S    
C19   C34   1.421677 A    
C14   H2    1.083034 S    
C35   C37   1.387038 A    
C9    C17   1.415742 A    
O5    C3    1.298044 A    
C45   C46   1.497553 S    
N14   C54   1.446635 S    
N7    C49   1.446517 S    
C13   C27   1.400115 A    
C50   H28   1.110397 S    
C7    C25   1.400170 A    
C29   C33   1.420547 A    
O6    C4    1.297061 A    
C8    C26   1.399899 A    
C52   H37   1.111392 S    
C6    O10   1.348609 S    
C24   N10   1.423984 S    
O7    C3    1.294850 A    
N13   H39   1.030480 S    
O3    Cu2   1.909541 S    
O8    C4    1.296290 A    
O4    C2    1.297391 A    
C50   H29   1.110007 S    
N2    C8    1.364360 A    
C49   H26   1.109095 S    
C48   H21   1.110764 S    
C20   C26   1.410668 A    
O1    Cu1   1.920712 S    
N14   H43   1.031585 S    
C15   N7    1.422024 S    
C47   H18   1.110388 S    
C12   C28   1.401678 A    
C23   N9    1.423960 S    
C54   H44   1.108231 S    
N2    C18   1.435488 S    
C29   C32   1.420781 A    
C5    O9    1.348900 S    
C30   C31   1.420588 A    
C20   C33   1.421585 A    
O6    Cu2   1.955037 S    
C21   C23   1.413914 A    
C39   H9    1.078018 S    
O3    C1    1.295848 A    
O8    Cu1   1.946784 S    
C7    O12   1.349971 S    
C8    O11   1.349965 S    
C51   H32   1.110487 S    
C30   C34   1.420470 A    
C22   C24   1.413817 A    
C14   C16   1.398608 A    
C15   C17   1.409732 A    
N10   H35   1.031940 S    
C6    C22   1.414168 A    
C31   C40   1.410704 A    
C16   C18   1.414285 A    
C44   N13   1.430350 S    
C32   C34   1.415655 A    
C19   C21   1.415478 A    
C3    C27   1.472133 S    
C52   H38   1.111806 S    
C20   C22   1.415643 A    
C9    C11   1.401114 A    
C43   C44   1.480516 S    
O2    Cu2   1.920713 S    
N12   O16   1.300977 A    
N13   C53   1.444294 S    
N5    H15   1.029324 S    
C13   H1    1.083051 S    
O5    Cu1   1.955037 S    
C50   H30   1.110864 S    
Cu1   N4    2.010798 S    
C43   N14   1.430060 S    
C10   N11   1.443278 S    
C42   C44   1.364279 D    
C26   C37   1.396897 A    
C48   H22   1.110197 S    
N9    H31   1.031947 S    
C41   C43   1.360801 D    
C23   C39   1.396627 A    
C54   H45   1.108606 S    
