data_mof_unit_37230.cif
_audit_creation_date              2012-12-10T19:09:27-0500
_audit_creation_method            fapswitch 2.2
_symmetry_space_group_name_H-M    P1
_symmetry_Int_Tables_number       1
_space_group_crystal_system       triclinic
_cell_length_a                    15.281594
_cell_length_b                    14.929919
_cell_length_c                    9.719394
_cell_angle_alpha                 90.084279
_cell_angle_beta                  90.089543
_cell_angle_gamma                 90.041185
_cell_volume                      2217.50283287

loop_
_atom_site_label
_atom_site_type_symbol
_atom_type_description
_atom_site_fract_x
_atom_site_fract_y
_atom_site_fract_z
_atom_type_partial_charge
C1    C     C_R   0.124385 0.381931 0.500084 0.868233
C2    C     C_R   0.121002 0.621571 0.499946 0.853890
C3    C     C_R   0.624385 0.881931 0.500084 0.868238
C4    C     C_R   0.621001 0.121572 0.499946 0.853896
C5    C     C_3   0.908924 0.487861 0.080881 -0.227820
C6    C     C_3   0.908680 0.489842 0.918672 -0.225040
C7    C     C_3   0.408924 0.987860 0.080881 -0.227819
C8    C     C_3   0.408680 0.989841 0.918672 -0.225038
C9    C     C_R   0.879779 0.377995 0.499532 0.906064
C10   C     C_R   0.882657 0.624548 0.500086 0.899099
C11   C     C_R   0.379780 0.877994 0.499532 0.906064
C12   C     C_R   0.382657 0.124548 0.500087 0.899101
C13   C     C_3   0.843717 0.226224 0.575915 -0.442928
C14   C     C_3   0.788446 0.283829 0.348440 -0.458757
C15   C     C_3   0.827036 0.754646 0.373252 -0.443278
C16   C     C_3   0.824526 0.752162 0.631440 -0.422176
C17   C     C_3   0.343715 0.726226 0.575926 -0.442926
C18   C     C_3   0.288453 0.783822 0.348441 -0.458748
C19   C     C_3   0.327037 0.254647 0.373254 -0.443276
C20   C     C_3   0.324525 0.252161 0.631441 -0.422176
C21   C     C_3   0.272884 0.652959 0.571268 0.172970
C22   C     C_3   0.214442 0.715200 0.347926 0.170272
C23   C     C_3   0.258152 0.329232 0.376154 0.122299
C24   C     C_3   0.252098 0.323216 0.633649 0.188227
C25   C     C_3   0.772886 0.152957 0.571256 0.172967
C26   C     C_3   0.714435 0.215208 0.347926 0.170274
C27   C     C_3   0.758151 0.829232 0.376153 0.122299
C28   C     C_3   0.752099 0.823217 0.633648 0.188227
C29   C     C_3   0.729371 0.349268 0.568987 -0.413294
C30   C     C_3   0.725871 0.646936 0.496632 -0.430183
C31   C     C_3   0.229370 0.849269 0.568975 -0.413294
C32   C     C_3   0.225870 0.146936 0.496630 -0.430185
C33   C     C_3   0.811612 0.310380 0.498288 -0.055114
C34   C     C_3   0.816180 0.693604 0.500380 -0.073309
C35   C     C_3   0.311613 0.810379 0.498288 -0.055119
C36   C     C_3   0.316180 0.193604 0.500380 -0.073309
C37   C     C_3   0.188875 0.690915 0.499829 0.036727
C38   C     C_3   0.193884 0.313845 0.500558 -0.009634
C39   C     C_3   0.688874 0.190916 0.499829 0.036724
C40   C     C_3   0.693884 0.813846 0.500558 -0.009634
C41   C     C_3   0.156418 0.777741 0.576582 0.848816
C42   C     C_3   0.151599 0.217482 0.495528 0.844862
C43   C     C_3   0.656420 0.277739 0.576594 0.848819
C44   C     C_3   0.651599 0.717482 0.495530 0.844861
C45   C     C_3   0.053393 0.426397 0.081542 0.242355
C46   C     C_3   0.051858 0.425211 0.918081 0.237714
C47   C     C_3   0.034628 0.585201 0.918411 0.229393
C48   C     C_3   0.032855 0.585964 0.082231 0.241715
C49   C     C_3   0.553393 0.926397 0.081542 0.242358
C50   C     C_3   0.551859 0.925211 0.918081 0.237711
C51   C     C_3   0.534627 0.085201 0.918411 0.229392
C52   C     C_3   0.532854 0.085964 0.082231 0.241715
H1    H     H_    0.904335 0.200069 0.527103 0.173176
H2    H     H_    0.846773 0.254696 0.296288 0.199907
H3    H     H_    0.893689 0.784835 0.371754 0.195054
H4    H     H_    0.889478 0.785747 0.634552 0.157809
H5    H     H_    0.404334 0.700069 0.527122 0.173173
H6    H     H_    0.346782 0.754687 0.296297 0.199906
H7    H     H_    0.393690 0.284836 0.371757 0.195057
H8    H     H_    0.389477 0.285746 0.634554 0.157810
H9    H     H_    0.297486 0.595460 0.508556 0.057607
H10   H     H_    0.237999 0.653441 0.294502 0.089104
H11   H     H_    0.291905 0.394896 0.391766 0.093099
H12   H     H_    0.282657 0.391234 0.634368 0.073623
H13   H     H_    0.797486 0.095460 0.508536 0.057610
H14   H     H_    0.737990 0.153451 0.294493 0.089108
H15   H     H_    0.791905 0.894895 0.391763 0.093100
H16   H     H_    0.782658 0.891235 0.634365 0.073625
H17   H     H_    0.746269 0.373446 0.674235 0.161365
H18   H     H_    0.706194 0.408970 0.510708 0.178472
H19   H     H_    0.721576 0.601808 0.405524 0.139587
H20   H     H_    0.719448 0.602492 0.588150 0.194769
H21   H     H_    0.246264 0.873452 0.674222 0.161365
H22   H     H_    0.206194 0.908970 0.510690 0.178472
H23   H     H_    0.221576 0.101808 0.405521 0.139588
H24   H     H_    0.219447 0.102492 0.588147 0.194769
H25   H     H_    0.122149 0.438093 0.114957 0.074466
H26   H     H_    0.120264 0.433803 0.881346 0.083483
H27   H     H_    0.104123 0.591785 0.884851 0.119066
H28   H     H_    0.101319 0.595244 0.119403 0.056049
H29   H     H_    0.622150 0.938094 0.114957 0.074465
H30   H     H_    0.620265 0.933804 0.881346 0.083486
H31   H     H_    0.604122 0.091786 0.884851 0.119068
H32   H     H_    0.601318 0.095245 0.119404 0.056046
H33   H     H_    0.880568 0.423399 0.116577 0.189311
H34   H     H_    0.877771 0.427533 0.878978 0.193335
H35   H     H_    0.866030 0.545253 0.882123 0.190938
H36   H     H_    0.864367 0.540551 0.121087 0.188220
H37   H     H_    0.380569 0.923398 0.116577 0.189311
H38   H     H_    0.377772 0.927532 0.878978 0.193336
H39   H     H_    0.366029 0.045251 0.882123 0.190938
H40   H     H_    0.364366 0.040550 0.121087 0.188221
N1    N     N_3   0.998760 0.500000 0.138610 -0.083007
N2    N     N_3   0.998760 0.500000 0.861390 -0.085996
N3    N     N_3   0.498760 0.000000 0.138610 -0.083007
N4    N     N_3   0.498760 0.000000 0.861390 -0.085996
O1    O     O_R   0.092530 0.407440 0.616040 -0.570435
O2    O     O_R   0.092530 0.407440 0.383960 -0.535710
O3    O     O_R   0.092530 0.592560 0.383960 -0.613665
O4    O     O_R   0.092530 0.592560 0.616040 -0.547552
O5    O     O_R   0.592530 0.907440 0.616040 -0.570434
O6    O     O_R   0.592530 0.907440 0.383960 -0.535709
O7    O     O_R   0.592530 0.092560 0.383960 -0.613672
O8    O     O_R   0.592530 0.092560 0.616040 -0.547554
O9    O     O_R   0.907330 0.407420 0.616040 -0.614868
O10   O     O_R   0.907330 0.407420 0.383960 -0.602558
O11   O     O_R   0.907330 0.592580 0.383960 -0.589872
O12   O     O_R   0.907330 0.592580 0.616040 -0.600627
O13   O     O_R   0.407330 0.907420 0.616040 -0.614870
O14   O     O_R   0.407330 0.907420 0.383960 -0.602560
O15   O     O_R   0.407330 0.092580 0.383960 -0.589870
O16   O     O_R   0.407330 0.092580 0.616040 -0.600629
Zn1   Zn    Zn3+2 0.999890 0.500000 0.654960 1.014148
Zn2   Zn    Zn3+2 0.999890 0.500000 0.345040 1.012064
Zn3   Zn    Zn3+2 0.499890 0.000000 0.654960 1.014148
Zn4   Zn    Zn3+2 0.499890 0.000000 0.345040 1.012064
H41   H     H_    0.859954 0.243705 0.684461 0.246021
H42   H     H_    0.768683 0.344314 0.288917 0.213351
H43   H     H_    0.819831 0.714395 0.277249 0.248152
H44   H     H_    0.819972 0.709643 0.725277 0.251665
H45   H     H_    0.359948 0.743711 0.684472 0.246021
H46   H     H_    0.268692 0.844304 0.288910 0.213355
H47   H     H_    0.319833 0.214396 0.277249 0.248154
H48   H     H_    0.319971 0.209641 0.725277 0.251665
O17   O     O_3   0.255237 0.622518 0.705346 -0.714006
H49   H     H_    0.304912 0.583502 0.732577 0.326475
O18   O     O_3   0.142440 0.749854 0.275362 -0.706436
H50   H     H_    0.159811 0.752046 0.176970 0.319024
O19   O     O_3   0.214960 0.331492 0.248772 -0.775878
H51   H     H_    0.256955 0.356537 0.181017 0.327693
O20   O     O_3   0.203187 0.312819 0.754613 -0.723387
H52   H     H_    0.240622 0.334000 0.831763 0.317979
O21   O     O_3   0.755244 0.122509 0.705333 -0.714004
H53   H     H_    0.804921 0.083493 0.732555 0.326477
O22   O     O_3   0.642430 0.249863 0.275372 -0.706435
H54   H     H_    0.659797 0.252062 0.176979 0.319022
O23   O     O_3   0.714958 0.831491 0.248771 -0.775877
H55   H     H_    0.756953 0.856536 0.181015 0.327693
O24   O     O_3   0.703189 0.812821 0.754613 -0.723391
H56   H     H_    0.740624 0.834003 0.831762 0.317980
O25   O     O_3   0.139074 0.758632 0.715797 -0.760234
H57   H     H_    0.112763 0.813273 0.756954 0.313877
O26   O     O_3   0.080255 0.812180 0.513740 -0.760929
H58   H     H_    0.031245 0.771207 0.536235 0.321076
O27   O     O_3   0.097476 0.206944 0.378372 -0.767559
H59   H     H_    0.134453 0.195789 0.296491 0.354814
O28   O     O_3   0.099914 0.202706 0.613339 -0.714546
H60   H     H_    0.045297 0.237887 0.603267 0.351979
O29   O     O_3   0.639082 0.258624 0.715809 -0.760233
H61   H     H_    0.612775 0.313265 0.756977 0.313872
O30   O     O_3   0.580254 0.312180 0.513763 -0.760930
H62   H     H_    0.531245 0.271206 0.536259 0.321078
O31   O     O_3   0.597475 0.706944 0.378375 -0.767559
H63   H     H_    0.634452 0.695788 0.296493 0.354815
O32   O     O_3   0.599915 0.702707 0.613342 -0.714547
H64   H     H_    0.545297 0.737887 0.603270 0.351979
O33   O     O_3   0.024743 0.344119 0.135875 -0.665922
H65   H     H_    0.072326 0.300119 0.120762 0.366126
O34   O     O_3   0.019071 0.343413 0.867132 -0.685903
H66   H     H_    0.064219 0.297091 0.883978 0.377610
O35   O     O_3   0.987364 0.657713 0.863657 -0.704529
H67   H     H_    0.021490 0.712669 0.883395 0.340699
O36   O     O_3   0.981705 0.657084 0.132983 -0.696093
H68   H     H_    0.014783 0.713238 0.117746 0.347410
O37   O     O_3   0.524745 0.844119 0.135875 -0.665920
H69   H     H_    0.572327 0.800119 0.120759 0.366127
O38   O     O_3   0.519073 0.843413 0.867132 -0.685909
H70   H     H_    0.564222 0.797093 0.883973 0.377613
O39   O     O_3   0.487362 0.157713 0.863657 -0.704534
H71   H     H_    0.521487 0.212669 0.883393 0.340693
O40   O     O_3   0.481703 0.157084 0.132983 -0.696094
H72   H     H_    0.514779 0.213239 0.117744 0.347404

loop_
_geom_bond_atom_site_label_1
_geom_bond_atom_site_label_2
_ccdc_geom_bond_type
C16   C28   S    
O40   H72   S    
O37   H69   S    
O14   Zn4   S    
C11   O13   A    
O39   H71   S    
C20   C36   S    
C10   O12   A    
O36   H68   S    
C8    N4    S    
C47   H27   S    
C13   C25   S    
C14   C33   S    
C30   H19   S    
O22   H54   S    
C48   O36   S    
C45   C46   S    
C41   O25   S    
C19   H47   S    
O33   H65   S    
O10   Zn2   S    
C24   O20   S    
C44   O31   S    
C32   C36   S    
O9    Zn1   S    
C28   H16   S    
C41   O26   S    
C19   C36   S    
C16   H44   S    
O27   H59   S    
C5    C6    S    
C26   C39   S    
O2    Zn2   S    
C28   C40   S    
C9    O9    A    
O26   H58   S    
C7    H37   S    
C4    O7    A    
C29   C33   S    
C23   O19   S    
C52   N3    S    
C49   H29   S    
C52   H32   S    
C26   O22   S    
C16   C34   S    
C5    H36   S    
C18   H6    S    
O28   H60   S    
C6    N2    S    
C32   H24   S    
C24   C38   S    
O30   H62   S    
N4    Zn3   S    
O15   Zn4   S    
C12   C36   S    
C25   O21   S    
C18   C35   S    
C27   C40   S    
C15   C34   S    
C21   H9    S    
C43   O29   S    
C51   N4    S    
C5    H33   S    
C3    O5    A    
C23   H11   S    
C2    O4    A    
C24   H12   S    
C29   C43   S    
C11   O14   A    
C9    C33   S    
C30   C44   S    
C10   O11   A    
C28   O24   S    
O3    Zn2   S    
C42   O28   S    
C52   O40   S    
N2    Zn1   S    
O35   H67   S    
C29   H17   S    
C48   N1    S    
C30   C34   S    
C51   C52   S    
C26   H14   S    
C47   C48   S    
C20   C24   S    
C13   H41   S    
C51   O39   S    
C45   O33   S    
C7    C8    S    
C1    O1    A    
O38   H70   S    
C46   H26   S    
C31   H22   S    
C39   C43   S    
C19   H7    S    
C9    O10   A    
C22   C37   S    
C14   C26   S    
C6    H35   S    
C15   H3    S    
O12   Zn1   S    
C19   C23   S    
C16   H4    S    
O11   Zn2   S    
C13   C33   S    
C32   H23   S    
C22   H10   S    
O8    Zn3   S    
C15   C27   S    
O34   H66   S    
C46   N2    S    
C4    C39   S    
N3    Zn4   S    
C25   H13   S    
C10   C34   S    
C27   H15   S    
C27   O23   S    
C49   N3    S    
C50   O38   S    
C1    C38   S    
C18   H46   S    
C3    O6    A    
C17   H45   S    
C14   H2    S    
C31   H21   S    
C45   N1    S    
C8    H39   S    
O21   H53   S    
O5    Zn3   S    
C31   C35   S    
C20   H8    S    
O1    Zn1   S    
O20   H52   S    
C51   H31   S    
C12   O16   A    
C43   O30   S    
C50   H30   S    
C14   H42   S    
C29   H18   S    
C31   C41   S    
C3    C40   S    
C18   C22   S    
C44   O32   S    
C49   O37   S    
O4    Zn1   S    
C30   H20   S    
C1    O2    A    
C2    O3    A    
C8    H38   S    
C5    N1    S    
O24   H56   S    
C38   C42   S    
C23   C38   S    
C7    N3    S    
O23   H55   S    
C6    H34   S    
C48   H28   S    
C11   C35   S    
O7    Zn4   S    
O19   H51   S    
O25   H57   S    
C25   C39   S    
C2    C37   S    
C50   N4    S    
C22   O18   S    
O17   H49   S    
C46   O34   S    
C4    O8    A    
C47   N2    S    
C15   H43   S    
N1    Zn2   S    
O16   Zn3   S    
C37   C41   S    
C17   C21   S    
C20   H48   S    
O6    Zn4   S    
C13   H1    S    
O13   Zn3   S    
C47   O35   S    
C40   C44   S    
C21   C37   S    
C49   C50   S    
C7    H40   S    
O32   H64   S    
C32   C42   S    
C45   H25   S    
C17   C35   S    
O31   H63   S    
O29   H61   S    
C42   O27   S    
C21   O17   S    
C12   O15   A    
O18   H50   S    
C17   H5    S    
