data_mof_unit_48653.cif
_audit_creation_date              2013-03-05T15:50:20-0500
_audit_creation_method            fapswitch 2.2
_symmetry_space_group_name_H-M    P1
_symmetry_Int_Tables_number       1
_space_group_crystal_system       triclinic
_cell_length_a                    18.349482
_cell_length_b                    26.16305
_cell_length_c                    18.443731
_cell_angle_alpha                 91.809798
_cell_angle_beta                  89.533287
_cell_angle_gamma                 89.389068
_cell_volume                      8849.19850829

loop_
_atom_site_label
_atom_site_type_symbol
_atom_site_description
_atom_site_fract_x
_atom_site_fract_y
_atom_site_fract_z
_atom_type_partial_charge
Zn1   Zn    Zn3+2 0.249990 0.293780 0.913250 1.207788
Zn2   Zn    Zn3+2 0.249990 0.706220 0.086750 1.205096
Zn3   Zn    Zn3+2 0.249990 0.706220 0.913250 1.237840
Zn4   Zn    Zn3+2 0.249990 0.293780 0.086750 1.176275
Zn5   Zn    Zn3+2 0.749990 0.793780 0.413250 1.188387
Zn6   Zn    Zn3+2 0.749990 0.206220 0.586750 1.187943
Zn7   Zn    Zn3+2 0.749990 0.206220 0.413250 1.211315
Zn8   Zn    Zn3+2 0.749990 0.793780 0.586750 1.212024
Zn9   Zn    Zn3+2 0.336760 0.206240 0.000000 1.194326
Zn10  Zn    Zn3+2 0.336760 0.793760 0.000000 1.126626
Zn11  Zn    Zn3+2 0.836760 0.706240 0.500000 1.154255
Zn12  Zn    Zn3+2 0.836760 0.293760 0.500000 1.152563
Zn13  Zn    Zn3+2 0.163250 0.206230 0.000000 1.146905
Zn14  Zn    Zn3+2 0.163250 0.793770 0.000000 1.194043
Zn15  Zn    Zn3+2 0.663250 0.706230 0.500000 1.185882
Zn16  Zn    Zn3+2 0.663250 0.293770 0.500000 1.209154
O1    O     O_3   0.249990 0.250010 0.000000 -0.579925
O2    O     O_3   0.249990 0.749990 0.000000 -0.577751
O3    O     O_3   0.749990 0.750010 0.500000 -0.580475
O4    O     O_3   0.749990 0.249990 0.500000 -0.580407
O5    O     O_R   0.335430 0.280650 0.146160 -0.608909
O6    O     O_R   0.335430 0.719350 0.853840 -0.569972
O7    O     O_R   0.335430 0.719350 0.146160 -0.566095
O8    O     O_R   0.335430 0.280650 0.853840 -0.557449
O9    O     O_R   0.835430 0.780650 0.646160 -0.552695
O10   O     O_R   0.835430 0.219350 0.353840 -0.582089
O11   O     O_R   0.835430 0.219350 0.646160 -0.602669
O12   O     O_R   0.835430 0.780650 0.353840 -0.583901
O13   O     O_R   0.164550 0.280640 0.853840 -0.565265
O14   O     O_R   0.164550 0.719360 0.146160 -0.590237
O15   O     O_R   0.164550 0.719360 0.853840 -0.546002
O16   O     O_R   0.164550 0.280640 0.146160 -0.612606
O17   O     O_R   0.664550 0.780640 0.353840 -0.601772
O18   O     O_R   0.664550 0.219360 0.646160 -0.586668
O19   O     O_R   0.664550 0.219360 0.353840 -0.597425
O20   O     O_R   0.664550 0.780640 0.646160 -0.596902
O21   O     O_R   0.396160 0.219380 0.914560 -0.562554
O22   O     O_R   0.396160 0.780620 0.085440 -0.617234
O23   O     O_R   0.396160 0.780620 0.914560 -0.613678
O24   O     O_R   0.396160 0.219380 0.085440 -0.587518
O25   O     O_R   0.896160 0.719380 0.414560 -0.586393
O26   O     O_R   0.896160 0.280620 0.585440 -0.571850
O27   O     O_R   0.896160 0.280620 0.414560 -0.615929
O28   O     O_R   0.896160 0.719380 0.585440 -0.616262
O29   O     O_R   0.103840 0.219370 0.085450 -0.617080
O30   O     O_R   0.103840 0.780630 0.914550 -0.584703
O31   O     O_R   0.103840 0.780630 0.085450 -0.575230
O32   O     O_R   0.103840 0.219370 0.914550 -0.593352
O33   O     O_R   0.603840 0.719370 0.585450 -0.596829
O34   O     O_R   0.603840 0.280630 0.414550 -0.598880
O35   O     O_R   0.603840 0.280630 0.585450 -0.567345
O36   O     O_R   0.603840 0.719370 0.414550 -0.571241
O37   O     O_R   0.310730 0.133160 0.000000 -0.555041
O38   O     O_R   0.310730 0.866840 0.000000 -0.598558
O39   O     O_R   0.810730 0.633160 0.500000 -0.604069
O40   O     O_R   0.810730 0.366840 0.500000 -0.601414
O41   O     O_R   0.249970 0.366860 0.060720 -0.543201
O42   O     O_R   0.249970 0.633140 0.939280 -0.562580
O43   O     O_R   0.249970 0.633140 0.060720 -0.557459
O44   O     O_R   0.249970 0.366860 0.939280 -0.574583
O45   O     O_R   0.749970 0.866860 0.560720 -0.545644
O46   O     O_R   0.749970 0.133140 0.439280 -0.552953
O47   O     O_R   0.749970 0.133140 0.560720 -0.562022
O48   O     O_R   0.749970 0.866860 0.439280 -0.574926
O49   O     O_R   0.189290 0.133150 0.000000 -0.585937
O50   O     O_R   0.189290 0.866850 0.000000 -0.572309
O51   O     O_R   0.689290 0.633150 0.500000 -0.538058
O52   O     O_R   0.689290 0.366850 0.500000 -0.554262
C1    C     C_R   0.394384 0.253779 0.135350 0.910440
C2    C     C_R   0.391348 0.747406 0.860003 0.925839
C3    C     C_R   0.390681 0.748961 0.138759 0.921925
C4    C     C_R   0.390619 0.248426 0.860737 0.907249
C5    C     C_R   0.889803 0.750766 0.640325 0.926866
C6    C     C_R   0.892434 0.246757 0.361445 0.895756
C7    C     C_R   0.890583 0.249579 0.639244 0.933385
C8    C     C_R   0.889635 0.749440 0.360593 0.933295
C9    C     C_R   0.111949 0.247112 0.858213 0.882746
C10   C     C_R   0.108842 0.749865 0.138923 0.870613
C11   C     C_R   0.110495 0.749896 0.858731 0.878225
C12   C     C_R   0.108791 0.252985 0.139677 0.838597
C13   C     C_R   0.613165 0.747240 0.357010 0.884712
C14   C     C_R   0.610233 0.251991 0.640449 0.874190
C15   C     C_R   0.608877 0.248502 0.359675 0.910815
C16   C     C_R   0.608453 0.753297 0.639086 0.894240
C17   C     C_R   0.250852 0.109240 0.002384 0.906024
C18   C     C_R   0.249186 0.891023 0.000756 0.908114
C19   C     C_R   0.750695 0.609028 0.500759 0.905266
C20   C     C_R   0.749823 0.390790 0.502331 0.917581
C21   C     C_R   0.241044 0.390608 0.000223 1.036055
C22   C     C_R   0.250523 0.608644 0.999163 1.056845
C23   C     C_R   0.749232 0.891157 0.500551 1.053420
C24   C     C_R   0.745724 0.108996 0.499192 1.087297
C25   C     C_3   0.158883 0.471251 0.035290 0.224279
C26   C     C_3   0.241005 0.529309 0.913421 0.212550
C27   C     C_3   0.169750 0.533835 0.044476 0.206472
C28   C     C_3   0.242249 0.467268 0.913215 0.230520
C29   C     C_3   0.664979 0.968446 0.471568 0.222477
C30   C     C_3   0.802344 0.028329 0.435308 0.218147
C31   C     C_3   0.659214 0.030998 0.486092 0.227174
C32   C     C_3   0.814238 0.967975 0.450001 0.179167
C33   C     C_3   0.303304 0.468112 0.045337 0.499140
C34   C     C_3   0.313301 0.527414 0.038382 0.500645
C35   C     C_3   0.756997 0.972473 0.581058 0.492378
C36   C     C_3   0.767239 0.032028 0.577679 0.479015
C37   C     C_3   0.235159 0.448466 0.998928 -0.555228
C38   C     C_3   0.243604 0.550752 0.997935 -0.555879
C39   C     C_3   0.745656 0.948905 0.500002 -0.546364
C40   C     C_3   0.743379 0.051271 0.497652 -0.541609
C41   C     C_R   0.150246 0.223804 0.698008 0.179214
C42   C     C_R   0.144628 0.743290 0.292375 0.116935
C43   C     C_R   0.138432 0.778374 0.708691 0.140553
C44   C     C_R   0.130336 0.304955 0.291222 0.143880
C45   C     C_R   0.593070 0.829253 0.242258 0.201604
C46   C     C_R   0.494045 0.176103 0.647136 0.146270
C47   C     C_R   0.618616 0.176025 0.225449 0.199029
C48   C     C_R   0.622226 0.810873 0.787999 0.163215
C49   C     C_R   0.160831 0.191492 0.636405 0.313020
C50   C     C_R   0.168067 0.775746 0.348816 0.285649
C51   C     C_R   0.145993 0.817188 0.658548 0.281101
C52   C     C_R   0.156411 0.304270 0.362695 0.266919
C53   C     C_R   0.562922 0.877024 0.223547 0.290031
C54   C     C_R   0.462238 0.128892 0.661478 0.349345
C55   C     C_R   0.603968 0.134793 0.177430 0.271379
C56   C     C_R   0.646347 0.812374 0.860454 0.252994
C57   C     C_R   0.487059 0.882874 0.219210 0.311179
C58   C     C_R   0.449503 0.115664 0.733046 0.308607
C59   C     C_R   0.565075 0.145136 0.115066 0.312497
C60   C     C_R   0.612369 0.782147 0.911581 0.333160
C61   C     C_R   0.100773 0.169989 0.601580 0.363090
C62   C     C_R   0.115973 0.800542 0.393193 0.333547
C63   C     C_R   0.084064 0.843602 0.636894 0.342478
C64   C     C_R   0.119039 0.277243 0.414961 0.325140
C65   C     C_R   0.443312 0.839223 0.218047 0.280807
C66   C     C_R   0.455382 0.153115 0.788820 0.288295
C67   C     C_R   0.532216 0.193168 0.110095 0.324161
C68   C     C_R   0.550017 0.754755 0.892312 0.287168
C69   C     C_R   0.030227 0.187398 0.620310 0.285618
C70   C     C_R   0.041575 0.788539 0.385655 0.244955
C71   C     C_R   0.015423 0.822047 0.648325 0.256219
C72   C     C_R   0.052824 0.254188 0.397232 0.279946
C73   C     C_R   0.476609 0.790366 0.224332 -0.105639
C74   C     C_R   0.474055 0.204222 0.771464 -0.089003
C75   C     C_R   0.518172 0.222998 0.174700 -0.097286
C76   C     C_R   0.521066 0.757523 0.821687 -0.117983
C77   C     C_R   0.019657 0.226263 0.674641 -0.108590
C78   C     C_R   0.018295 0.761061 0.321876 -0.091064
C79   C     C_R   0.007853 0.778559 0.691637 -0.128977
C80   C     C_R   0.024724 0.256446 0.326439 -0.088754
C81   C     C_R   0.077948 0.234762 0.723663 -0.102034
C82   C     C_R   0.071487 0.748417 0.269254 -0.088940
C83   C     C_R   0.067564 0.765434 0.734032 -0.127916
C84   C     C_R   0.070072 0.273978 0.270410 -0.124453
C85   C     C_R   0.545208 0.788034 0.256019 -0.117627
C86   C     C_R   0.508698 0.211400 0.704823 -0.140203
C87   C     C_R   0.565227 0.216096 0.234202 -0.087512
C88   C     C_R   0.565256 0.777030 0.766744 -0.089816
C89   C     C_R   0.450054 0.744851 0.191681 0.032426
C90   C     C_R   0.456019 0.248669 0.814267 0.044915
C91   C     C_R   0.460825 0.259766 0.180610 0.016588
C92   C     C_R   0.450582 0.739913 0.804172 0.023076
C93   C     C_R   0.949122 0.246350 0.693986 0.009001
C94   C     C_R   0.945218 0.748267 0.304576 0.039742
C95   C     C_R   0.941579 0.751840 0.700198 0.025643
C96   C     C_R   0.954703 0.238048 0.309380 0.037709
C97   C     C_R   0.487328 0.697054 0.204015 -0.084717
C98   C     C_R   0.496749 0.294147 0.807071 -0.089494
C99   C     C_R   0.461565 0.295972 0.238355 -0.123811
C100  C     C_R   0.434062 0.727610 0.729621 -0.086797
C101  C     C_R   0.930993 0.248094 0.768890 -0.097068
C102  C     C_R   0.925106 0.739197 0.230871 -0.100313
C103  C     C_R   0.925750 0.727518 0.766672 -0.087390
C104  C     C_R   0.940688 0.222707 0.236952 -0.150615
C105  C     C_R   0.983940 0.229424 0.816238 -0.099882
C106  C     C_R   0.975563 0.753499 0.177438 -0.109795
C107  C     C_R   0.982800 0.724567 0.818495 -0.089685
C108  C     C_R   0.980808 0.244452 0.181278 -0.144021
C109  C     C_R   0.537425 0.694890 0.263430 -0.103818
C110  C     C_R   0.542716 0.298880 0.744811 -0.108794
C111  C     C_R   0.495844 0.283476 0.302482 -0.118881
C112  C     C_R   0.478302 0.747958 0.675274 -0.146137
C113  C     C_R   0.058279 0.239790 0.798787 0.007687
C114  C     C_R   0.051305 0.750719 0.195148 0.010693
C115  C     C_R   0.053415 0.744831 0.802535 0.021767
C116  C     C_R   0.051456 0.261230 0.196581 0.039748
C117  C     C_R   0.564370 0.742585 0.292666 0.032314
C118  C     C_R   0.551256 0.255469 0.695581 0.019500
C119  C     C_R   0.554829 0.247643 0.299468 0.011548
C120  C     C_R   0.549029 0.763186 0.693245 0.033520
C121  C     C_R   0.480633 0.652389 0.157466 0.283963
C122  C     C_R   0.496833 0.333675 0.862622 0.255119
C123  C     C_R   0.434840 0.346091 0.232658 0.316659
C124  C     C_R   0.380141 0.692514 0.705466 0.354971
C125  C     C_R   0.858458 0.252617 0.794608 0.286074
C126  C     C_R   0.856544 0.719461 0.207344 0.282811
C127  C     C_R   0.855182 0.707485 0.785410 0.222333
C128  C     C_R   0.892968 0.183170 0.216814 0.342549
C129  C     C_R   0.516575 0.606592 0.174036 0.363196
C130  C     C_R   0.533758 0.379377 0.851795 0.360273
C131  C     C_R   0.424585 0.377566 0.295131 0.329848
C132  C     C_R   0.358737 0.690266 0.632275 0.298154
C133  C     C_R   0.834678 0.219077 0.847272 0.341974
C134  C     C_R   0.836598 0.722729 0.134267 0.398281
C135  C     C_R   0.842543 0.688208 0.854503 0.369596
C136  C     C_R   0.864535 0.181814 0.146209 0.322509
C137  C     C_R   0.885015 0.185051 0.877325 0.279116
C138  C     C_R   0.877815 0.752639 0.088285 0.258340
C139  C     C_R   0.900421 0.680464 0.900832 0.286112
C140  C     C_R   0.884443 0.220054 0.098579 0.276143
C141  C     C_R   0.552582 0.602301 0.239108 0.283114
C142  C     C_R   0.569082 0.387139 0.786333 0.285221
C143  C     C_R   0.435981 0.356939 0.363288 0.279645
C144  C     C_R   0.390789 0.722564 0.582638 0.290178
C145  C     C_R   0.960541 0.191085 0.864562 0.200839
C146  C     C_R   0.946987 0.769586 0.110115 0.166946
C147  C     C_R   0.969663 0.697565 0.882675 0.164703
C148  C     C_R   0.947914 0.248350 0.112453 0.185644
C149  C     C_R   0.564221 0.645461 0.283532 0.189198
C150  C     C_R   0.575868 0.347449 0.733941 0.188882
C151  C     C_R   0.469440 0.308329 0.367018 0.170561
C152  C     C_R   0.451625 0.751377 0.603526 0.177863
C153  C     C_R   0.281256 0.051527 0.132340 0.172369
C154  C     C_R   0.222345 0.953314 0.131326 0.159230
C155  C     C_R   0.804927 0.543400 0.378272 0.169818
C156  C     C_R   0.736609 0.448137 0.367627 0.182133
C157  C     C_R   0.271869 0.026213 0.197897 0.161667
C158  C     C_R   0.238667 0.978319 0.197679 0.166448
C159  C     C_R   0.795605 0.519168 0.309691 0.157282
C160  C     C_R   0.757163 0.473026 0.303962 0.161539
C161  C     C_R   0.242380 0.975422 0.064215 -0.096992
C162  C     C_R   0.260714 0.027422 0.064689 -0.106039
C163  C     C_R   0.748954 0.472175 0.436990 -0.101290
C164  C     C_R   0.768659 0.523791 0.439515 -0.076417
C165  C     C_R   0.245872 0.946871 0.997335 0.005831
C166  C     C_R   0.254545 0.053660 0.998497 0.007520
C167  C     C_R   0.750292 0.446392 0.503660 0.005483
C168  C     C_R   0.752892 0.553151 0.503975 0.016235
C169  C     C_R   0.249114 0.971866 0.929160 -0.091780
C170  C     C_R   0.248835 0.026695 0.929922 -0.086521
C171  C     C_R   0.758489 0.474731 0.570674 -0.105069
C172  C     C_R   0.743006 0.527940 0.570787 -0.110300
C173  C     C_R   0.250550 0.944527 0.860024 0.222562
C174  C     C_R   0.244957 0.052261 0.861690 0.257844
C175  C     C_R   0.781010 0.453096 0.637272 0.287258
C176  C     C_R   0.724879 0.553327 0.638423 0.244773
C177  C     C_R   0.247770 0.971132 0.795257 0.326419
C178  C     C_R   0.242149 0.024029 0.796134 0.338668
C179  C     C_R   0.771269 0.480749 0.703063 0.317139
C180  C     C_R   0.739016 0.529246 0.703819 0.318184
N1    N     N_R   0.138326 0.451203 0.107035 0.286665
O53   O     O_R   0.084972 0.474358 0.142238 -0.174882
O54   O     O_R   0.142847 0.402615 0.117515 -0.251758
N2    N     N_R   0.302139 0.545524 0.865153 0.286927
O55   O     O_R   0.302479 0.529255 0.797558 -0.171598
O56   O     O_R   0.346025 0.582657 0.881096 -0.233497
N3    N     N_R   0.177798 0.552409 0.122238 0.260878
O57   O     O_R   0.151364 0.597157 0.142156 -0.213727
O58   O     O_R   0.199114 0.524080 0.174725 -0.193332
N4    N     N_R   0.311099 0.445379 0.878615 0.244344
O59   O     O_R   0.307044 0.409300 0.828399 -0.226682
O60   O     O_R   0.374637 0.466207 0.886288 -0.239880
N5    N     N_R   0.602646 0.942899 0.507667 0.279264
O61   O     O_R   0.536764 0.955824 0.489122 -0.158540
O62   O     O_R   0.609662 0.897652 0.534142 -0.300757
N6    N     N_R   0.874305 0.054596 0.435715 0.277414
O63   O     O_R   0.925581 0.037487 0.391691 -0.162916
O64   O     O_R   0.883374 0.100262 0.463564 -0.285751
N7    N     N_R   0.616328 0.047712 0.552213 0.240397
O65   O     O_R   0.608026 0.096527 0.565947 -0.323008
O66   O     O_R   0.575546 0.018028 0.589930 -0.191775
N8    N     N_R   0.881980 0.955081 0.490562 0.250282
O67   O     O_R   0.897986 0.906913 0.495977 -0.254043
O68   O     O_R   0.933853 0.986714 0.506784 -0.152857
Cl1   Cl    Cl    0.436706 0.652311 0.072946 -0.430039
Cl2   Cl    Cl    0.460676 0.325646 0.950809 -0.435154
Cl3   Cl    Cl    0.438502 0.372982 0.147818 -0.313551
Cl4   Cl    Cl    0.357692 0.639817 0.756644 -0.286647
Cl5   Cl    Cl    0.797669 0.298932 0.761353 -0.401328
Cl6   Cl    Cl    0.795543 0.687793 0.264641 -0.440783
Cl7   Cl    Cl    0.779826 0.702169 0.726490 -0.523398
Cl8   Cl    Cl    0.888213 0.128976 0.271237 -0.301646
Cl9   Cl    Cl    0.740665 0.215002 0.867657 -0.297902
Cl10  Cl    Cl    0.756695 0.692911 0.101359 -0.230984
Cl11  Cl    Cl    0.753741 0.671639 0.883211 -0.266324
Cl12  Cl    Cl    0.806881 0.132313 0.115948 -0.253722
Cl13  Cl    Cl    0.522378 0.554172 0.111625 -0.176007
Cl14  Cl    Cl    0.538522 0.427289 0.921402 -0.166901
Cl15  Cl    Cl    0.397116 0.442036 0.288490 -0.214844
Cl16  Cl    Cl    0.293908 0.645144 0.601328 -0.259509
N9    N     N_R   0.009472 0.151156 0.886042 0.266013
O69   O     O_R   0.010053 0.136469 0.952811 -0.270964
O70   O     O_R   0.053350 0.129027 0.838641 -0.319882
N10   N     N_R   0.975518 0.814011 0.076834 0.275737
O71   O     O_R   0.982938 0.815771 0.006730 -0.265261
O72   O     O_R   0.988981 0.854571 0.116839 -0.230427
N11   N     N_R   0.028861 0.677190 0.921045 0.230409
O73   O     O_R   0.042730 0.693614 0.986782 -0.374746
O74   O     O_R   0.072764 0.645630 0.886268 -0.264343
N12   N     N_R   0.973406 0.284741 0.061368 0.247334
O75   O     O_R   0.972191 0.274088 0.992040 -0.344364
O76   O     O_R   0.996917 0.329165 0.083971 -0.267429
N13   N     N_R   0.604748 0.636830 0.347557 0.230950
O77   O     O_R   0.571234 0.617751 0.402817 -0.267844
O78   O     O_R   0.675296 0.632528 0.342961 -0.372332
N14   N     N_R   0.612293 0.359347 0.668174 0.221612
O79   O     O_R   0.577585 0.384890 0.619576 -0.264762
O80   O     O_R   0.682915 0.355985 0.664756 -0.365902
N15   N     N_R   0.461807 0.279042 0.430755 0.262779
O81   O     O_R   0.469738 0.299669 0.495281 -0.230828
O82   O     O_R   0.447721 0.230548 0.423271 -0.261439
N16   N     N_R   0.481669 0.788171 0.555547 0.236914
O83   O     O_R   0.492960 0.776886 0.487194 -0.312076
O84   O     O_R   0.495456 0.834170 0.580094 -0.236175
Cl17  Cl    Cl    0.232801 0.055292 0.712468 -0.276741
Cl18  Cl    Cl    0.252673 0.938180 0.710276 -0.249463
Cl19  Cl    Cl    0.718555 0.560594 0.787956 -0.232206
Cl20  Cl    Cl    0.798284 0.454082 0.785903 -0.235574
N17   N     N_R   0.316968 0.099911 0.135460 0.210364
O85   O     O_R   0.285123 0.139151 0.167783 -0.408450
O86   O     O_R   0.386074 0.101966 0.119584 -0.294994
N18   N     N_R   0.174261 0.910612 0.132377 0.222093
O87   O     O_R   0.191242 0.869775 0.167248 -0.351184
O88   O     O_R   0.108812 0.915753 0.106945 -0.244824
N19   N     N_R   0.864754 0.577783 0.389001 0.241130
O89   O     O_R   0.912230 0.568589 0.439151 -0.291453
O90   O     O_R   0.879007 0.612826 0.342817 -0.277520
N20   N     N_R   0.699930 0.400222 0.360589 0.209840
O91   O     O_R   0.629882 0.398669 0.371713 -0.302801
O92   O     O_R   0.733358 0.360654 0.330866 -0.391139
N21   N     N_R   0.292112 0.050892 0.265356 0.280168
O93   O     O_R   0.358122 0.067432 0.274619 -0.201979
O94   O     O_R   0.244299 0.057609 0.317381 -0.218987
N22   N     N_R   0.221601 0.954880 0.265041 0.287368
O95   O     O_R   0.154725 0.942918 0.280491 -0.212931
O96   O     O_R   0.272318 0.947719 0.312677 -0.176086
N23   N     N_R   0.825642 0.541042 0.245985 0.286103
O97   O     O_R   0.782522 0.559224 0.197208 -0.196531
O98   O     O_R   0.895233 0.537187 0.232563 -0.199913
N24   N     N_R   0.743622 0.449490 0.233872 0.280120
O99   O     O_R   0.679430 0.431782 0.218304 -0.192415
O100  O     O_R   0.795748 0.444603 0.185823 -0.216979
N25   N     N_R   0.097663 0.452291 0.988840 0.249827
O101  O     O_R   0.042320 0.480117 0.970481 -0.166984
O102  O     O_R   0.085670 0.403239 0.987692 -0.277294
N26   N     N_R   0.174741 0.551267 0.878393 0.253881
O103  O     O_R   0.110100 0.532765 0.886063 -0.247345
O104  O     O_R   0.181893 0.585972 0.829665 -0.180451
N27   N     N_R   0.102654 0.560531 0.022594 0.276178
O105  O     O_R   0.108419 0.606131 0.998981 -0.301775
O106  O     O_R   0.042778 0.552062 0.058653 -0.165083
N28   N     N_R   0.183007 0.448950 0.863321 0.267671
O107  O     O_R   0.151991 0.404967 0.869792 -0.257903
O108  O     O_R   0.181993 0.466536 0.797959 -0.193229
N29   N     N_R   0.655789 0.952146 0.394140 0.256292
O109  O     O_R   0.656944 0.983217 0.340691 -0.205811
O110  O     O_R   0.633874 0.905821 0.378998 -0.302425
N30   N     N_R   0.776418 0.035077 0.359348 0.263201
O111  O     O_R   0.726841 0.068371 0.343799 -0.222614
O112  O     O_R   0.817808 0.020185 0.304772 -0.152708
N31   N     N_R   0.617357 0.055533 0.427350 0.286614
O113  O     O_R   0.618919 0.104898 0.421003 -0.299533
O114  O     O_R   0.556877 0.034278 0.406432 -0.180867
N32   N     N_R   0.825648 0.939160 0.379145 0.259218
O115  O     O_R   0.773833 0.927314 0.334683 -0.207785
O116  O     O_R   0.891903 0.930971 0.355029 -0.193084
Cl21  Cl    Cl    0.255059 0.876907 0.847799 -0.530018
Cl22  Cl    Cl    0.246215 0.119529 0.850797 -0.506237
Cl23  Cl    Cl    0.835920 0.397372 0.641232 -0.408584
Cl24  Cl    Cl    0.675185 0.611458 0.645544 -0.437338
Cl25  Cl    Cl    0.296790 0.449943 0.138880 -0.262848
Cl26  Cl    Cl    0.398659 0.541711 0.996383 -0.239868
Cl27  Cl    Cl    0.333488 0.558330 0.125272 -0.315841
Cl28  Cl    Cl    0.385270 0.432837 0.021593 -0.281869
Cl29  Cl    Cl    0.684256 0.955136 0.640983 -0.254862
Cl30  Cl    Cl    0.858021 0.052052 0.598888 -0.286462
Cl31  Cl    Cl    0.724067 0.062449 0.658036 -0.288712
Cl32  Cl    Cl    0.828779 0.945196 0.633661 -0.244407
Cl33  Cl    Cl    0.852664 0.131849 0.924272 -0.261732
Cl34  Cl    Cl    0.837927 0.774288 0.007836 -0.349408
Cl35  Cl    Cl    0.888508 0.643141 0.978303 -0.293542
Cl36  Cl    Cl    0.824996 0.236766 0.028943 -0.338311
Cl37  Cl    Cl    0.588468 0.542128 0.263777 -0.328072
Cl38  Cl    Cl    0.605634 0.447783 0.769267 -0.330586
Cl39  Cl    Cl    0.408903 0.392252 0.442317 -0.241928
Cl40  Cl    Cl    0.356059 0.724814 0.493907 -0.285318
N33   N     N_R   0.212853 0.246179 0.730984 0.242539
O117  O     O_R   0.225866 0.294341 0.721744 -0.228095
O118  O     O_R   0.264266 0.216895 0.755274 -0.358870
N34   N     N_R   0.183718 0.696075 0.277429 0.273264
O119  O     O_R   0.147817 0.653601 0.270835 -0.225332
O120  O     O_R   0.254575 0.694219 0.275781 -0.245918
N35   N     N_R   0.200802 0.747931 0.725292 0.233027
O121  O     O_R   0.261062 0.769502 0.745746 -0.363568
O122  O     O_R   0.198262 0.698438 0.716773 -0.259359
N36   N     N_R   0.147400 0.348721 0.250290 0.282444
O123  O     O_R   0.214913 0.358497 0.234049 -0.233983
O124  O     O_R   0.099075 0.385415 0.249084 -0.223721
N37   N     N_R   0.669109 0.818874 0.228210 0.266732
O125  O     O_R   0.718810 0.851686 0.246700 -0.207091
O126  O     O_R   0.689100 0.775462 0.197780 -0.312276
N38   N     N_R   0.487221 0.194646 0.575885 0.248117
O127  O     O_R   0.423035 0.210380 0.556588 -0.190271
O128  O     O_R   0.536599 0.183647 0.526728 -0.314264
N39   N     N_R   0.694213 0.187264 0.232852 0.240535
O129  O     O_R   0.719211 0.231503 0.214682 -0.352009
O130  O     O_R   0.736854 0.154936 0.263988 -0.228887
N40   N     N_R   0.643350 0.851147 0.741556 0.270442
O131  O     O_R   0.711635 0.862966 0.733841 -0.208627
O132  O     O_R   0.594198 0.874045 0.703411 -0.231544
Cl41  Cl    Cl    0.249775 0.176021 0.604509 -0.260617
Cl42  Cl    Cl    0.261750 0.785329 0.364371 -0.265869
Cl43  Cl    Cl    0.231691 0.830660 0.619759 -0.271311
Cl44  Cl    Cl    0.233101 0.340680 0.388412 -0.325245
Cl45  Cl    Cl    0.618787 0.927995 0.197684 -0.212134
Cl46  Cl    Cl    0.435062 0.087612 0.589267 -0.183162
Cl47  Cl    Cl    0.650995 0.076018 0.184347 -0.190679
Cl48  Cl    Cl    0.716940 0.853686 0.888725 -0.265717
Cl49  Cl    Cl    0.447757 0.943902 0.206721 -0.347122
Cl50  Cl    Cl    0.424551 0.052455 0.752328 -0.324565
Cl51  Cl    Cl    0.566299 0.101644 0.040005 -0.236209
Cl52  Cl    Cl    0.644572 0.781379 0.001583 -0.299970
Cl53  Cl    Cl    0.114256 0.120326 0.535336 -0.196118
Cl54  Cl    Cl    0.145117 0.846306 0.457749 -0.257915
Cl55  Cl    Cl    0.092248 0.905309 0.601391 -0.183958
Cl56  Cl    Cl    0.152283 0.276013 0.504385 -0.387383
Cl57  Cl    Cl    0.347656 0.846978 0.215487 -0.446698
Cl58  Cl    Cl    0.462228 0.130455 0.877775 -0.330321
Cl59  Cl    Cl    0.532309 0.221160 0.024074 -0.346631
Cl60  Cl    Cl    0.517998 0.709136 0.952102 -0.390901
Cl61  Cl    Cl    0.956836 0.150025 0.590258 -0.370756
Cl62  Cl    Cl    0.981114 0.814893 0.451583 -0.470297
Cl63  Cl    Cl    0.939833 0.857680 0.623965 -0.351111
Cl64  Cl    Cl    0.013021 0.213807 0.459461 -0.487230

loop_
_geom_bond_atom_site_label_1
_geom_bond_atom_site_label_2
_geom_bond_distance
_ccdc_geom_bond_type
N3    O58   1.297981 A    
C62   Cl54  1.752475 S    
C60   Cl52  1.767185 S    
C42   C50   1.396060 A    
N13   O77   1.301754 A    
C122  C130  1.399577 A    
O26   C7    1.306059 A    
C173  C177  1.402415 A    
N2    O56   1.296645 A    
N39   O130  1.296632 A    
N37   O126  1.298857 A    
O30   C11   1.290321 A    
C127  C135  1.403681 A    
C153  C157  1.407083 A    
C172  C176  1.429741 A    
C125  C133  1.399633 A    
C165  C169  1.436581 A    
Zn12  O26   1.960521 S    
C78   C82   1.400525 A    
C57   Cl49  1.767471 S    
C136  C140  1.401504 A    
C154  C161  1.429733 A    
C9    C113  1.488686 S    
N20   O91   1.301227 A    
C76   C92   1.414025 A    
C29   N5    1.493417 S    
Zn3   O15   1.953728 S    
C138  C146  1.406704 A    
C177  C178  1.386260 A    
C175  Cl23  1.767117 S    
C43   N35   1.428161 S    
C139  Cl35  1.769325 S    
C74   C90   1.419356 A    
O11   C7    1.298960 A    
C156  C160  1.411183 A    
N29   O110  1.303647 A    
C45   N37   1.438492 S    
O34   C15   1.297123 A    
C125  Cl5   1.765772 S    
C3    C89   1.473997 S    
N16   O84   1.300499 A    
C18   C165  1.465140 S    
C47   C55   1.403583 A    
C127  Cl7   1.769558 S    
N19   O89   1.301930 A    
C23   C39   1.511949 S    
Zn14  O30   1.947353 S    
C66   Cl58  1.766994 S    
Zn1   O44   1.956583 S    
C44   C52   1.406616 A    
C33   Cl28  1.799957 S    
Zn2   O43   1.956592 S    
C101  C125  1.411843 A    
C144  C152  1.403355 A    
C100  C112  1.405989 A    
Zn5   O48   1.956583 S    
Zn6   O47   1.956592 S    
C105  C145  1.429782 A    
Zn7   O46   1.986003 S    
C161  C162  1.404710 A    
O16   C12   1.263709 A    
C145  N9    1.437497 S    
C26   N26   1.499066 S    
C159  C160  1.406195 A    
Zn16  O4    1.950999 S    
Zn12  O4    1.971122 S    
Zn1   O13   1.947423 S    
C26   C28   1.622988 S    
Zn4   O16   1.945268 S    
C73   C89   1.410658 A    
N8    O68   1.298568 A    
C104  C128  1.405358 A    
N12   O75   1.300490 A    
C25   N25   1.497557 S    
C62   C70   1.411055 A    
C47   N39   1.427793 S    
C155  C164  1.419018 A    
C134  Cl10  1.770770 S    
C107  C115  1.437006 A    
C102  C106  1.408641 A    
C121  C129  1.404823 A    
C108  C116  1.401132 A    
C121  Cl1   1.760705 S    
C111  C151  1.417509 A    
C132  Cl16  1.770019 S    
C68   Cl60  1.753065 S    
C109  C149  1.439192 A    
C42   C82   1.417799 A    
C26   N2    1.499541 S    
C67   Cl59  1.768303 S    
C99   C123  1.402427 A    
C100  C124  1.421714 A    
Zn10  O22   1.960521 S    
C141  C149  1.393405 A    
C6    C96   1.497436 S    
N10   O72   1.300252 A    
C5    C95   1.462371 S    
C87   C119  1.448028 A    
C124  Cl4   1.746253 S    
O25   C8    1.293421 A    
Zn13  O29   1.928786 S    
C77   C93   1.429957 A    
Zn10  O2    1.971122 S    
C91   C99   1.403055 A    
C162  C166  1.424090 A    
O29   C12   1.315155 A    
C36   Cl30  1.794068 S    
Zn15  O33   1.928786 S    
N28   O107  1.297634 A    
C48   C88   1.426512 A    
N36   O123  1.302084 A    
N23   O97   1.300879 A    
C110  C118  1.437964 A    
C30   N6    1.495023 S    
C61   C69   1.404525 A    
C58   C66   1.403675 A    
N31   O113  1.301098 A    
O37   C17   1.271378 A    
O48   C23   1.278870 A    
N19   O90   1.298226 A    
C46   C86   1.415989 A    
N2    O55   1.304513 A    
N33   O118  1.300339 A    
C46   N38   1.421132 S    
C27   N27   1.474485 S    
C54   C58   1.393658 A    
C97   C109  1.438160 A    
C41   C81   1.427985 A    
Zn16  O35   1.950550 S    
C106  C114  1.431903 A    
C30   C40   1.665951 S    
N11   O74   1.298530 A    
C156  N20   1.431959 S    
C31   C40   1.651554 S    
C86   C118  1.413381 A    
N1    O53   1.303530 A    
Zn7   O10   1.945217 S    
O33   C16   1.311945 A    
O9    C5    1.262783 A    
C30   N30   1.498313 S    
C166  C170  1.433787 A    
N5    O61   1.303112 A    
C155  C159  1.409391 A    
O40   C20   1.275194 A    
C146  N10   1.433387 S    
N32   O115  1.294388 A    
C103  C107  1.426397 A    
C180  Cl19  1.767850 S    
C164  C168  1.420995 A    
C43   C51   1.402130 A    
C51   Cl43  1.765864 S    
C75   C87   1.416722 A    
C24   C40   1.510708 S    
C64   Cl56  1.764289 S    
N6    O63   1.304059 A    
Zn5   O17   1.947423 S    
C153  C162  1.435151 A    
C144  Cl40  1.763549 S    
C29   N29   1.488843 S    
C49   C61   1.394803 A    
C61   Cl53  1.769234 S    
C174  Cl22  1.778029 S    
C93   C101  1.417589 A    
C124  C132  1.408588 A    
C25   C27   1.655143 S    
C169  C170  1.434063 A    
N21   O94   1.301411 A    
C123  Cl3   1.736891 S    
C131  C143  1.399974 A    
N25   O102  1.303946 A    
C147  N11   1.410293 S    
Zn8   O3    1.937944 S    
C80   C96   1.411286 A    
N22   O95   1.301204 A    
C156  C163  1.428429 A    
C89   C97   1.444168 A    
O38   C18   1.288320 A    
C58   Cl50  1.766795 S    
O5    C1    1.294468 A    
C10   C114  1.473350 S    
N18   O88   1.300038 A    
O32   C9    1.294625 A    
C76   C88   1.404627 A    
C79   C83   1.397386 A    
C53   C57   1.402009 A    
C27   C38   1.669464 S    
C33   Cl25  1.807348 S    
C55   C59   1.390860 A    
Zn15  O51   1.965847 S    
N30   O112  1.303178 A    
N9    O69   1.301649 A    
Zn11  O28   1.947098 S    
C74   C86   1.398028 A    
N6    O64   1.298387 A    
C126  Cl6   1.764076 S    
N24   O100  1.301172 A    
N15   O81   1.301028 A    
C96   C104  1.409118 A    
C128  C136  1.406341 A    
O8    C4    1.320295 A    
N35   O122  1.300816 A    
C20   C167  1.454253 S    
N40   O131  1.301542 A    
C80   C84   1.412370 A    
C157  N21   1.436951 S    
N38   O127  1.299633 A    
O50   C18   1.273840 A    
C171  C175  1.430785 A    
N7    O65   1.301253 A    
C83   C115  1.412433 A    
C143  C151  1.410205 A    
Zn1   O1    1.996771 S    
Zn13  O1    1.970826 S    
Zn2   O14   1.927043 S    
C141  Cl37  1.774021 S    
N4    O59   1.304515 A    
N11   O73   1.301485 A    
C53   Cl45  1.765799 S    
N37   O125  1.299319 A    
C73   C85   1.393672 A    
C35   Cl29  1.797053 S    
C70   C78   1.429814 A    
C1    C91   1.489997 S    
C11   C115  1.483514 S    
C28   N28   1.502590 S    
C12   C116  1.489220 S    
O39   C19   1.275737 A    
O36   C13   1.317493 A    
C130  C142  1.387309 A    
C63   C71   1.402585 A    
C137  C145  1.415161 A    
C135  Cl11  1.771712 S    
C45   C53   1.415225 A    
N26   O103  1.294231 A    
Zn1   O8    1.927005 S    
C28   N4    1.509852 S    
C122  Cl2   1.771096 S    
C21   C37   1.517384 S    
Zn2   O7    1.947381 S    
C101  C105  1.405618 A    
Zn3   O6    1.945217 S    
C163  C167  1.421336 A    
O18   C14   1.312470 A    
O31   C10   1.295753 A    
C130  Cl14  1.769080 S    
O6    C2    1.271694 A    
C104  C108  1.397699 A    
C143  Cl39  1.765893 S    
C99   C111  1.390533 A    
C28   C37   1.674883 S    
C33   C34   1.573385 S    
C34   Cl26  1.790022 S    
C150  N14   1.424800 S    
C59   Cl51  1.763887 S    
C171  C172  1.417754 A    
C149  N13   1.423388 S    
C72   Cl64  1.745377 S    
N29   O109  1.297583 A    
C41   C49   1.405541 A    
C82   C114  1.421921 A    
C32   N8    1.496896 S    
C92   C100  1.437713 A    
Zn15  O3    1.970826 S    
C78   C94   1.421890 A    
Zn11  O3    1.951297 S    
C174  C178  1.398428 A    
O41   C21   1.304775 A    
C14   C118  1.479029 S    
C69   C77   1.415603 A    
Zn16  O34   1.947353 S    
C177  Cl18  1.765986 S    
C60   C68   1.398909 A    
C49   Cl41  1.768849 S    
C111  C119  1.423923 A    
O15   C11   1.267803 A    
C126  C134  1.404459 A    
C109  C117  1.437826 A    
Zn8   O20   1.945268 S    
N17   O86   1.301157 A    
O10   C6    1.280616 A    
C112  C120  1.400925 A    
C97   C121  1.434976 A    
C44   C84   1.425951 A    
C98   C110  1.428567 A    
C95   C103  1.428250 A    
C32   N32   1.500000 S    
Zn6   O11   1.947381 S    
C56   C60   1.396894 A    
N13   O78   1.300065 A    
C105  C113  1.429718 A    
C81   C113  1.430627 A    
Zn8   O9    1.953682 S    
N12   O76   1.301443 A    
C88   C120  1.426658 A    
C154  N18   1.431484 S    
C148  N12   1.439453 S    
C17   C166  1.454459 S    
O7    C3    1.291448 A    
C22   C38   1.520765 S    
N27   O105  1.288000 A    
C102  C126  1.430487 A    
O19   C15   1.270003 A    
C142  Cl38  1.765557 S    
C103  C127  1.445496 A    
O44   C21   1.275539 A    
Zn9   O24   1.947098 S    
C19   C168  1.465110 S    
Zn6   O18   1.927043 S    
Zn10  O23   1.928536 S    
C106  C146  1.425743 A    
C107  C147  1.417818 A    
C31   N31   1.490885 S    
C70   Cl62  1.758862 S    
C50   C62   1.394632 A    
C66   C74   1.429237 A    
C129  Cl13  1.764213 S    
C94   C102  1.424811 A    
C71   C79   1.418061 A    
C139  C147  1.393288 A    
Zn15  O36   1.960776 S    
O49   C17   1.287172 A    
O42   C22   1.294392 A    
N36   O124  1.300767 A    
Zn4   O1    1.937944 S    
C158  N22   1.436522 S    
C30   C32   1.623308 S    
C16   C120  1.487818 S    
Zn9   O37   1.975690 S    
O12   C8    1.289458 A    
C36   C40   1.636001 S    
Zn11  O39   1.975690 S    
C90   C98   1.421000 A    
N23   O98   1.300999 A    
N33   O117  1.301223 A    
C179  Cl20  1.771782 S    
C48   C56   1.410661 A    
C167  C171  1.430932 A    
C110  C150  1.433723 A    
C123  C131  1.405141 A    
C151  N15   1.430084 S    
C75   C91   1.419314 A    
Zn5   O3    1.996771 S    
C153  N17   1.431392 S    
C64   C72   1.398804 A    
Zn6   O4    1.996769 S    
C65   C73   1.419343 A    
C7    C93   1.483741 S    
C36   Cl31  1.830442 S    
C63   Cl55  1.768646 S    
C68   C76   1.414432 A    
N7    O66   1.298122 A    
N32   O116  1.304382 A    
O28   C5    1.286914 A    
Zn3   O42   1.986003 S    
C44   N36   1.427415 S    
C137  Cl33  1.767734 S    
N34   O120  1.300652 A    
Zn7   O4    1.937946 S    
N16   O83   1.300130 A    
O21   C4    1.273150 A    
C35   C36   1.574548 S    
N8    O67   1.298063 A    
C79   C95   1.419321 A    
C77   C81   1.420942 A    
C69   Cl61  1.755805 S    
Zn2   O2    1.996769 S    
N21   O93   1.301316 A    
Zn14  O2    1.950999 S    
C8    C94   1.445252 S    
N39   O129  1.302191 A    
C72   C80   1.410446 A    
C54   Cl46  1.766443 S    
N35   O121  1.300050 A    
Zn13  O49   1.965847 S    
N25   O101  1.296669 A    
C31   N7    1.497010 S    
C132  C144  1.395993 A    
C152  N16   1.439039 S    
N28   O108  1.304061 A    
N10   O71   1.301352 A    
N22   O96   1.301205 A    
Zn12  O27   1.928536 S    
C41   N33   1.426723 S    
C138  Cl34  1.766372 S    
C154  C158  1.405322 A    
C4    C90   1.469183 S    
Zn3   O2    1.937946 S    
C160  N24   1.438825 S    
C25   C37   1.644904 S    
C71   Cl63  1.733179 S    
O46   C24   1.292220 A    
Zn4   O41   1.985996 S    
C155  N19   1.437655 S    
C108  C148  1.416120 A    
C34   C38   1.610145 S    
Zn16  O52   1.975733 S    
C29   C39   1.655694 S    
C84   C116  1.436458 A    
C176  Cl24  1.765682 S    
C2    C92   1.498214 S    
Zn8   O45   1.985996 S    
O27   C6    1.302638 A    
C173  Cl21  1.777348 S    
C140  C148  1.407561 A    
C161  C165  1.422378 A    
C15   C119  1.494664 S    
C55   Cl47  1.763910 S    
Zn10  O38   1.965808 S    
C56   Cl48  1.767286 S    
C13   C117  1.495124 S    
C29   C31   1.652089 S    
C178  Cl17  1.777838 S    
C25   N1    1.486030 S    
C50   Cl42  1.764343 S    
C33   C37   1.601183 S    
N1    O54   1.293745 A    
O24   C1    1.266879 A    
N38   O128  1.300120 A    
C133  Cl9   1.767636 S    
N5    O62   1.300262 A    
N34   O119  1.300768 A    
C135  C139  1.385729 A    
C136  Cl12  1.761015 S    
C168  C172  1.427128 A    
N14   O80   1.298806 A    
C98   C122  1.432625 A    
O43   C22   1.285902 A    
C46   C54   1.403508 A    
O47   C24   1.284552 A    
N4    O60   1.299099 A    
C128  Cl8   1.765414 S    
N27   O106  1.304267 A    
Zn5   O12   1.927005 S    
C51   C63   1.391581 A    
C35   Cl32  1.797224 S    
C176  C180  1.403076 A    
Zn9   O21   1.950300 S    
C157  C158  1.399035 A    
Zn14  O50   1.975733 S    
O13   C9    1.314854 A    
N31   O114  1.302400 A    
O35   C14   1.285397 A    
Zn12  O40   1.965808 S    
Zn9   O1    1.951297 S    
N14   O79   1.301409 A    
N26   O104  1.304427 A    
C140  Cl36  1.754638 S    
O52   C20   1.281355 A    
C112  C152  1.419817 A    
N3    O57   1.303332 A    
C27   N3    1.508616 S    
C52   Cl44  1.767368 S    
C57   C65   1.402650 A    
C65   Cl57  1.765960 S    
O22   C3    1.309535 A    
C26   C38   1.641106 S    
C32   C39   1.645186 S    
C133  C137  1.405314 A    
C34   Cl27  1.814911 S    
C47   C87   1.431698 A    
C52   C64   1.393606 A    
Zn7   O19   1.953728 S    
C45   C85   1.425673 A    
C43   C83   1.426022 A    
Zn13  O32   1.960776 S    
N20   O92   1.301375 A    
C179  C180  1.393970 A    
C169  C173  1.442114 A    
C42   N34   1.439716 S    
Zn14  O31   1.950550 S    
C131  Cl15  1.763535 S    
C170  C174  1.445620 A    
O51   C19   1.285974 A    
C142  C150  1.399799 A    
C48   N40   1.433374 S    
C35   C39   1.614939 S    
N18   O87   1.300706 A    
N15   O82   1.300802 A    
Zn4   O5    1.953682 S    
C85   C117  1.428334 A    
O20   C16   1.265045 A    
C67   C75   1.423821 A    
N30   O111  1.292952 A    
N9    O70   1.301670 A    
O23   C2    1.312748 A    
Zn11  O25   1.950300 S    
N40   O132  1.301053 A    
N17   O85   1.301428 A    
C59   C67   1.393977 A    
C175  C179  1.402151 A    
C129  C141  1.381794 A    
O14   C10   1.300489 A    
N24   O99   1.301250 A    
C134  C138  1.395587 A    
C163  C164  1.401149 A    
O17   C13   1.294597 A    
O45   C23   1.296321 A    
C159  N23   1.431964 S    
