data_mof_unit_7203.cif
_audit_creation_date              2012-12-10T18:57:12-0500
_audit_creation_method            fapswitch 2.2
_symmetry_space_group_name_H-M    P1
_symmetry_Int_Tables_number       1
_space_group_crystal_system       triclinic
_cell_length_a                    10.732183
_cell_length_b                    9.826971
_cell_length_c                    10.683389
_cell_angle_alpha                 90.239828
_cell_angle_beta                  90.435514
_cell_angle_gamma                 90.550915
_cell_volume                      1126.6271789

loop_
_atom_site_label
_atom_site_type_symbol
_atom_type_description
_atom_site_fract_x
_atom_site_fract_y
_atom_site_fract_z
_atom_type_partial_charge
C1    C     C_R   0.260047 0.499680 0.504328 0.925283
C2    C     C_R   0.740257 0.501461 0.496106 0.915575
C3    C     C_R   0.569505 0.073507 0.586319 0.488454
C4    C     C_R   0.431051 0.072035 0.412614 0.517125
C5    C     C_R   0.566894 0.928705 0.587326 -0.150417
C6    C     C_R   0.434106 0.926485 0.411715 -0.255873
C7    C     C_R   0.496193 0.499742 0.259999 0.876125
C8    C     C_R   0.496107 0.500265 0.740043 0.880335
C9    C     C_R   0.478384 0.621914 0.063869 -0.095172
C10   C     C_R   0.472870 0.623264 0.936416 -0.086466
C11   C     C_R   0.478689 0.499509 0.128579 -0.071441
C12   C     C_R   0.476124 0.500662 0.870965 -0.107918
C13   C     C_R   0.456588 0.377107 0.063807 -0.203837
C14   C     C_R   0.456029 0.377522 0.934317 -0.180654
C15   C     C_3   0.549983 0.753000 0.927478 0.298412
C16   C     C_3   0.555678 0.750825 0.070728 0.347185
C17   C     C_R   0.062878 0.386654 0.461313 -0.274010
C18   C     C_R   0.935445 0.388323 0.456814 -0.286863
C19   C     C_R   0.873129 0.506806 0.490053 -0.213857
C20   C     C_R   0.127620 0.500932 0.505672 -0.200249
C21   C     C_R   0.938852 0.627606 0.522692 0.438374
C22   C     C_R   0.066317 0.620084 0.542700 0.438647
H1    H     H_    0.448364 0.280732 0.111926 0.213581
H2    H     H_    0.448211 0.281214 0.884985 0.196893
H3    H     H_    0.641084 0.736937 0.881224 0.117301
H4    H     H_    0.502220 0.834748 0.114404 0.118374
H5    H     H_    0.110526 0.295439 0.432003 0.194187
H6    H     H_    0.885807 0.297305 0.426585 0.180534
H7    H     H_    0.618292 0.873373 0.657677 0.199123
H8    H     H_    0.384710 0.868178 0.340905 0.155655
N1    N     N_R   0.500000 0.857200 0.500000 -0.122995
N2    N     N_R   0.500000 0.142810 0.500000 -0.165615
O1    O     O_R   0.316770 0.614620 0.499990 -0.601007
O2    O     O_R   0.683230 0.614620 0.500010 -0.577082
O3    O     O_R   0.316800 0.385290 0.500000 -0.606919
O4    O     O_R   0.683200 0.385290 0.500000 -0.610236
O5    O     O_R   0.500000 0.614690 0.316780 -0.616552
O6    O     O_R   0.500000 0.614690 0.683220 -0.618333
O7    O     O_R   0.500020 0.385360 0.316780 -0.585371
O8    O     O_R   0.499980 0.385360 0.683220 -0.577426
Zn1   Zn    Zn3+2 0.500000 0.653120 0.500000 0.973594
Zn2   Zn    Zn3+2 0.500000 0.346880 0.500000 1.016512
O9    O     O_3   0.492023 0.873164 0.881104 -0.609013
C23   C     C_3   0.360881 0.864015 0.870937 -0.256430
H9    H     H_    0.317713 0.841126 0.962830 0.139844
H10   H     H_    0.332465 0.787310 0.799246 0.216793
H11   H     H_    0.325201 0.963931 0.839590 0.176851
O10   O     O_3   0.678568 0.744857 0.122742 -0.609600
C24   C     C_3   0.745317 0.624440 0.096628 -0.312453
H12   H     H_    0.719424 0.573743 0.007090 0.148385
H13   H     H_    0.734553 0.551708 0.174926 0.164713
H14   H     H_    0.845770 0.650990 0.091247 0.184360
O11   O     O_3   0.878841 0.749077 0.546057 -0.597414
C25   C     C_3   0.862800 0.817972 0.430835 -0.291153
H15   H     H_    0.809817 0.912323 0.448018 0.174921
H16   H     H_    0.953208 0.847566 0.388769 0.119274
H17   H     H_    0.809279 0.756421 0.360986 0.214025
O12   O     O_3   0.127310 0.715206 0.618585 -0.599028
C26   C     C_3   0.147924 0.838193 0.554009 -0.238829
H18   H     H_    0.163606 0.823367 0.451870 0.125310
H19   H     H_    0.233181 0.887389 0.593123 0.171301
H20   H     H_    0.070257 0.909429 0.570893 0.184711
O13   O     O_3   0.634213 0.146687 0.677097 -0.563003
C27   C     C_3   0.762406 0.117088 0.671082 -0.258850
H21   H     H_    0.814358 0.194521 0.727058 0.189223
H22   H     H_    0.798159 0.122725 0.573673 0.133600
H23   H     H_    0.782430 0.016165 0.712691 0.174192
O14   O     O_3   0.368593 0.146579 0.321838 -0.570538
C28   C     C_3   0.252779 0.087473 0.288168 -0.393155
H24   H     H_    0.196446 0.165656 0.239791 0.198970
H25   H     H_    0.199081 0.054043 0.371413 0.138517
H26   H     H_    0.265413 0.002645 0.220571 0.161499

loop_
_geom_bond_atom_site_label_1
_geom_bond_atom_site_label_2
_ccdc_geom_bond_type
C22   O12   S    
C28   H26   S    
C21   O11   S    
O9    C23   S    
O11   C25   S    
C6    N1    A    
C2    O4    A    
C3    O13   S    
C9    C11   A    
C9    C10   A    
C3    N2    A    
O4    Zn2   S    
C23   H11   S    
C8    C12   S    
C24   H14   S    
O1    Zn1   S    
C27   H21   S    
C2    O2    A    
O8    Zn2   S    
C17   C18   A    
C7    O5    A    
C15   O9    S    
C26   H18   S    
C21   C22   A    
C25   H17   S    
C7    C11   S    
C11   C13   A    
C16   O10   S    
C4    N2    A    
O2    Zn1   S    
C10   C12   A    
O10   C24   S    
C19   C21   A    
C9    C16   S    
C12   C14   A    
C18   C19   A    
O7    Zn2   S    
C5    H7    S    
C10   C15   S    
C8    O6    A    
O5    Zn1   S    
C28   H24   S    
C25   H16   S    
C26   H19   S    
C15   H3    S    
C5    N1    A    
C20   C22   A    
C1    O1    A    
O13   C27   S    
C17   H5    S    
C27   H23   S    
C17   C20   A    
C18   H6    S    
C23   H9    S    
C13   H1    S    
O6    Zn1   S    
C4    C6    A    
C24   H12   S    
C14   H2    S    
C8    O8    A    
C28   H25   S    
C1    O3    A    
C7    O7    A    
O3    Zn2   S    
C1    C20   S    
N2    Zn2   S    
N1    Zn1   S    
C13   C14   A    
C3    C5    A    
C2    C19   S    
C25   H15   S    
O12   C26   S    
C4    O14   S    
C6    H8    S    
C15   C16   S    
C26   H20   S    
C23   H10   S    
O14   C28   S    
C24   H13   S    
C16   H4    S    
C27   H22   S    
