data_mof_unit_19697.cif
_audit_creation_date              2012-12-10T17:02:13-0500
_audit_creation_method            fapswitch 2.2
_symmetry_space_group_name_H-M    P1
_symmetry_Int_Tables_number       1
_space_group_crystal_system       triclinic
_cell_length_a                    10.725
_cell_length_b                    10.619124
_cell_length_c                    10.023502
_cell_angle_alpha                 89.859593
_cell_angle_beta                  89.755315
_cell_angle_gamma                 91.893556
_cell_volume                      1140.94008252

loop_
_atom_site_label
_atom_site_type_symbol
_atom_type_description
_atom_site_fract_x
_atom_site_fract_y
_atom_site_fract_z
_atom_type_partial_charge
C1    C     C_R   0.483777 0.263256 0.500208 0.970599
C2    C     C_R   0.072288 0.606098 0.585863 0.106658
C3    C     C_R   0.129276 0.518769 0.500808 -0.098884
C4    C     C_R   0.061110 0.443801 0.412313 -0.197402
C5    C     C_R   0.934170 0.447761 0.411808 -0.190661
C6    C     C_R   0.873316 0.528219 0.498276 -0.113985
C7    C     C_2   0.414618 0.926164 0.407250 -0.269038
C8    C     C_2   0.486352 0.870672 0.497452 -0.308726
C9    C     C_2   0.410251 0.063164 0.398190 0.030641
C10   C     C_2   0.447934 0.132057 0.504293 -0.357970
C11   C     C_2   0.414125 0.546623 0.925391 -0.106999
C12   C     C_R   0.260592 0.504219 0.500365 0.860305
C13   C     C_2   0.418165 0.553575 0.075218 -0.093119
C14   C     C_R   0.492989 0.737460 0.499559 0.906583
C15   C     C_R   0.739877 0.511115 0.499934 0.847547
C16   C     C_R   0.143456 0.688067 0.669750 -0.188120
C17   C     C_R   0.086329 0.768310 0.757774 -0.201816
C18   C     C_R   0.958517 0.779343 0.754412 -0.108466
C19   C     C_R   0.886341 0.710766 0.661459 -0.006622
C20   C     C_R   0.941160 0.614597 0.582807 -0.003338
H1    H     H_    0.106224 0.378031 0.346702 0.200517
H2    H     H_    0.454903 0.089747 0.602424 0.150491
H3    H     H_    0.333323 0.583989 0.876380 0.158472
H4    H     H_    0.581198 0.472433 0.897302 0.170893
H5    H     H_    0.344807 0.603707 0.124962 0.155215
H6    H     H_    0.566808 0.447675 0.102078 0.164597
H7    H     H_    0.243906 0.693976 0.668008 0.165691
H8    H     H_    0.142210 0.827760 0.823541 0.151078
H9    H     H_    0.917585 0.850611 0.816493 0.176192
H10   H     H_    0.882757 0.383421 0.346699 0.164610
H11   H     H_    0.362192 0.869582 0.335003 0.160412
H12   H     H_    0.543112 0.921378 0.569620 0.185577
N1    N     N_2   0.501340 0.501330 0.852150 -0.182387
N2    N     N_2   0.501380 0.501360 0.147810 -0.180745
O1    O     O_R   0.499980 0.319060 0.613040 -0.616610
O2    O     O_R   0.500020 0.319100 0.386900 -0.568571
O3    O     O_R   0.316750 0.499980 0.613090 -0.636590
O4    O     O_R   0.316790 0.500020 0.386950 -0.596082
O5    O     O_R   0.499980 0.680900 0.613100 -0.586625
O6    O     O_R   0.500020 0.680940 0.386960 -0.617988
O7    O     O_R   0.683210 0.499980 0.613050 -0.603990
O8    O     O_R   0.683250 0.500020 0.386910 -0.618850
Zn1   Zn    Zn3+2 0.499970 0.499970 0.650990 0.973324
Zn2   Zn    Zn3+2 0.500030 0.500030 0.349010 0.977970
C21   C     C_2   0.763856 0.760822 0.632030 0.431291
H13   H     H_    0.730092 0.757251 0.530673 0.018108
O9    O     O_2   0.703383 0.812209 0.718648 -0.587077
C22   C     C_2   0.363481 0.116277 0.271331 0.439427
H14   H     H_    0.374030 0.064007 0.179272 0.045630
O10   O     O_2   0.305809 0.213491 0.269444 -0.571164

loop_
_geom_bond_atom_site_label_1
_geom_bond_atom_site_label_2
_ccdc_geom_bond_type
O3    Zn1   S    
O5    Zn1   S    
C19   C21   S    
O4    Zn2   S    
C11   N1    D    
C2    C16   A    
C9    C10   D    
C15   O8    A    
H4    N1    S    
O6    Zn2   S    
O1    Zn1   S    
C16   H7    S    
C22   O10   D    
C17   C18   A    
C14   O5    A    
C7    C8    D    
C18   H9    S    
C21   H13   S    
C10   H2    S    
C4    H1    S    
O7    Zn1   S    
C13   H5    S    
O8    Zn2   S    
C6    C20   A    
C4    C5    A    
C11   H3    S    
C22   H14   S    
C2    C3    A    
C21   O9    D    
C12   O4    A    
C5    C6    A    
O2    Zn2   S    
C11   C13   S    
C7    H11   S    
C15   O7    A    
C2    C20   A    
C3    C4    A    
C8    H12   S    
C13   N2    D    
N2    Zn2   S    
C1    O1    A    
C9    C22   S    
C5    H10   S    
C12   O3    A    
C7    C9    S    
C18   C19   A    
C8    C14   S    
C3    C12   S    
C6    C15   S    
C17   H8    S    
C14   O6    A    
H6    N2    S    
C1    C10   S    
C19   C20   A    
C1    O2    A    
C16   C17   A    
N1    Zn1   S    
