data_mof_unit_27426.cif
_audit_creation_date              2012-12-10T18:53:50-0500
_audit_creation_method            fapswitch 2.2
_symmetry_space_group_name_H-M    P1
_symmetry_Int_Tables_number       1
_space_group_crystal_system       triclinic
_cell_length_a                    19.417544
_cell_length_b                    18.125345
_cell_length_c                    10.855358
_cell_angle_alpha                 89.99932
_cell_angle_beta                  90.064914
_cell_angle_gamma                 89.877476
_cell_volume                      3820.52863038

loop_
_atom_site_label
_atom_site_type_symbol
_atom_type_description
_atom_site_fract_x
_atom_site_fract_y
_atom_site_fract_z
_atom_type_partial_charge
C1    C     C_R   0.367456 0.500083 0.499983 0.845628
C2    C     C_R   0.632519 0.499976 0.499935 0.845601
C3    C     C_R   0.816042 0.567377 0.490287 0.401023
C4    C     C_R   0.183308 0.567646 0.502983 0.404173
C5    C     C_R   0.744121 0.566587 0.488115 -0.285683
C6    C     C_R   0.255470 0.566929 0.506454 -0.301973
C7    C     C_R   0.708089 0.500006 0.499872 -0.161262
C8    C     C_R   0.291823 0.500162 0.499895 -0.143513
C9    C     C_R   0.964224 0.532092 0.401539 -0.148575
C10   C     C_R   0.035891 0.532117 0.401487 -0.148555
C11   C     C_R   0.072070 0.500351 0.499851 0.209341
C12   C     C_R   0.928242 0.500594 0.500252 0.151798
C13   C     C_R   0.036233 0.468647 0.598377 -0.148030
C14   C     C_R   0.964557 0.468940 0.598746 -0.147951
C15   C     C_R   0.464595 0.721146 0.588522 0.041094
C16   C     C_R   0.535468 0.720973 0.411544 0.042836
C17   C     C_R   0.464555 0.798574 0.590967 -0.246680
C18   C     C_R   0.535680 0.798400 0.409289 -0.246352
C19   C     C_R   0.500176 0.838587 0.500193 0.215773
C20   C     C_R   0.562549 0.961402 0.486872 0.262952
C21   C     C_R   0.438109 0.961838 0.513669 0.263098
C22   C     C_R   0.500053 0.499895 0.262456 0.809084
C23   C     C_R   0.499942 0.499895 0.737544 0.809184
C24   C     C_R   0.562047 0.039307 0.481389 0.339790
C25   C     C_R   0.438708 0.039726 0.518846 0.338257
C26   C     C_R   0.500395 0.079044 0.500029 -0.126665
C27   C     C_R   0.500288 0.921641 0.500310 -0.228507
C28   C     C_R   0.464548 0.201262 0.407774 0.334514
C29   C     C_R   0.536021 0.201227 0.592000 0.334860
C30   C     C_R   0.463515 0.279274 0.412784 -0.097667
C31   C     C_R   0.536680 0.279238 0.587118 -0.095124
C32   C     C_R   0.500379 0.161856 0.499861 0.046364
C33   C     C_R   0.500145 0.563613 0.061961 0.132363
C34   C     C_R   0.499849 0.563613 0.938036 0.132444
C35   C     C_R   0.500103 0.498897 0.129986 -0.103013
C36   C     C_R   0.499879 0.498897 0.870015 -0.103002
C37   C     C_R   0.499991 0.431540 0.064586 -0.224174
C38   C     C_R   0.499968 0.431540 0.935417 -0.224392
C39   C     C_3   0.499756 0.645625 0.929066 -0.475587
C40   C     C_3   0.500277 0.645623 0.070930 -0.475913
C41   C     C_R   0.744657 0.433599 0.511570 -0.280866
C42   C     C_R   0.255638 0.433426 0.493265 -0.303261
C43   C     C_R   0.816574 0.433265 0.509777 0.399948
C44   C     C_R   0.183430 0.432773 0.496521 0.406114
C45   C     C_R   0.852588 0.500427 0.500151 -0.113317
C46   C     C_R   0.147562 0.500255 0.499681 -0.086739
Cu1   Cu    Cu3+1 0.500000 0.573360 0.500000 0.934213
Cu2   Cu    Cu3+1 0.500000 0.426640 0.500000 0.929522
H1    H     H_    0.499929 0.379084 0.112428 0.153582
H2    H     H_    0.500015 0.379084 0.887577 0.153494
H3    H     H_    0.436348 0.691036 0.657931 0.122880
H4    H     H_    0.563665 0.690725 0.342082 0.122809
H5    H     H_    0.437219 0.826894 0.663899 0.165028
H6    H     H_    0.563077 0.826588 0.336420 0.165059
H7    H     H_    0.433622 0.310599 0.346977 0.140959
H8    H     H_    0.566472 0.310536 0.652925 0.141016
H9    H     H_    0.547954 0.667275 0.887533 0.200862
H10   H     H_    0.452089 0.667520 0.112464 0.200764
H11   H     H_    0.451135 0.667378 0.888830 0.190204
H12   H     H_    0.548907 0.667127 0.111166 0.190145
H13   H     H_    0.717700 0.381670 0.521552 0.179103
H14   H     H_    0.283431 0.381876 0.484557 0.166533
H15   H     H_    0.716722 0.618346 0.477607 0.174148
H16   H     H_    0.283060 0.618485 0.515330 0.164536
H17   H     H_    0.936786 0.556039 0.324300 0.154378
H18   H     H_    0.063177 0.556218 0.324450 0.127044
N1    N     N_R   0.500000 0.683620 0.500000 -0.166255
N2    N     N_R   0.500000 0.316380 0.500000 -0.201971
O1    O     O_R   0.400190 0.561980 0.499980 -0.587886
O2    O     O_R   0.599810 0.561980 0.500020 -0.587388
O3    O     O_R   0.400190 0.438070 0.500040 -0.581076
O4    O     O_R   0.599810 0.438070 0.499960 -0.580430
O5    O     O_R   0.500000 0.561960 0.319660 -0.588714
O6    O     O_R   0.500000 0.561960 0.680340 -0.588333
O7    O     O_R   0.500000 0.438060 0.319720 -0.591258
O8    O     O_R   0.500000 0.438060 0.680280 -0.591706
O9    O     O_3   0.624345 0.924286 0.473282 -0.564546
C47   C     C_3   0.653120 0.912447 0.591107 0.129375
H19   H     H_    0.616605 0.882707 0.652724 0.126446
H20   H     H_    0.667689 0.965919 0.634383 0.176299
C48   C     C_3   0.717632 0.865302 0.578190 -0.803718
H21   H     H_    0.755752 0.893704 0.518633 0.255052
H22   H     H_    0.740994 0.855720 0.670246 0.194423
H23   H     H_    0.704374 0.811172 0.536500 0.248252
O10   O     O_3   0.376246 0.925153 0.527014 -0.564950
C49   C     C_3   0.347410 0.913947 0.409113 0.132211
H24   H     H_    0.383991 0.884589 0.346871 0.125908
H25   H     H_    0.332486 0.967626 0.366732 0.177084
C50   C     C_3   0.283239 0.866610 0.421672 -0.810349
H26   H     H_    0.244800 0.894864 0.480999 0.257439
H27   H     H_    0.260126 0.856831 0.329505 0.193308
H28   H     H_    0.296977 0.812654 0.463635 0.242964
O11   O     O_3   0.623196 0.076790 0.464151 -0.522850
C51   C     C_3   0.632973 0.087558 0.336582 0.098462
H29   H     H_    0.587447 0.114684 0.293069 0.121891
H30   H     H_    0.642946 0.033884 0.289904 0.164495
C52   C     C_3   0.694950 0.137342 0.317070 -0.789122
H31   H     H_    0.741749 0.111533 0.357414 0.256243
H32   H     H_    0.703327 0.146100 0.216954 0.192010
H33   H     H_    0.685945 0.191639 0.361811 0.247166
O12   O     O_3   0.377579 0.077632 0.535502 -0.523800
C53   C     C_3   0.367535 0.088775 0.662923 0.103717
H34   H     H_    0.413388 0.114672 0.707093 0.121237
H35   H     H_    0.356318 0.035396 0.709456 0.164988
C54   C     C_3   0.306494 0.140283 0.681528 -0.802150
H36   H     H_    0.259375 0.115869 0.640336 0.256773
H37   H     H_    0.297775 0.149220 0.781512 0.193966
H38   H     H_    0.316877 0.194334 0.637071 0.241758
O13   O     O_3   0.428008 0.162029 0.319327 -0.546721
C55   C     C_3   0.441435 0.189023 0.199549 0.055335
H39   H     H_    0.496694 0.203981 0.186760 0.115978
H40   H     H_    0.408440 0.237852 0.180114 0.145778
C56   C     C_3   0.423766 0.129408 0.106167 -0.809775
H41   H     H_    0.369053 0.112764 0.116388 0.257246
H42   H     H_    0.431768 0.150651 0.011314 0.196676
H43   H     H_    0.457307 0.080440 0.120693 0.236273
O14   O     O_3   0.572713 0.161968 0.680423 -0.546132
C57   C     C_3   0.559127 0.188892 0.800228 0.055757
H44   H     H_    0.503802 0.203835 0.812975 0.115490
H45   H     H_    0.591911 0.237716 0.819776 0.146081
C58   C     C_3   0.577004 0.129227 0.893541 -0.809211
H46   H     H_    0.631787 0.112589 0.883354 0.257539
H47   H     H_    0.568886 0.150418 0.988417 0.196559
H48   H     H_    0.543664 0.080266 0.878909 0.236130
O15   O     O_3   0.851705 0.367298 0.522481 -0.577667
C59   C     C_3   0.857394 0.334018 0.405406 0.076556
H49   H     H_    0.882402 0.371874 0.338002 0.140977
H50   H     H_    0.805739 0.317615 0.370164 0.139611
C60   C     C_3   0.901740 0.265065 0.416181 -0.762914
H51   H     H_    0.877873 0.225568 0.481598 0.249794
H52   H     H_    0.906491 0.238199 0.324642 0.196098
H53   H     H_    0.953953 0.279935 0.449829 0.257310
O16   O     O_3   0.146607 0.367560 0.484926 -0.571024
C61   C     C_3   0.165339 0.317280 0.578786 0.064814
H54   H     H_    0.172212 0.345114 0.669686 0.128509
H55   H     H_    0.213600 0.287899 0.553477 0.153870
C62   C     C_3   0.108575 0.260214 0.592723 -0.778500
H56   H     H_    0.123006 0.219698 0.665080 0.199697
H57   H     H_    0.059662 0.287735 0.619531 0.247441
H58   H     H_    0.100779 0.230499 0.504331 0.253559
O17   O     O_3   0.850719 0.633438 0.476972 -0.579105
C63   C     C_3   0.852398 0.669545 0.592104 0.074672
H59   H     H_    0.877107 0.634043 0.663561 0.142935
H60   H     H_    0.799485 0.684906 0.622445 0.136917
C64   C     C_3   0.894455 0.739860 0.580290 -0.771333
H61   H     H_    0.870692 0.776955 0.510676 0.248422
H62   H     H_    0.896099 0.768893 0.670319 0.196422
H63   H     H_    0.947897 0.726291 0.551573 0.256988
O18   O     O_3   0.146589 0.632994 0.514863 -0.570340
C65   C     C_3   0.162280 0.681107 0.416414 0.065214
H64   H     H_    0.163273 0.651682 0.326133 0.127673
H65   H     H_    0.212753 0.708258 0.432266 0.145517
C66   C     C_3   0.107328 0.740865 0.409308 -0.779984
H66   H     H_    0.105483 0.772155 0.497223 0.252423
H67   H     H_    0.119424 0.779600 0.333119 0.198102
H68   H     H_    0.056175 0.715565 0.391883 0.249678
H69   H     H_    0.063816 0.444286 0.675098 0.129304
H70   H     H_    0.937370 0.444929 0.675995 0.154681

loop_
_geom_bond_atom_site_label_1
_geom_bond_atom_site_label_2
_ccdc_geom_bond_type
C26   C32   S    
O11   C51   S    
C40   H12   S    
C48   H23   S    
C1    C8    S    
Cu2   O8    S    
C2    C7    S    
C3    O17   S    
C41   H13   S    
C23   O8    A    
C43   O15   S    
C61   C62   S    
C48   H21   S    
O18   C65   S    
C4    C46   A    
O9    C47   S    
C22   C35   S    
C54   H37   S    
C1    O3    A    
C20   O9    S    
C14   H70   S    
C35   C37   A    
C24   C26   A    
C60   H51   S    
C29   C32   A    
C47   H20   S    
C39   H9    S    
C52   H31   S    
C5    H15   S    
C53   C54   S    
C18   C19   A    
C6    H16   S    
C57   H44   S    
Cu1   O1    S    
C58   H48   S    
C55   H40   S    
C64   H62   S    
C55   H39   S    
C20   C24   A    
C65   C66   S    
C15   H3    S    
C31   H8    S    
C50   H27   S    
C19   C27   S    
C9    C10   A    
C42   H14   S    
C24   O11   S    
C60   H53   S    
C21   C27   A    
C62   H56   S    
C15   N1    A    
C13   C14   A    
C41   C43   A    
Cu2   O7    S    
C51   H29   S    
C42   C44   A    
C22   O7    A    
Cu2   O4    S    
C2    O4    A    
C13   H69   S    
C48   H22   S    
C44   C46   A    
C64   H61   S    
C57   H45   S    
C10   H18   S    
C31   N2    A    
C62   H58   S    
C21   O10   S    
C33   C40   S    
C40   H10   S    
C49   H25   S    
C34   C39   S    
O12   C53   S    
C28   C32   A    
Cu1   O5    S    
C4    C6    A    
C52   H32   S    
C39   C40   S    
C5    C7    A    
C49   H24   S    
C17   C19   A    
C61   H55   S    
C59   C60   S    
C25   C26   A    
O10   C49   S    
C29   O14   S    
C3    C45   A    
C1    O1    A    
C50   H28   S    
C57   C58   S    
C53   H35   S    
Cu1   O2    S    
C37   C38   A    
C4    O18   S    
C37   H1    S    
Cu1   Cu2   S    
C39   H11   S    
C63   C64   S    
C33   C34   A    
Cu1   N1    S    
C16   N1    A    
C54   H38   S    
Cu2   N2    S    
C66   H68   S    
C51   H30   S    
C62   H57   S    
C55   C56   S    
C58   H46   S    
C16   C18   A    
C12   C14   A    
O16   C61   S    
C65   H65   S    
C66   H67   S    
Cu2   O3    S    
C17   H5    S    
C63   H60   S    
C64   H63   S    
C56   H41   S    
C30   H7    S    
C44   O16   S    
C15   C17   A    
C21   C25   A    
C59   H50   S    
C52   H33   S    
C47   H19   S    
C16   H4    S    
Cu1   O6    S    
C8    C42   A    
C12   C45   S    
C3    C5    A    
C49   C50   S    
C6    C8    A    
C61   H54   S    
C38   H2    S    
C20   C27   A    
C28   O13   S    
C54   H36   S    
C51   C52   S    
C56   H43   S    
C28   C30   A    
C66   H66   S    
C43   C45   A    
C2    O2    A    
O17   C63   S    
C11   C13   A    
C47   C48   S    
C25   O12   S    
O15   C59   S    
C59   H49   S    
C36   C38   A    
C33   C35   A    
C34   C36   A    
C7    C41   A    
C53   H34   S    
C9    C12   A    
C9    H17   S    
C58   H47   S    
C10   C11   A    
C18   H6    S    
C29   C31   A    
C23   C36   S    
O13   C55   S    
C63   H59   S    
C11   C46   S    
C23   O6    A    
C22   O5    A    
C60   H52   S    
C50   H26   S    
O14   C57   S    
C30   N2    A    
C65   H64   S    
C56   H42   S    
