data_mof_unit_7578.cif
_audit_creation_date              2012-10-26T17:12:26-0400
_audit_creation_method            fapswitch 2.2
_symmetry_space_group_name_H-M    P1
_symmetry_Int_Tables_number       1
_space_group_crystal_system       triclinic
_cell_length_a                    16.761268
_cell_length_b                    16.82359
_cell_length_c                    16.823632
_cell_angle_alpha                 67.657979
_cell_angle_beta                  67.676927
_cell_angle_gamma                 67.678229
_cell_volume                      3902.36535902

loop_
_atom_site_label
_atom_site_type_symbol
_atom_type_description
_atom_site_fract_x
_atom_site_fract_y
_atom_site_fract_z
_atom_type_partial_charge
C1    C     C_R   0.027020 0.828646 0.565027 0.537915
C2    C     C_R   0.015689 0.569033 0.830907 0.540765
C3    C     C_R   0.171578 0.973055 0.434979 0.528984
C4    C     C_R   0.828097 0.028269 0.564506 0.544791
C5    C     C_R   0.449668 0.069821 0.707177 -0.049771
C6    C     C_R   0.487764 0.072495 0.256758 -0.052243
C7    C     C_R   0.062549 0.705690 0.455463 -0.047531
C8    C     C_R   0.037835 0.268947 0.509512 -0.051612
C9    C     C_R   0.702378 0.459944 0.054369 -0.047363
C10   C     C_R   0.294370 0.549955 0.928219 -0.055954
C11   C     C_R   0.297637 0.945580 0.540040 -0.047375
C12   C     C_R   0.984311 0.169093 0.430967 0.540763
C13   C     C_R   0.705645 0.071769 0.450049 -0.055919
C14   C     C_R   0.550352 0.292832 0.930095 -0.049765
C15   C     C_R   0.512275 0.743238 0.927492 -0.052268
C16   C     C_R   0.937435 0.544535 0.294319 -0.047521
C17   C     C_R   0.962159 0.490489 0.731056 -0.051605
C18   C     C_R   0.533371 0.050854 0.534945 -0.027669
C19   C     C_R   0.439735 0.023521 0.443580 -0.026972
C20   C     C_R   0.007274 0.550492 0.545550 -0.028847
C21   C     C_R   0.992719 0.454451 0.449510 -0.028848
C22   C     C_R   0.560314 0.556418 0.976398 -0.026978
C23   C     C_R   0.828422 0.565017 0.026949 0.528989
C24   C     C_R   0.466671 0.465063 0.949057 -0.027657
C25   C     C_R   0.569600 0.057788 0.442286 -0.010820
C26   C     C_R   0.408449 0.008210 0.537436 -0.015170
C27   C     C_R   0.992940 0.465122 0.588721 -0.013169
C28   C     C_R   0.986341 0.546608 0.412085 -0.012979
C29   C     C_R   0.485828 0.605369 0.940921 -0.010262
C30   C     C_R   0.553389 0.421047 0.961160 -0.013684
C31   C     C_R   0.514216 0.059013 0.394632 -0.010254
C32   C     C_R   0.446659 0.038732 0.578962 -0.013694
C33   C     C_R   0.430442 0.557719 0.942141 -0.010847
C34   C     C_R   0.171905 0.435494 0.971732 0.544786
C35   C     C_R   0.591602 0.462565 0.991687 -0.015156
C36   C     C_R   0.007057 0.411280 0.534878 -0.013161
C37   C     C_R   0.013645 0.587919 0.453394 -0.012976
C38   C     C_R   0.401137 0.061372 0.660876 0.228983
C39   C     C_R   0.527988 0.095584 0.300644 0.226517
C40   C     C_R   0.050386 0.661763 0.407050 0.226814
C41   C     C_R   0.038951 0.316974 0.560362 0.225440
C42   C     C_R   0.657280 0.414210 0.039828 0.226059
C43   C     C_R   0.340551 0.598100 0.937163 0.220872
C44   C     C_R   0.342754 0.960081 0.585783 0.226051
C45   C     C_R   0.564821 0.027642 0.828194 0.527244
C46   C     C_R   0.659469 0.062820 0.401900 0.220901
C47   C     C_R   0.598898 0.339132 0.938524 0.228975
C48   C     C_R   0.472029 0.699365 0.904405 0.226488
C49   C     C_R   0.949597 0.592950 0.338245 0.226819
C50   C     C_R   0.961050 0.439635 0.683028 0.225408
C51   C     C_R   0.543740 0.054833 0.675380 -0.033822
C52   C     C_R   0.426029 0.021171 0.304479 -0.034212
C53   C     C_R   0.037694 0.679681 0.549876 -0.031674
C54   C     C_R   0.001667 0.311547 0.435444 -0.033667
C55   C     C_R   0.680702 0.553861 0.027468 -0.033140
C56   C     C_R   0.430103 0.986432 0.168268 0.547998
C57   C     C_R   0.326226 0.456415 0.942047 -0.031418
C58   C     C_R   0.319310 0.972505 0.446126 -0.033152
C59   C     C_R   0.673789 0.057924 0.543589 -0.031430
C60   C     C_R   0.456277 0.324626 0.945113 -0.033823
C61   C     C_R   0.573988 0.695512 0.978818 -0.034223
C62   C     C_R   0.962300 0.450123 0.320323 -0.031673
C63   C     C_R   0.998330 0.564557 0.688453 -0.033664
C64   C     C_R   0.598022 0.044288 0.729005 -0.027055
C65   C     C_R   0.388527 0.991427 0.261517 -0.024375
C66   C     C_R   0.035884 0.731424 0.601120 -0.027357
C67   C     C_R   0.435182 0.171806 0.972351 0.527231
C68   C     C_R   0.985281 0.263968 0.391437 -0.024306
C69   C     C_R   0.731280 0.602005 0.033442 -0.029221
C70   C     C_R   0.271535 0.402316 0.954298 -0.026153
C71   C     C_R   0.268714 0.966571 0.397977 -0.029218
C72   C     C_R   0.728470 0.045695 0.597685 -0.026155
C73   C     C_R   0.401984 0.270996 0.955692 -0.027052
C74   C     C_R   0.611462 0.738463 0.008601 -0.024381
C75   C     C_R   0.964114 0.398878 0.268579 -0.027361
C76   C     C_R   0.014718 0.608564 0.736031 -0.024309
C77   C     C_R   0.688938 0.040031 0.688749 -0.151074
C78   C     C_R   0.569890 0.831716 0.013596 0.547959
C79   C     C_R   0.307973 0.968578 0.308077 -0.149607
C80   C     C_R   0.030275 0.692558 0.691985 -0.151950
C81   C     C_R   0.969726 0.308013 0.307443 -0.151949
C82   C     C_R   0.692000 0.691898 0.031470 -0.149614
C83   C     C_R   0.311063 0.311250 0.959968 -0.151068
C84   C     C_R   0.583915 0.054370 0.584706 0.009903
C85   C     C_R   0.395423 0.005046 0.398194 0.009912
C86   C     C_R   0.015046 0.598080 0.594623 0.008329
C87   C     C_R   0.984950 0.405377 0.401922 0.008330
C88   C     C_R   0.604604 0.601798 0.994911 0.009911
C89   C     C_R   0.972979 0.434972 0.171354 0.537910
C90   C     C_R   0.416110 0.415301 0.945570 0.009911
Cu1   Cu    Cu3+1 0.995180 0.995180 0.424630 0.995032
Cu2   Cu    Cu3+1 0.004820 0.004820 0.575370 0.998137
Cu3   Cu    Cu3+1 0.995180 0.424630 0.995180 0.998134
Cu4   Cu    Cu3+1 0.004820 0.575370 0.004820 0.995062
Cu5   Cu    Cu3+1 0.424630 0.995180 0.995180 0.993278
Cu6   Cu    Cu3+1 0.575370 0.004820 0.004820 0.993261
H1    H     H_    0.410693 0.092997 0.765779 0.182746
H2    H     H_    0.499837 0.814703 0.898343 0.175695
H3    H     H_    0.903814 0.582785 0.242393 0.174460
H4    H     H_    0.928976 0.473168 0.801569 0.182941
H5    H     H_    0.730601 0.028861 0.729985 0.164620
H6    H     H_    0.273625 0.955701 0.273078 0.162945
H7    H     H_    0.035113 0.729567 0.729672 0.164409
H8    H     H_    0.964891 0.270324 0.270433 0.164410
H9    H     H_    0.726329 0.726887 0.044380 0.162922
H10   H     H_    0.269396 0.270010 0.971156 0.164617
H11   H     H_    0.281827 0.100705 0.645423 0.356714
H12   H     H_    0.500177 0.101694 0.185295 0.175656
H13   H     H_    0.572386 0.190797 0.290344 0.350308
H14   H     H_    0.096840 0.638028 0.291251 0.348971
H15   H     H_    0.100613 0.309536 0.641201 0.348670
H16   H     H_    0.620874 0.304775 0.093052 0.366880
H17   H     H_    0.311272 0.691055 0.992304 0.352601
H18   H     H_    0.379157 0.906846 0.695224 0.366850
H19   H     H_    0.688765 0.007797 0.308860 0.352602
H20   H     H_    0.718209 0.354569 0.899194 0.356743
H21   H     H_    0.427507 0.709756 0.809241 0.350305
H22   H     H_    0.903136 0.708745 0.361986 0.348960
H23   H     H_    0.096162 0.757623 0.417207 0.174481
H24   H     H_    0.899376 0.358803 0.690475 0.348653
H25   H     H_    0.071008 0.198437 0.526840 0.182959
H26   H     H_    0.750408 0.420699 0.092789 0.174631
H27   H     H_    0.232447 0.589106 0.911309 0.186294
H28   H     H_    0.249588 0.907177 0.579275 0.174628
H29   H     H_    0.767548 0.088725 0.410900 0.186276
H30   H     H_    0.589314 0.234233 0.906909 0.182712
O1    O     O_R   0.124540 0.978640 0.385460 -0.507916
O2    O     O_R   0.124540 0.385460 0.978640 -0.498082
O3    O     O_R   0.021360 0.875460 0.614540 -0.504759
O4    O     O_R   0.978640 0.124540 0.385460 -0.507846
O5    O     O_R   0.013780 0.867370 0.487190 -0.512784
O6    O     O_R   0.986220 0.132630 0.512810 -0.516398
O7    O     O_R   0.867370 0.487190 0.013780 -0.521739
O8    O     O_R   0.132630 0.512810 0.986220 -0.513565
O9    O     O_R   0.487190 0.013780 0.867370 -0.527215
O10   O     O_R   0.512810 0.986220 0.132630 -0.508031
O11   O     O_R   0.512810 0.132630 0.986220 -0.527205
O12   O     O_R   0.875460 0.021360 0.614540 -0.498082
O13   O     O_R   0.487190 0.867370 0.013780 -0.508022
O14   O     O_R   0.986220 0.512810 0.132630 -0.512772
O15   O     O_R   0.013780 0.487190 0.867370 -0.516391
O16   O     O_R   0.132630 0.986220 0.512810 -0.521733
O17   O     O_R   0.867370 0.013780 0.487190 -0.513570
O18   O     O_3   0.308989 0.081920 0.695001 -0.641641
O19   O     O_3   0.573886 0.159408 0.250258 -0.657726
O20   O     O_3   0.081738 0.689017 0.315106 -0.660366
O21   O     O_3   0.078080 0.269471 0.629798 -0.655383
O22   O     O_3   0.675332 0.323180 0.079097 -0.631906
O23   O     O_R   0.978640 0.385460 0.124540 -0.504761
O24   O     O_3   0.291841 0.681892 0.948430 -0.642108
O25   O     O_3   0.324695 0.920794 0.676814 -0.631888
O26   O     O_3   0.708143 0.051675 0.318071 -0.642166
O27   O     O_3   0.691044 0.305001 0.917967 -0.641680
O28   O     O_3   0.426035 0.749802 0.840661 -0.657701
O29   O     O_3   0.918238 0.684892 0.310995 -0.660374
O30   O     O_3   0.921934 0.370189 0.730532 -0.655385
O31   O     O_R   0.021360 0.614540 0.875460 -0.507843
O32   O     O_R   0.385460 0.124540 0.978640 -0.508573
O33   O     O_R   0.614540 0.875460 0.021360 -0.500626
O34   O     O_R   0.614540 0.021360 0.875460 -0.508563
O35   O     O_R   0.385460 0.978640 0.124540 -0.500648
O36   O     O_R   0.875460 0.614540 0.021360 -0.507902

loop_
_geom_bond_atom_site_label_1
_geom_bond_atom_site_label_2
_ccdc_geom_bond_type
C25   C31   A    
C46   O26   S    
C21   C87   A    
C26   C32   A    
Cu3   Cu4   S    
C65   C79   A    
C22   C29   A    
Cu5   O32   S    
Cu4   O14   S    
C64   C77   A    
C23   C69   S    
Cu3   O23   S    
Cu5   Cu6   S    
C3    O16   A    
Cu3   O15   S    
Cu2   O12   S    
C78   O13   A    
C4    O17   A    
C71   C79   A    
C26   C44   A    
Cu6   O10   S    
C21   C36   A    
C45   O34   A    
C22   C35   A    
C12   C68   S    
C9    C42   A    
Cu1   O1    S    
C30   C35   A    
C68   C81   A    
H18   O25   S    
C52   C85   A    
Cu2   O6    S    
C37   C40   A    
C1    O3    A    
Cu5   O35   S    
C54   C87   A    
C3    O1    A    
C58   C71   A    
C54   C68   A    
C63   C76   A    
C34   O8    A    
C56   C65   S    
C29   C33   A    
C60   C73   A    
H24   O30   S    
C82   H9    S    
C55   C88   A    
C35   C42   A    
C19   C26   A    
C48   O28   S    
C69   C82   A    
C77   H5    S    
C11   H28   S    
C50   O30   S    
C20   C86   A    
H19   O26   S    
C18   C84   A    
C7    C40   A    
C79   H6    S    
C53   C86   A    
C9    C55   A    
C22   C88   A    
C57   C70   A    
C11   C58   A    
Cu2   O16   S    
Cu4   O36   S    
Cu1   Cu2   S    
C27   C50   A    
C59   C72   A    
C23   O36   A    
C13   H29   S    
C89   O23   A    
C19   C31   A    
C5    C38   A    
C36   C41   A    
C18   C25   A    
C16   C62   A    
C15   C48   A    
C74   C82   A    
C56   O10   A    
C24   C33   A    
C9    H26   S    
Cu1   O17   S    
C45   O9    A    
C44   O25   S    
C57   C90   A    
C23   O7    A    
C29   C48   A    
C33   C43   A    
C7    H23   S    
C30   C47   A    
C11   C44   A    
C10   C57   A    
C16   C49   A    
C10   H27   S    
C8    C54   A    
Cu6   O11   S    
Cu1   O4    S    
C75   C81   A    
C47   O27   S    
C1    O5    A    
C56   O35   A    
H16   O22   S    
C3    C71   S    
C72   C77   A    
C70   C83   A    
C61   C88   A    
H15   O21   S    
C28   C49   A    
C41   O21   S    
C89   O14   A    
C39   O19   S    
Cu5   O9    S    
C1    C66   S    
C15   C61   A    
H22   O29   S    
Cu5   O13   S    
C80   H7    S    
C8    C41   A    
C53   C66   A    
H20   O27   S    
C55   C69   A    
C43   O24   S    
C12   O4    A    
C67   C73   S    
Cu6   O34   S    
C21   C28   A    
C5    H1    S    
Cu4   O31   S    
C32   C38   A    
C63   C86   A    
C61   C74   A    
C62   C75   A    
C18   C32   A    
C7    C53   A    
C15   H2    S    
C58   C85   A    
C4    C72   S    
C2    C76   S    
C14   C60   A    
C34   C70   S    
C12   O6    A    
C10   C43   A    
C38   O18   S    
H17   O24   S    
C49   O29   S    
H13   O19   S    
C51   C64   A    
C76   C80   A    
C19   C85   A    
C24   C90   A    
C17   C50   A    
C16   H3    S    
C14   C47   A    
C13   C59   A    
C20   C27   A    
C60   C90   A    
C27   C36   A    
C66   C80   A    
C62   C87   A    
C45   C64   S    
Cu3   O7    S    
C59   C84   A    
C14   H30   S    
C83   H10   S    
C40   O20   S    
Cu2   O3    S    
Cu3   O2    S    
C17   C63   A    
C20   C37   A    
C13   C46   A    
C28   C37   A    
C2    O31   A    
C51   C84   A    
Cu4   O8    S    
C31   C39   A    
C67   O32   A    
C67   O11   A    
C17   H4    S    
C24   C30   A    
C42   O22   S    
C75   C89   S    
C4    O12   A    
C78   O33   A    
Cu6   O33   S    
Cu1   O5    S    
C34   O2    A    
C74   C78   S    
H21   O28   S    
C8    H25   S    
C2    O15   A    
C6    H12   S    
C6    C39   A    
C5    C51   A    
C6    C52   A    
H11   O18   S    
H14   O20   S    
C25   C46   A    
C73   C83   A    
C52   C65   A    
C81   H8    S    
