data_mof_unit_7086.cif
_audit_creation_date              2012-12-10T18:35:17-0500
_audit_creation_method            fapswitch 2.2
_symmetry_space_group_name_H-M    P1
_symmetry_Int_Tables_number       1
_space_group_crystal_system       triclinic
_cell_length_a                    14.918856
_cell_length_b                    15.458799
_cell_length_c                    17.142654
_cell_angle_alpha                 92.052417
_cell_angle_beta                  99.791738
_cell_angle_gamma                 97.618379
_cell_volume                      3854.68634967

loop_
_atom_site_label
_atom_site_type_symbol
_atom_type_description
_atom_site_fract_x
_atom_site_fract_y
_atom_site_fract_z
_atom_type_partial_charge
C1    C     C_R   0.557187 0.662444 0.513286 0.846909
C2    C     C_R   0.442620 0.337603 0.490188 0.850265
C3    C     C_R   0.590897 0.755227 0.531583 -0.057155
C4    C     C_R   0.408385 0.245943 0.498183 -0.063011
C5    C     C_R   0.713464 0.876313 0.566703 -0.207622
C6    C     C_R   0.288876 0.130433 0.516689 -0.208788
C7    C     C_R   0.684899 0.787284 0.548186 -0.202611
C8    C     C_R   0.315693 0.216771 0.499874 -0.206790
C9    C     C_R   0.526324 0.811803 0.536176 -0.265346
C10   C     C_R   0.473253 0.189011 0.514008 -0.265515
C11   C     C_R   0.553165 0.900700 0.556296 0.089661
C12   C     C_R   0.449170 0.104705 0.536465 0.090032
C13   C     C_R   0.648210 0.933533 0.568992 0.181515
C14   C     C_R   0.354974 0.073827 0.534070 0.177070
C15   C     C_R   0.487221 0.958497 0.557332 0.068475
C16   C     C_R   0.516389 0.048939 0.556145 0.071351
C17   C     C_R   0.611634 0.080460 0.573667 -0.235031
C18   C     C_R   0.393099 0.929144 0.557539 -0.234925
C19   C     C_R   0.676485 0.023210 0.581448 -0.241646
C20   C     C_R   0.328340 0.986671 0.547739 -0.245458
C21   C     C_R   0.171188 0.648308 0.394792 0.063849
C22   C     C_R   0.827971 0.351326 0.606013 0.064331
C23   C     C_R   0.512213 0.500314 0.351108 0.870860
C24   C     C_R   0.487841 0.499809 0.648898 0.867953
C25   C     C_R   0.257102 0.619489 0.408144 0.004695
C26   C     C_R   0.741967 0.379865 0.591278 0.006303
C27   C     C_R   0.203876 0.505430 0.484211 -0.077956
C28   C     C_R   0.797005 0.495263 0.517479 -0.079651
C29   C     C_R   0.116347 0.532030 0.475000 -0.038217
C30   C     C_R   0.884648 0.468780 0.527786 -0.038057
C31   C     C_R   0.104749 0.612664 0.439674 0.059674
C32   C     C_R   0.895763 0.387814 0.562751 0.059502
C33   C     C_R   0.041832 0.482557 0.501999 0.046960
C34   C     C_R   0.959592 0.518595 0.501737 0.047897
C35   C     C_R   0.956726 0.605741 0.481008 -0.232295
C36   C     C_R   0.044984 0.395669 0.523351 -0.230337
C37   C     C_R   0.029687 0.654718 0.453799 0.161487
C38   C     C_R   0.971735 0.346321 0.549880 0.162969
C39   C     C_R   0.520099 0.509428 0.269253 -0.083439
C40   C     C_R   0.479982 0.490845 0.730746 -0.081407
C41   C     C_R   0.453324 0.457734 0.214533 -0.249592
C42   C     C_R   0.545104 0.544488 0.785267 -0.247922
C43   C     C_R   0.448784 0.468725 0.135194 -0.206973
C44   C     C_R   0.549670 0.534050 0.864701 -0.206729
C45   C     C_R   0.512770 0.529948 0.108837 0.130942
C46   C     C_R   0.487255 0.471393 0.891323 0.131271
C47   C     C_R   0.583084 0.582710 0.162689 0.180001
C48   C     C_R   0.418737 0.416449 0.837565 0.180926
C49   C     C_R   0.585132 0.574170 0.245254 0.106753
C50   C     C_R   0.416771 0.424558 0.754980 0.103231
C51   C     C_2   0.504101 0.536884 0.023726 -0.224268
C52   C     C_2   0.495941 0.464832 0.976528 -0.224273
H1    H     H_    0.402728 0.409924 0.233641 0.158085
H2    H     H_    0.594449 0.593414 0.765948 0.158226
H3    H     H_    0.637636 0.149321 0.583005 0.141322
H4    H     H_    0.368055 0.862286 0.567075 0.149953
H5    H     H_    0.779927 0.550012 0.483748 0.137310
H6    H     H_    0.221687 0.451203 0.518367 0.136732
H7    H     H_    0.685713 0.348767 0.617334 0.139198
H8    H     H_    0.312540 0.649995 0.380781 0.141686
H9    H     H_    0.900186 0.639132 0.490470 0.141788
H10   H     H_    0.102008 0.362642 0.514762 0.141952
H11   H     H_    0.494577 0.400881 0.000911 0.158950
H12   H     H_    0.505560 0.600976 0.999614 0.157956
H13   H     H_    0.602983 0.575004 0.905820 0.154578
H14   H     H_    0.394389 0.429260 0.093907 0.154698
H15   H     H_    0.748877 0.049434 0.593485 0.138537
H16   H     H_    0.256825 0.962079 0.547744 0.146883
H17   H     H_    0.542980 0.211067 0.507112 0.161821
H18   H     H_    0.454523 0.785969 0.520472 0.161203
H19   H     H_    0.264509 0.260549 0.489049 0.152394
H20   H     H_    0.735966 0.744002 0.545811 0.152551
H21   H     H_    0.786285 0.900697 0.577416 0.134665
H22   H     H_    0.216810 0.108011 0.516284 0.136278
N1    N     N_R   0.271750 0.551950 0.454510 -0.116937
N2    N     N_R   0.728250 0.448050 0.545490 -0.115834
O1    O     O_R   0.615140 0.606020 0.522930 -0.620848
O2    O     O_R   0.384860 0.393980 0.477070 -0.619811
O3    O     O_R   0.468580 0.639400 0.493740 -0.624899
O4    O     O_R   0.531420 0.360600 0.506260 -0.624033
O5    O     O_R   0.581950 0.481350 0.400520 -0.603200
O6    O     O_R   0.418050 0.518650 0.599480 -0.605426
O7    O     O_R   0.435380 0.514730 0.371330 -0.617331
O8    O     O_R   0.564620 0.485270 0.628670 -0.617884
Zn1   Zn    Zn3+2 0.597860 0.477710 0.519490 0.938034
Zn2   Zn    Zn3+2 0.402140 0.522290 0.480510 0.936765
C53   C     C_3   0.030423 0.753369 0.452165 -0.442059
C54   C     C_3   0.022232 0.795076 0.532585 -0.870844
H23   H     H_    0.952775 0.776209 0.546941 0.250303
H24   H     H_    0.074702 0.775366 0.580156 0.266782
H25   H     H_    0.033808 0.867411 0.530884 0.242041
H26   H     H_    0.095698 0.786856 0.438535 0.211470
H27   H     H_    0.973009 0.767816 0.406346 0.203108
C55   C     C_3   0.972040 0.247798 0.552294 -0.445773
C56   C     C_3   0.984454 0.205829 0.473229 -0.864814
H28   H     H_    0.934379 0.225584 0.423745 0.269192
H29   H     H_    0.055283 0.224315 0.461798 0.247850
H30   H     H_    0.972363 0.133514 0.474972 0.243735
H31   H     H_    0.027966 0.234137 0.599934 0.201780
H32   H     H_    0.905975 0.213734 0.563769 0.211408
C57   C     C_3   0.150239 0.707154 0.326813 -0.459028
C58   C     C_3   0.165162 0.666574 0.248119 -0.849638
H33   H     H_    0.238940 0.661959 0.249023 0.252379
H34   H     H_    0.124758 0.600312 0.235809 0.264988
H35   H     H_    0.142017 0.708151 0.199241 0.247510
H36   H     H_    0.077341 0.718066 0.317048 0.218115
H37   H     H_    0.194705 0.771352 0.340220 0.206337
C59   C     C_3   0.847240 0.291689 0.673696 -0.463847
C60   C     C_3   0.828835 0.330537 0.751839 -0.846924
H38   H     H_    0.867856 0.397251 0.765538 0.264931
H39   H     H_    0.754480 0.333617 0.749185 0.252039
H40   H     H_    0.851297 0.288683 0.800702 0.247499
H41   H     H_    0.803768 0.227166 0.658711 0.200744
H42   H     H_    0.920407 0.281728 0.685285 0.218907
C61   C     C_3   0.353515 0.360354 0.693417 -0.401906
C62   C     C_3   0.255756 0.382882 0.676990 -0.843841
H43   H     H_    0.256281 0.451877 0.660994 0.269638
H44   H     H_    0.214971 0.339253 0.627059 0.230858
H45   H     H_    0.221494 0.373146 0.729009 0.260335
H46   H     H_    0.378754 0.359084 0.636417 0.204240
H47   H     H_    0.353805 0.292137 0.711302 0.189477
C63   C     C_3   0.650581 0.636426 0.307052 -0.409765
C64   C     C_3   0.746875 0.610262 0.322844 -0.837324
H48   H     H_    0.789773 0.653477 0.372055 0.230195
H49   H     H_    0.743814 0.541363 0.339601 0.270602
H50   H     H_    0.780515 0.617536 0.270253 0.260212
H51   H     H_    0.652986 0.704910 0.289453 0.184457
H52   H     H_    0.625670 0.638877 0.364245 0.201959
C65   C     C_3   0.654671 0.645172 0.130797 -0.424642
C66   C     C_3   0.722387 0.595728 0.095861 -0.857279
H53   H     H_    0.754756 0.553320 0.140047 0.261868
H54   H     H_    0.687757 0.554312 0.042352 0.264531
H55   H     H_    0.777176 0.643207 0.078609 0.243036
H56   H     H_    0.620443 0.684739 0.085045 0.188154
H57   H     H_    0.695266 0.693927 0.176218 0.213468
C67   C     C_3   0.348837 0.352101 0.869489 -0.423834
C68   C     C_3   0.278736 0.399216 0.903400 -0.858709
H58   H     H_    0.311825 0.442299 0.956314 0.263932
H59   H     H_    0.244484 0.439617 0.858377 0.262327
H60   H     H_    0.225640 0.350324 0.921270 0.243042
H61   H     H_    0.310163 0.302104 0.824279 0.213560
H62   H     H_    0.384292 0.313946 0.915763 0.187983

loop_
_geom_bond_atom_site_label_1
_geom_bond_atom_site_label_2
_ccdc_geom_bond_type
C57   H37   S    
C15   C18   A    
C53   C54   S    
C57   C58   S    
C61   H47   S    
C29   C33   A    
C27   C29   A    
C1    O1    A    
C66   H54   S    
C56   H28   S    
C4    C8    A    
C22   C59   S    
C56   H30   S    
C64   H48   S    
C39   C41   A    
C28   H5    S    
C59   C60   S    
C68   H59   S    
O4    Zn1   S    
C22   C32   A    
C47   C65   S    
C2    O2    A    
C35   C37   A    
C34   C35   A    
C3    C7    A    
C60   H39   S    
C27   N1    A    
C64   H49   S    
C45   C51   S    
C15   C16   A    
C46   C52   S    
C33   C36   A    
C62   H43   S    
C58   H35   S    
C50   C61   S    
C59   H42   S    
C63   H51   S    
C24   O6    A    
C67   H62   S    
C17   C19   A    
C65   H57   S    
C11   C15   A    
C12   C16   A    
C44   C46   A    
C16   C17   A    
C26   N2    A    
C19   H15   S    
C25   H8    S    
C32   C38   A    
C26   H7    S    
C17   H3    S    
C5    C13   A    
C18   H4    S    
C21   C57   S    
O2    Zn2   S    
C40   C42   A    
O1    Zn1   S    
C53   H26   S    
C5    H21   S    
C41   C43   A    
C44   H13   S    
C55   C56   S    
C42   C44   A    
C36   H10   S    
C10   C12   A    
C20   H16   S    
C6    H22   S    
C45   C47   A    
C68   H60   S    
C46   C48   A    
C30   C34   A    
C51   C52   D    
C14   C20   A    
O8    Zn1   S    
C47   C49   A    
C60   H40   S    
C7    H20   S    
C5    C7    A    
C13   C19   A    
C64   H50   S    
C6    C8    A    
O6    Zn2   S    
C52   H11   S    
C31   C37   A    
C25   N1    A    
C59   H41   S    
C2    C4    S    
C67   H61   S    
C3    C9    A    
C6    C14   A    
C43   C45   A    
N1    Zn2   S    
C54   H25   S    
C55   H32   S    
C38   C55   S    
C33   C34   A    
C35   H9    S    
C9    H18   S    
C58   H34   S    
C48   C50   A    
C9    C11   A    
C41   H1    S    
C21   C31   A    
C23   O7    A    
C39   C49   A    
C12   C14   A    
C1    O3    A    
C66   H55   S    
C4    C10   A    
C28   N2    A    
C65   C66   S    
C57   H36   S    
C21   C25   A    
C8    H19   S    
C23   O5    A    
C48   C67   S    
C37   C53   S    
C51   H12   S    
C54   H24   S    
C67   C68   S    
C27   H6    S    
C56   H29   S    
C68   H58   S    
C62   H45   S    
C36   C38   A    
C66   H53   S    
C24   O8    A    
C29   C31   A    
C60   H38   S    
C42   H2    S    
C30   C32   A    
C11   C13   A    
C55   H31   S    
C43   H14   S    
C23   C39   S    
C49   C63   S    
C53   H27   S    
C28   C30   A    
C24   C40   S    
C62   H44   S    
C18   C20   A    
C63   H52   S    
C58   H33   S    
C2    O4    A    
C65   H56   S    
C10   H17   S    
C40   C50   A    
O7    Zn2   S    
C54   H23   S    
C61   H46   S    
C22   C26   A    
C1    C3    S    
C63   C64   S    
N2    Zn1   S    
O3    Zn2   S    
O5    Zn1   S    
C61   C62   S    
