data_mof_unit_23547.cif
_audit_creation_date              2012-12-10T16:48:04-0500
_audit_creation_method            fapswitch 2.2
_symmetry_space_group_name_H-M    P1
_symmetry_Int_Tables_number       1
_space_group_crystal_system       triclinic
_cell_length_a                    15.859653
_cell_length_b                    8.776861
_cell_length_c                    7.488464
_cell_angle_alpha                 103.164965
_cell_angle_beta                  94.251102
_cell_angle_gamma                 92.819951
_cell_volume                      1009.84464345

loop_
_atom_site_label
_atom_site_type_symbol
_atom_type_description
_atom_site_fract_x
_atom_site_fract_y
_atom_site_fract_z
_atom_type_partial_charge
C1    C     C_R   0.498008 0.200529 0.453735 0.809580
C2    C     C_3   0.978607 0.644053 0.592597 -0.257394
C3    C     C_1   0.250907 0.499349 0.506498 -0.125672
C4    C     C_1   0.749092 0.500649 0.493502 -0.125635
C5    C     C_3   0.032873 0.529294 0.672673 0.134716
C6    C     C_3   0.967126 0.470697 0.327327 0.134715
C7    C     C_3   0.083965 0.497964 0.503600 0.078305
C8    C     C_3   0.916035 0.502027 0.496400 0.078279
C9    C     C_1   0.175512 0.498757 0.506891 -0.006050
C10   C     C_1   0.824488 0.501237 0.493108 -0.006082
C11   C     C_R   0.502004 0.799474 0.546270 0.809679
C12   C     C_R   0.340178 0.499615 0.502099 0.790535
C13   C     C_R   0.659821 0.500385 0.497901 0.790575
C14   C     C_2   0.503864 0.034313 0.428418 -0.044593
C15   C     C_2   0.496213 0.965709 0.571623 -0.044611
C16   C     C_3   0.970429 0.390683 0.578845 0.186444
C17   C     C_3   0.029570 0.609306 0.421155 0.186454
C18   C     C_3   0.021393 0.355936 0.407404 -0.257380
Cu1   Cu    Cu3+1 0.509330 0.517380 0.684380 1.118470
Cu2   Cu    Cu3+1 0.490670 0.482620 0.315620 1.118444
F1    F     F_    0.413271 0.369067 0.929351 -0.544430
F2    F     F_    0.586728 0.630935 0.070649 -0.544353
H1    H     H_    0.038286 0.238748 0.332237 0.160741
H2    H     H_    0.118748 0.646536 0.877695 0.228198
H3    H     H_    0.578217 0.996654 0.215001 0.229670
H4    H     H_    0.472937 0.958123 0.153016 0.233211
H5    H     H_    0.421708 0.003752 0.784697 0.229789
H6    H     H_    0.526904 0.041555 0.847137 0.233328
H7    H     H_    0.961714 0.761242 0.667763 0.160751
H8    H     H_    0.987513 0.231081 0.734439 0.230803
H9    H     H_    0.896907 0.322968 0.761566 0.227497
H10   H     H_    0.012476 0.768996 0.265670 0.230805
H11   H     H_    0.103051 0.677004 0.238344 0.227476
H12   H     H_    0.976858 0.390272 0.056253 0.224100
H13   H     H_    0.881223 0.353511 0.122324 0.228221
H14   H     H_    0.023131 0.609654 0.943753 0.224128
N1    N     N_2   0.476600 0.456420 0.038510 0.236222
N2    N     N_2   0.523400 0.543580 0.961490 0.236219
N3    N     N_3   0.936652 0.270005 0.664025 -0.583133
N4    N     N_3   0.063347 0.729993 0.335989 -0.583115
N5    N     N_3   0.930387 0.440501 0.138055 -0.595532
N6    N     N_3   0.069613 0.559492 0.861946 -0.595541
N7    N     N_3   0.522094 0.947202 0.249495 -0.504422
N8    N     N_3   0.477950 0.052813 0.750534 -0.504785
O1    O     O_R   0.506070 0.286130 0.619780 -0.522779
O2    O     O_R   0.493930 0.713870 0.380220 -0.522859
O3    O     O_R   0.490300 0.256770 0.308360 -0.600807
O4    O     O_R   0.509700 0.743230 0.691640 -0.600789
O5    O     O_R   0.386960 0.514660 0.655680 -0.538606
O6    O     O_R   0.613040 0.485340 0.344320 -0.538593
O7    O     O_R   0.371190 0.485310 0.344260 -0.565104
O8    O     O_R   0.628810 0.514690 0.655740 -0.565089

loop_
_geom_bond_atom_site_label_1
_geom_bond_atom_site_label_2
_ccdc_geom_bond_type
H11   N4    S    
H4    N7    S    
C6    C8    S    
C5    N6    S    
Cu1   O1    S    
N1    N2    D    
C3    C9    T    
Cu1   N2    S    
C1    C14   S    
C13   O8    A    
H2    N6    S    
Cu1   O5    S    
H14   N6    S    
Cu1   Cu2   S    
C7    C18   S    
H3    N7    S    
C12   O5    A    
C8    C16   S    
C2    C17   S    
Cu2   N1    S    
C1    O1    A    
C11   O4    A    
H12   N5    S    
C2    H7    S    
H13   N5    S    
Cu1   O8    S    
C16   C18   S    
H9    N3    S    
C15   N8    S    
Cu2   O7    S    
H10   N4    S    
C6    C18   S    
C2    C8    S    
C2    C5    S    
C16   N3    S    
C4    C10   T    
C13   O6    A    
Cu2   O3    S    
C7    C9    S    
C4    C13   S    
C12   O7    A    
F1    N1    S    
C8    C10   S    
C6    N5    S    
H8    N3    S    
C5    C7    S    
C6    C17   S    
C14   C15   D    
C1    O3    A    
C11   O2    A    
Cu2   O6    S    
C3    C12   S    
C7    C17   S    
Cu1   O4    S    
C11   C15   S    
H5    N8    S    
H6    N8    S    
Cu2   O2    S    
C18   H1    S    
C14   N7    S    
C5    C16   S    
C17   N4    S    
F2    N2    S    
