data_mof_unit_29629.cif
_audit_creation_date              2012-12-11T16:08:52-0500
_audit_creation_method            fapswitch 2.2
_symmetry_space_group_name_H-M    P1
_symmetry_Int_Tables_number       1
_space_group_crystal_system       triclinic
_cell_length_a                    12.965878
_cell_length_b                    13.272887
_cell_length_c                    27.739991
_cell_angle_alpha                 94.80943
_cell_angle_beta                  89.82668
_cell_angle_gamma                 119.318362
_cell_volume                      4143.79503389

loop_
_atom_site_label
_atom_site_type_symbol
_atom_type_description
_atom_site_fract_x
_atom_site_fract_y
_atom_site_fract_z
_atom_type_partial_charge
C1    C     C_R   0.627647 0.896633 0.426935 0.540860
C2    C     C_R   0.584021 0.339267 0.229850 0.251482
C3    C     C_R   0.577077 0.325460 0.279365 -0.101820
C4    C     C_R   0.670963 0.327839 0.305240 -0.007902
C5    C     C_R   0.684988 0.353558 0.205566 -0.010560
C6    C     C_1   0.695388 0.373106 0.155013 0.024029
C7    C     C_1   0.655744 0.302692 0.355142 0.024487
C8    C     C_1   0.704006 0.397578 0.113774 0.046169
C9    C     C_R   0.187273 0.753396 0.349360 -0.102033
C10   C     C_R   0.174015 0.746974 0.299569 0.019566
C11   C     C_R   0.160490 0.738278 0.199135 0.014736
C12   C     C_R   0.601498 0.222457 0.440669 0.549761
C13   C     C_R   0.162984 0.648382 0.221133 -0.110426
C14   C     C_R   0.167558 0.651733 0.271155 -0.084629
C15   C     C_R   0.146206 0.729564 0.149318 -0.111460
C16   C     C_R   0.124460 0.808786 0.127253 -0.013010
C17   C     C_R   0.204579 0.944654 0.356979 -0.103475
C18   C     C_R   0.184951 0.937638 0.306713 -0.028401
C19   C     C_R   0.174162 0.839654 0.277881 0.011199
C20   C     C_R   0.182039 0.028154 0.284372 0.243964
C21   C     C_R   0.167776 0.020185 0.233638 0.269966
C22   C     C_R   0.158263 0.922709 0.204931 -0.025754
C23   C     C_R   0.269369 0.876390 0.425610 0.545406
C24   C     C_R   0.164891 0.834109 0.227330 0.010889
C25   C     C_R   0.136241 0.907994 0.154527 -0.092915
C26   C     C_R   0.211431 0.855229 0.377814 -0.015383
C27   C     C_R   0.739744 0.952157 0.353409 -0.109687
C28   C     C_R   0.738937 0.942696 0.303332 -0.034090
C29   C     C_R   0.735636 0.927309 0.202350 0.005919
C30   C     C_R   0.816048 0.031716 0.229415 0.260865
C31   C     C_R   0.819394 0.037377 0.279612 -0.047604
C32   C     C_R   0.742883 0.913314 0.152514 -0.132877
C33   C     C_R   0.672837 0.805414 0.126420 -0.005248
C34   C     C_R   0.627119 0.898305 0.564830 0.544892
C35   C     C_R   0.565172 0.761795 0.351799 -0.099125
C36   C     C_R   0.566178 0.747896 0.301164 0.023966
C37   C     C_R   0.652180 0.840638 0.276833 0.013801
C38   C     C_R   0.480585 0.646384 0.274075 0.211473
C39   C     C_R   0.481803 0.637529 0.223661 -0.037303
C40   C     C_R   0.567829 0.728571 0.199078 -0.013361
C41   C     C_R   0.651652 0.832118 0.226053 -0.026121
C42   C     C_R   0.576233 0.716450 0.148507 0.219292
C43   C     C_R   0.649013 0.865435 0.377652 -0.013492
C44   C     C_R   0.743330 0.318356 0.651946 0.211816
C45   C     C_R   0.601703 0.225482 0.578948 0.576238
C46   C     C_R   0.756110 0.335486 0.702907 0.027906
C47   C     C_R   0.777706 0.364760 0.804686 0.014857
C48   C     C_R   0.877201 0.390835 0.777454 -0.144532
C49   C     C_R   0.866662 0.376248 0.727087 -0.093950
C50   C     C_R   0.789428 0.387781 0.854842 -0.128336
C51   C     C_R   0.691249 0.372241 0.881470 0.002547
C52   C     C_R   0.533327 0.256727 0.657754 -0.142723
C53   C     C_R   0.543307 0.270765 0.707810 -0.001896
C54   C     C_R   0.655050 0.308915 0.730604 -0.011669
C55   C     C_R   0.443116 0.244215 0.735618 0.224870
C56   C     C_R   0.271557 0.879263 0.563405 0.549317
C57   C     C_R   0.454961 0.256492 0.785816 -0.099856
C58   C     C_R   0.565550 0.296861 0.808780 -0.031417
C59   C     C_R   0.665908 0.322254 0.781323 0.052496
C60   C     C_R   0.578593 0.319986 0.858811 -0.128278
C61   C     C_R   0.630052 0.274156 0.629673 0.000275
C62   C     C_1   0.222731 0.862726 0.610318 0.017872
C63   C     C_R   0.066584 0.763309 0.718913 -0.103886
C64   C     C_R   0.051024 0.753492 0.768522 -0.118576
C65   C     C_R   0.250868 0.912711 0.785996 -0.092919
C66   C     C_R   0.266681 0.921971 0.736378 -0.068636
C67   C     C_1   0.635574 0.272533 0.395505 0.037480
C68   C     C_R   0.174621 0.847446 0.702763 0.053530
C69   C     C_R   0.143195 0.827945 0.802127 0.033305
C70   C     C_1   0.125737 0.815394 0.852930 -0.056852
C71   C     C_1   0.195263 0.853923 0.651896 -0.020790
C72   C     C_1   0.101646 0.797976 0.894461 -0.009719
C73   C     C_1   0.646625 0.859424 0.608945 0.007877
C74   C     C_R   0.782615 0.834233 0.716138 -0.092319
C75   C     C_R   0.795379 0.820003 0.764806 -0.102654
C76   C     C_R   0.585459 0.748009 0.774102 -0.093944
C77   C     C_R   0.572708 0.762391 0.725494 -0.096637
C78   C     C_R   0.773274 0.344874 0.281253 0.249583
C79   C     C_R   0.671350 0.806412 0.696464 0.036969
C80   C     C_R   0.697051 0.777985 0.794037 0.035083
C81   C     C_1   0.711586 0.768884 0.844701 -0.051391
C82   C     C_1   0.659433 0.832554 0.648070 -0.038262
C83   C     C_1   0.726342 0.762426 0.887024 -0.004571
C84   C     C_R   0.064728 0.772410 0.079226 0.549283
C85   C     C_R   0.716916 0.441613 0.067401 0.549214
C86   C     C_R   0.718291 0.782661 0.080516 0.573663
C87   C     C_R   0.056925 0.766478 0.941304 0.540393
C88   C     C_R   0.710543 0.433064 0.929551 0.532378
C89   C     C_R   0.779755 0.357609 0.231519 -0.097457
C90   C     C_R   0.748855 0.754845 0.936892 0.552489
Cr1   Cr    Cr6+3 0.416430 0.829200 0.492370 1.067202
Cr2   Cr    Cr6+3 0.674630 0.087020 0.504170 1.116435
Cr3   Cr    Cr6+3 0.408920 0.083740 0.503490 1.068357
Cr4   Cr    Cr6+3 0.914010 0.832750 0.013970 1.058205
Cr5   Cr    Cr6+3 0.922310 0.578600 0.003000 1.040412
Cr6   Cr    Cr6+3 0.656280 0.574630 0.003870 1.109677
H1    H     H_    0.222350 0.022185 0.379727 0.190800
H2    H     H_    0.804985 0.032685 0.373136 0.167964
H3    H     H_    0.415910 0.557368 0.204230 0.243504
H4    H     H_    0.495709 0.695681 0.371146 0.187474
H5    H     H_    0.876863 0.427540 0.872435 0.139038
H6    H     H_    0.963724 0.424301 0.795119 0.124626
H7    H     H_    0.945979 0.397613 0.707530 0.188939
H8    H     H_    0.502620 0.306552 0.879619 0.137626
H9    H     H_    0.377984 0.237200 0.806923 0.150997
H10   H     H_    0.446871 0.224037 0.640413 0.213446
H11   H     H_    0.967370 0.687436 0.780687 0.116401
H12   H     H_    0.351171 0.986307 0.724167 0.132011
H13   H     H_    0.859783 0.869412 0.694252 0.137292
H14   H     H_    0.882187 0.843906 0.779883 0.126325
H15   H     H_    0.508854 0.715631 0.796324 0.123471
H16   H     H_    0.486471 0.741756 0.710855 0.123422
H17   H     H_    0.139685 0.653747 0.128358 0.157921
H18   H     H_    0.190424 0.683045 0.365346 0.171136
H19   H     H_    0.158574 0.574164 0.199655 0.161626
H20   H     H_    0.168177 0.580825 0.287634 0.206522
H21   H     H_    0.120650 0.968963 0.136632 0.193641
O1    O     O_R   0.296680 0.802170 0.437540 -0.506318
O2    O     O_R   0.662610 0.183990 0.557860 -0.437498
O3    O     O_R   0.500730 0.201280 0.562180 -0.524641
O4    O     O_R   0.312500 0.978850 0.548170 -0.490778
O5    O     O_3   0.499990 0.999990 0.500010 -0.275804
O6    O     O_R   0.820790 0.857990 0.068830 -0.516265
O7    O     O_R   0.016700 0.827330 0.062850 -0.495069
O8    O     O_R   0.041970 0.673520 0.060040 -0.508275
O9    O     O_R   0.817980 0.483660 0.048840 -0.501314
O10   O     O_R   0.637200 0.461990 0.052510 -0.452120
O11   O     O_R   0.664790 0.681920 0.057970 -0.428780
O12   O     O_R   0.525380 0.838530 0.443500 -0.500256
O13   O     O_R   0.815840 0.852920 0.961840 -0.495540
O14   O     O_R   0.012100 0.822630 0.963670 -0.507860
O15   O     O_R   0.037010 0.668460 0.953040 -0.504610
O16   O     O_R   0.813390 0.478970 0.949660 -0.509345
O17   O     O_R   0.632250 0.456930 0.945520 -0.519251
O18   O     O_R   0.660200 0.677230 0.958780 -0.484208
O19   O     O_3   0.830870 0.661990 0.006950 -0.288988
O20   O     O_R   0.702130 0.995190 0.446810 -0.507950
O21   O     O_R   0.661770 0.181390 0.458760 -0.480364
O22   O     O_R   0.499820 0.198480 0.455280 -0.497053
O23   O     O_R   0.311660 0.976250 0.449080 -0.499989
O24   O     O_R   0.297580 0.804960 0.544440 -0.493758
O25   O     O_R   0.526220 0.841130 0.542590 -0.496807
O26   O     O_R   0.703030 0.997990 0.553710 -0.478835
Cl1   Cl    Cl    0.894400 0.350766 0.312451 -0.561783
Cl2   Cl    Cl    0.164317 0.134486 0.206555 -0.377735
Cl3   Cl    Cl    0.195223 0.152131 0.319344 -0.474658
H22   H     H_    0.811741 0.983085 0.134458 0.206343
Cl4   Cl    Cl    0.913430 0.158267 0.202286 -0.503559
H23   H     H_    0.883545 0.116982 0.300177 0.218202
Cl5   Cl    Cl    0.468089 0.589704 0.113760 -0.532285
Cl6   Cl    Cl    0.371252 0.526362 0.301522 -0.517858
H24   H     H_    0.859008 0.371517 0.213212 0.187148
Cl7   Cl    Cl    0.867752 0.353089 0.616132 -0.580298
Cl8   Cl    Cl    0.300591 0.195873 0.709578 -0.622245
H25   H     H_    0.995278 0.704523 0.693271 0.133216
Cl9   Cl    Cl    0.465587 0.340062 0.199358 -0.452111
H26   H     H_    0.322667 0.970613 0.811613 0.115261
H27   H     H_    0.497841 0.311977 0.297611 0.205346

loop_
_geom_bond_atom_site_label_1
_geom_bond_atom_site_label_2
_ccdc_geom_bond_type
C55   Cl8   S    
C66   C68   A    
C27   H2    S    
C16   C25   A    
C38   Cl6   S    
C57   H9    S    
C35   C36   A    
C16   C84   S    
Cr2   O21   S    
C23   O1    A    
Cr6   O19   S    
C32   H22   S    
C53   C54   A    
C46   C49   A    
Cr4   O13   S    
C5    C6    S    
C17   C26   A    
C36   C37   A    
Cr2   O2    S    
Cr3   O4    S    
C88   O16   A    
C8    C85   S    
C29   C32   A    
C78   Cl1   S    
C52   C61   A    
C68   C71   S    
C38   C39   A    
C31   H23   S    
C65   C69   A    
C58   C60   A    
C15   C16   A    
C9    H18   S    
C11   C24   A    
Cr5   O16   S    
Cr6   O11   S    
C18   C19   A    
C23   C26   S    
C87   O14   A    
Cr2   O26   S    
C11   C15   A    
C1    C43   S    
C89   H24   S    
C34   O25   A    
Cr1   O5    S    
C3    H27   S    
Cr4   O19   S    
C15   H17   S    
C44   Cl7   S    
Cr3   O3    S    
C13   C14   A    
C47   C50   A    
C35   C43   A    
C75   C80   A    
C18   C20   A    
C20   Cl3   S    
Cr4   O6    S    
C45   O2    A    
C40   C42   A    
C52   H10   S    
C21   C22   A    
C85   O9    A    
C74   H13   S    
C4    C7    S    
Cr2   O20   S    
C81   C83   T    
C44   C46   A    
C9    C26   A    
C50   C51   A    
Cr6   O18   S    
C54   C59   A    
C53   C55   A    
C78   C89   A    
C12   C67   S    
C34   O26   A    
Cr1   O1    S    
C74   C75   A    
C86   O11   A    
C23   O23   A    
C77   C79   A    
C76   C77   A    
C65   H26   S    
C10   C14   A    
C39   C40   A    
C12   O21   A    
Cr6   O17   S    
C58   C59   A    
C47   C59   A    
C22   C25   A    
Cr6   O10   S    
C21   Cl2   S    
C87   O15   A    
C77   H16   S    
C33   C86   S    
C4    C78   A    
C29   C30   A    
Cr3   O22   S    
Cr2   O5    S    
Cr5   O8    S    
C39   H3    S    
C47   C48   A    
C10   C19   A    
C48   H6    S    
C46   C54   A    
C17   C18   A    
C12   O22   A    
C64   C69   A    
Cr3   O5    S    
C13   H19   S    
C56   O24   A    
C45   O3    A    
C40   C41   A    
C74   C79   A    
C55   C57   A    
Cr5   O15   S    
C56   C62   S    
C85   O10   A    
C2    C5    A    
C33   C42   A    
C3    C4    A    
C73   C82   T    
C86   O6    A    
C72   C87   S    
C1    O20   A    
C52   C53   A    
C64   H11   S    
C9    C10   A    
C84   O8    A    
C83   C90   S    
C63   C68   A    
C48   C49   A    
C75   H14   S    
C2    Cl9   S    
C29   C41   A    
C28   C31   A    
C76   C80   A    
C66   H12   S    
C80   C81   S    
C25   H21   S    
C51   C88   S    
C49   H7    S    
C79   C82   S    
C6    C8    T    
C30   Cl4   S    
Cr1   O12   S    
C44   C61   A    
C84   O7    A    
C1    O12   A    
Cr4   O14   S    
C32   C33   A    
Cr1   O25   S    
C36   C38   A    
C2    C3    A    
C63   H25   S    
Cr3   O23   S    
C56   O4    A    
C90   O18   A    
C11   C13   A    
Cr5   O9    S    
C57   C58   A    
C30   C31   A    
C28   C37   A    
C76   H15   S    
C14   H20   S    
C45   C61   S    
Cr5   O19   S    
C88   O17   A    
C62   C71   T    
C19   C24   A    
C22   C24   A    
C37   C41   A    
C69   C70   S    
C42   Cl5   S    
C34   C73   S    
C7    C67   T    
C63   C64   A    
C90   O13   A    
C27   C43   A    
C20   C21   A    
C50   H5    S    
C65   C66   A    
C27   C28   A    
C70   C72   T    
C51   C60   A    
C60   H8    S    
C17   H1    S    
C5    C89   A    
C35   H4    S    
Cr1   O24   S    
Cr4   O7    S    
