data_mof_unit_24554.cif
_audit_creation_date              2012-12-10T16:54:53-0500
_audit_creation_method            fapswitch 2.2
_symmetry_space_group_name_H-M    P1
_symmetry_Int_Tables_number       1
_space_group_crystal_system       triclinic
_cell_length_a                    7.778153
_cell_length_b                    8.571369
_cell_length_c                    15.709431
_cell_angle_alpha                 90.995108
_cell_angle_beta                  85.125347
_cell_angle_gamma                 93.738354
_cell_volume                      1041.25626726

loop_
_atom_site_label
_atom_site_type_symbol
_atom_type_description
_atom_site_fract_x
_atom_site_fract_y
_atom_site_fract_z
_atom_type_partial_charge
C1    C     C_R   0.545844 0.794756 0.497704 0.960282
C2    C     C_2   0.430045 0.041687 0.503181 -0.384535
C3    C     C_R   0.500798 0.499980 0.661674 0.905868
C4    C     C_R   0.454150 0.205235 0.502093 0.962869
C5    C     C_R   0.499145 0.500316 0.338385 0.907771
C6    C     C_3   0.370762 0.632683 0.955000 -0.390321
C7    C     C_3   0.678423 0.552230 0.944422 -0.404477
C8    C     C_3   0.678515 0.546493 0.042181 -0.466033
C9    C     C_1   0.497932 0.505785 0.249682 -0.205563
C10   C     C_3   0.494325 0.509115 0.917859 0.262370
C11   C     C_3   0.440674 0.815265 0.076984 -1.047276
C12   C     C_3   0.370772 0.645225 0.054807 0.699536
C13   C     C_3   0.145407 0.676264 0.169127 0.098781
C14   C     C_3   0.015554 0.564032 0.218543 -0.813809
C15   C     C_3   0.490851 0.516678 0.083317 0.287094
C16   C     C_3   0.421954 0.352986 0.052287 -0.418968
C17   C     C_3   0.429299 0.347328 0.953998 -0.412181
C18   C     C_1   0.495422 0.511748 0.174551 -0.113245
C19   C     C_1   0.498451 0.504707 0.826171 -0.096047
C20   C     C_1   0.501572 0.501816 0.750637 -0.183020
C21   C     C_2   0.569941 0.958289 0.496295 -0.383447
H1    H     H_    0.237828 0.599397 0.936727 0.182678
H2    H     H_    0.740571 0.656898 0.066725 0.193296
H3    H     H_    0.758755 0.450372 0.058947 0.199517
H4    H     H_    0.298365 0.313034 0.933569 0.177363
H5    H     H_    0.517445 0.256761 0.928990 0.179704
H6    H     H_    0.286660 0.326100 0.079513 0.205139
H7    H     H_    0.478178 0.826626 0.143458 0.228972
H8    H     H_    0.558031 0.851635 0.034990 0.232657
H9    H     H_    0.341759 0.899717 0.067483 0.245979
H10   H     H_    0.083129 0.786848 0.159351 0.152986
H11   H     H_    0.252924 0.701860 0.210027 0.156503
H12   H     H_    0.500881 0.260199 0.074542 0.173915
H13   H     H_    0.074803 0.451951 0.228318 0.249454
H14   H     H_    0.975836 0.615837 0.281904 0.226810
H15   H     H_    0.899205 0.540747 0.183160 0.250056
H16   H     H_    0.702006 0.009510 0.489714 0.179992
H17   H     H_    0.297980 0.990461 0.509722 0.179713
H18   H     H_    0.013683 0.381895 0.436178 0.190495
H19   H     H_    0.986339 0.618326 0.563687 0.192427
H20   H     H_    0.407413 0.747052 0.923619 0.145854
H21   H     H_    0.771126 0.469487 0.914577 0.186130
H22   H     H_    0.723292 0.671643 0.921903 0.175059
N1    N     N_2   0.950340 0.457950 0.477370 -0.177240
N2    N     N_2   0.049660 0.542050 0.522630 -0.174129
O1    O     O_R   0.389240 0.738570 0.505550 -0.613378
O2    O     O_R   0.678400 0.711630 0.491050 -0.632942
O3    O     O_R   0.355360 0.513470 0.630110 -0.611901
O4    O     O_R   0.644510 0.486530 0.615610 -0.619976
O5    O     O_R   0.321600 0.288370 0.508950 -0.629933
O6    O     O_R   0.610760 0.261430 0.494450 -0.611520
O7    O     O_R   0.355490 0.513470 0.384390 -0.625335
O8    O     O_R   0.644640 0.486530 0.369890 -0.616105
O9    O     O_3   0.195378 0.609040 0.088299 -0.629795
Zn1   Zn    Zn3+2 0.306930 0.517990 0.509680 0.937458
Zn2   Zn    Zn3+2 0.693070 0.482010 0.490320 0.934446

loop_
_geom_bond_atom_site_label_1
_geom_bond_atom_site_label_2
_ccdc_geom_bond_type
O1    Zn1   S    
C14   H13   S    
O3    Zn1   S    
C2    C4    S    
C11   C12   S    
C12   C15   S    
C5    O7    A    
C6    C10   S    
H18   N1    S    
C7    H22   S    
C16   H12   S    
C7    C10   S    
O4    Zn2   S    
C3    O3    A    
N1    Zn2   S    
C13   H11   S    
C19   C20   T    
O7    Zn1   S    
C10   C19   S    
C17   H4    S    
C16   H6    S    
C3    O4    A    
C7    C8    S    
C13   C14   S    
C1    C21   S    
O2    Zn2   S    
N2    Zn1   S    
C5    C9    S    
C11   H7    S    
C2    C21   D    
C17   H5    S    
C5    O8    A    
C8    H3    S    
C13   O9    S    
C8    C15   S    
C6    C12   S    
H19   N2    S    
C15   C18   S    
C1    O1    A    
C7    H21   S    
C10   C17   S    
C15   C16   S    
C6    H1    S    
C9    C18   T    
C3    C20   S    
C8    H2    S    
C21   H16   S    
N1    N2    D    
C11   H8    S    
O6    Zn2   S    
O8    Zn2   S    
C14   H14   S    
C2    H17   S    
C1    O2    A    
C14   H15   S    
C4    O6    A    
C13   H10   S    
C12   O9    S    
O5    Zn1   S    
C11   H9    S    
C4    O5    A    
C16   C17   S    
C6    H20   S    
