data_mof_unit_28449.cif
_audit_creation_date              2012-12-11T17:43:14-0500
_audit_creation_method            fapswitch 2.2
_symmetry_space_group_name_H-M    P1
_symmetry_Int_Tables_number       1
_space_group_crystal_system       triclinic
_cell_length_a                    15.102806
_cell_length_b                    14.987515
_cell_length_c                    17.029753
_cell_angle_alpha                 108.849039
_cell_angle_beta                  106.32917
_cell_angle_gamma                 109.040217
_cell_volume                      3109.89846352

loop_
_atom_site_label
_atom_site_type_symbol
_atom_type_description
_atom_site_fract_x
_atom_site_fract_y
_atom_site_fract_z
_atom_type_partial_charge
C1    C     C_R   0.083648 0.288440 0.080799 -0.134289
C2    C     C_R   0.082903 0.114625 0.132520 -0.229812
C3    C     C_R   0.993241 0.925094 0.077952 0.053526
C4    C     C_R   0.989745 0.111992 0.083038 0.059488
C5    C     C_R   0.085006 0.022938 0.134836 0.027880
C6    C     C_R   0.895297 0.021283 0.052525 0.028310
C7    C     C_R   0.708386 0.948468 0.945918 -0.182640
C8    C     C_R   0.173011 0.987818 0.261495 -0.143067
C9    C     C_R   0.600047 0.020913 0.994085 -0.092778
C10   C     C_R   0.360450 0.064999 0.337798 -0.078902
C11   C     C_R   0.484001 0.591863 0.277063 -0.131056
C12   C     C_R   0.909203 0.722852 0.977278 -0.148030
C13   C     C_R   0.505066 0.302601 0.653234 -0.108600
C14   C     C_R   0.478971 0.570139 0.189259 -0.124892
C15   C     C_R   0.496778 0.318226 0.735847 -0.141142
C16   C     C_R   0.936840 0.484874 0.735590 0.559237
C17   C     C_R   0.062612 0.485150 0.255114 0.610298
C18   C     C_R   0.454913 0.467484 0.128096 0.117942
C19   C     C_R   0.472878 0.398743 0.778782 0.118226
C20   C     C_R   0.437515 0.387546 0.156442 -0.192703
C21   C     C_R   0.455614 0.461841 0.736375 -0.166629
C22   C     C_R   0.441322 0.409448 0.243938 -0.119516
C23   C     C_R   0.027186 0.501887 0.723737 -0.056418
C24   C     C_R   0.463535 0.445563 0.653508 -0.121319
C25   C     C_R   0.464472 0.511578 0.304205 -0.068963
C26   C     C_R   0.488505 0.366239 0.612122 -0.097054
C27   C     C_R   0.530241 0.427769 0.021470 -0.239481
C28   C     C_R   0.384656 0.431325 0.880981 -0.243845
C29   C     C_R   0.542394 0.421349 0.941894 0.059924
C30   C     C_R   0.378769 0.447685 0.964724 0.070467
C31   C     C_R   0.467065 0.417398 0.868106 0.023435
C32   C     C_R   0.451051 0.443824 0.035224 0.014865
C33   C     C_R   0.612223 0.948702 0.927206 -0.107304
C34   C     C_R   0.971032 0.419778 0.253741 -0.096313
C35   C     C_R   0.262693 0.003049 0.328732 -0.101343
C36   C     C_R   0.958010 0.375534 0.317117 0.154680
C37   C     C_R   0.033398 0.456133 0.636754 0.135507
C38   C     C_R   0.132803 0.442823 0.547810 -0.221572
C39   C     C_R   0.853223 0.326939 0.394698 -0.211674
C40   C     C_R   0.774854 0.201684 0.814098 -0.117356
C41   C     C_R   0.279958 0.785540 0.178004 -0.118760
C42   C     C_R   0.129533 0.478068 0.632742 -0.166285
C43   C     C_R   0.860483 0.336471 0.318406 -0.209268
C44   C     C_R   0.941427 0.387416 0.556195 -0.233706
C45   C     C_R   0.755152 0.193246 0.727145 0.100822
C46   C     C_R   0.044440 0.387268 0.385694 -0.283904
C47   C     C_R   0.944194 0.364054 0.472031 0.177987
C48   C     C_R   0.040664 0.393095 0.467485 0.161538
C49   C     C_R   0.711671 0.094818 0.642812 0.043881
C50   C     C_R   0.442024 0.852841 0.325564 0.068415
C51   C     C_R   0.605540 0.012423 0.391898 0.633562
C52   C     C_R   0.595244 0.906691 0.561401 0.635634
C53   C     C_R   0.508757 0.935954 0.317299 -0.378121
C54   C     C_R   0.665424 0.997319 0.643205 -0.335892
C55   C     C_R   0.476245 0.839657 0.404252 -0.271879
C56   C     C_R   0.334474 0.781896 0.256508 0.081505
C57   C     C_R   0.702938 0.097480 0.559394 -0.224191
C58   C     C_R   0.568474 0.916002 0.479591 -0.062848
C59   C     C_R   0.628719 0.008244 0.476472 -0.045529
C60   C     C_R   0.683967 0.092978 0.079847 -0.145676
C61   C     C_R   0.368766 0.110402 0.278654 -0.128706
C62   C     C_R   0.780470 0.093472 0.098787 -0.153586
C63   C     C_R   0.279324 0.095390 0.211230 -0.188196
C64   C     C_R   0.271286 0.544225 0.961130 -0.135304
C65   C     C_R   0.701603 0.404931 0.998073 -0.131323
C66   C     C_R   0.793522 0.021591 0.031667 0.114116
C67   C     C_R   0.298208 0.470347 0.978489 0.044348
C68   C     C_R   0.180422 0.034184 0.202229 0.117119
C69   C     C_R   0.776705 0.293839 0.734445 -0.195711
C70   C     C_R   0.272677 0.688010 0.252164 -0.153029
C71   C     C_R   0.250472 0.437717 0.028505 -0.107957
C72   C     C_R   0.704965 0.501573 0.922299 -0.140141
C73   C     C_R   0.108880 0.557384 0.810868 -0.234798
C74   C     C_R   0.890816 0.396156 0.174645 -0.239980
C75   C     C_R   0.912589 0.204157 0.001244 -0.144976
C76   C     C_R   0.082931 0.807039 0.051255 -0.131716
C77   C     C_R   0.994959 0.197180 0.055276 0.058500
C78   C     C_R   0.643519 0.438062 0.948773 0.057689
C79   C     C_R   0.994987 0.822067 0.040365 0.064608
C80   C     C_3   0.801763 0.528840 0.718772 -0.258171
C81   C     C_3   0.190319 0.612651 0.393999 -0.357058
C82   C     C_3   0.690585 0.057800 0.307130 -0.273315
C83   C     C_3   0.598225 0.757870 0.564161 -0.311033
C84   C     C_R   0.898345 0.927473 0.046422 -0.236449
H1    H     H_    0.160715 0.316900 0.132323 0.108873
H2    H     H_    0.509367 0.267771 0.766478 0.115829
H3    H     H_    0.419708 0.308175 0.110310 0.113810
H4    H     H_    0.437725 0.524745 0.768101 0.106370
H5    H     H_    0.426696 0.347382 0.265119 0.109780
H6    H     H_    0.450773 0.494845 0.621578 0.107933
H7    H     H_    0.589173 0.432260 0.078706 0.134346
H8    H     H_    0.325422 0.430235 0.826448 0.132117
H9    H     H_    0.118016 0.407189 0.381965 0.189721
H10   H     H_    0.866555 0.360063 0.557448 0.179392
H11   H     H_    0.791126 0.322828 0.265241 0.122932
H12   H     H_    0.828224 0.704154 0.950555 0.096216
H13   H     H_    0.202131 0.525224 0.694212 0.114736
H14   H     H_    0.207500 0.464871 0.545394 0.133446
H15   H     H_    0.778683 0.304294 0.397471 0.169223
H16   H     H_    0.547099 0.892814 0.860867 0.114921
H17   H     H_    0.256440 0.967448 0.374294 0.113877
H18   H     H_    0.744507 0.171376 0.559136 0.167646
H19   H     H_    0.426889 0.775168 0.411462 0.174242
H20   H     H_    0.675001 0.991535 0.706373 0.145210
H21   H     H_    0.484438 0.944237 0.255095 0.142460
H22   H     H_    0.525486 0.020824 0.979550 0.100320
H23   H     H_    0.716870 0.892308 0.893397 0.113304
H24   H     H_    0.429750 0.077876 0.390743 0.116513
H25   H     H_    0.674006 0.148203 0.131631 0.102499
H26   H     H_    0.444603 0.157800 0.285418 0.118662
H27   H     H_    0.844888 0.149454 0.165555 0.126595
H28   H     H_    0.287265 0.131366 0.166110 0.108979
H29   H     H_    0.766093 0.139485 0.834272 0.095378
H30   H     H_    0.310801 0.839829 0.152308 0.094962
H31   H     H_    0.304737 0.592703 0.932086 0.092339
H32   H     H_    0.675233 0.345672 0.020673 0.093349
H33   H     H_    0.763650 0.313321 0.678330 0.158940
H34   H     H_    0.097862 0.941029 0.256375 0.115601
H35   H     H_    0.297166 0.648084 0.289627 0.157767
H36   H     H_    0.254228 0.380908 0.053549 0.112781
H37   H     H_    0.681166 0.533908 0.876652 0.101623
H38   H     H_    0.190102 0.594213 0.827394 0.122303
H39   H     H_    0.810841 0.337125 0.144826 0.131875
H40   H     H_    0.831207 0.155288 0.976822 0.121446
H41   H     H_    0.163274 0.865218 0.090160 0.116908
H42   H     H_    0.825830 0.856044 0.015442 0.124679
H43   H     H_    0.154601 0.187757 0.169128 0.124452
H44   H     H_    0.858838 0.613668 0.765819 0.145438
H45   H     H_    0.467940 0.528692 0.372116 0.104961
H46   H     H_    0.768246 0.490319 0.756391 0.149498
H47   H     H_    0.736987 0.527028 0.666341 0.169438
H48   H     H_    0.141359 0.596773 0.430736 0.164651
H49   H     H_    0.185111 0.676084 0.375405 0.153269
H50   H     H_    0.272092 0.643174 0.442551 0.203124
H51   H     H_    0.691064 0.979641 0.290306 0.135445
H52   H     H_    0.768086 0.114154 0.319829 0.184985
H53   H     H_    0.631898 0.053105 0.247325 0.148542
H54   H     H_    0.672657 0.802731 0.627694 0.148502
H55   H     H_    0.613291 0.737882 0.501902 0.140428
H56   H     H_    0.494955 0.354032 0.548165 0.110399
H57   H     H_    0.552722 0.682078 0.562966 0.173256
H58   H     H_    0.503705 0.671065 0.324260 0.124237
H59   H     H_    0.524319 0.241099 0.621077 0.117213
H60   H     H_    0.493981 0.633004 0.168977 0.113374
N1    N     N_R   0.055660 0.348550 0.045620 -0.043759
N2    N     N_R   0.185200 0.638170 0.176300 -0.042086
N3    N     N_R   0.201680 0.494570 0.045620 -0.040892
N4    N     N_R   0.798320 0.505430 0.954380 -0.041791
N5    N     N_R   0.068420 0.560530 0.871650 -0.060375
N6    N     N_R   0.931580 0.439470 0.128350 -0.065978
N7    N     N_R   0.948070 0.295860 0.997670 -0.041849
N8    N     N_R   0.051930 0.704140 0.002330 -0.042476
N9    N     N_R   0.944340 0.651450 0.954380 -0.050327
N10   N     N_R   0.960830 0.507850 0.823700 -0.100464
N11   N     N_R   0.039170 0.492150 0.176300 -0.093017
N12   N     N_R   0.811290 0.303410 0.871650 -0.039994
N13   N     N_R   0.188710 0.696590 0.128350 -0.045600
N14   N     N_R   0.205200 0.552990 0.997670 -0.036879
N15   N     N_R   0.794800 0.447010 0.002330 -0.033995
N16   N     N_R   0.814800 0.361830 0.823700 -0.045297
Ni1   Ni    Ni4+2 0.119340 0.493420 0.109960 0.242828
Ni2   Ni    Ni4+2 0.880660 0.506580 0.890040 0.199810
Ni3   Ni    Ni4+2 0.872590 0.372590 0.000000 0.205554
Ni4   Ni    Ni4+2 0.127410 0.627410 0.000000 0.203254
O1    O     O_3   0.846399 0.473327 0.673266 -0.656708
O2    O     O_3   0.162886 0.519771 0.315995 -0.650494
O3    O     O_3   0.673543 0.096095 0.386257 -0.639888
O4    O     O_3   0.539980 0.814594 0.563988 -0.629994

loop_
_geom_bond_atom_site_label_1
_geom_bond_atom_site_label_2
_ccdc_geom_bond_type
C71   N3    A    
C12   C79   A    
C72   H37   S    
C27   C29   A    
C1    C77   A    
C14   C18   A    
C1    N1    A    
C76   C79   A    
C12   N9    A    
C38   H14   S    
C19   C31   S    
C83   H55   S    
C8    H34   S    
C81   H50   S    
N2    N13   A    
N11   Ni1   S    
C15   C19   A    
C57   H18   S    
C71   H36   S    
C54   H20   S    
C19   C21   A    
C24   C26   A    
C38   C42   A    
C82   H53   S    
C26   H56   S    
C17   O2    S    
C11   C14   A    
C57   C59   A    
C76   N8    A    
C49   C54   A    
C20   H3    S    
C55   H19   S    
C82   H51   S    
C69   N16   A    
C49   C57   A    
C60   C62   A    
C37   C42   A    
C61   C63   A    
C72   C78   A    
C60   H25   S    
C10   H24   S    
C29   C78   S    
C40   H29   S    
N12   Ni3   S    
C75   N7    A    
C40   N12   A    
C22   C25   A    
C43   H11   S    
C81   O2    S    
C27   H7    S    
C10   C35   A    
C70   N2    A    
N15   Ni3   S    
C41   H30   S    
C18   C20   A    
C30   C67   S    
C44   C47   A    
N14   Ni4   S    
C2    H43   S    
C74   H39   S    
C21   H4    S    
C25   H45   S    
C65   N15   A    
C80   H47   S    
C1    H1    S    
C76   H41   S    
C7    C33   A    
C23   C73   A    
C5    C68   S    
C61   H26   S    
C52   C54   A    
C46   C48   A    
C82   O3    S    
C84   H42   S    
C40   C45   A    
N2    Ni1   S    
C14   H60   S    
C50   C53   A    
C80   H46   S    
C62   C66   A    
C45   C69   A    
C75   H40   S    
C64   C67   A    
N12   N16   A    
C6    C84   A    
C4    C6    A    
N3    Ni1   S    
C42   H13   S    
C83   H57   S    
C81   H48   S    
C39   C43   A    
C80   H44   S    
C3    C5    A    
C58   C59   A    
C23   C37   S    
C50   C56   S    
C51   C53   A    
N4    N15   A    
N16   Ni2   S    
C2    C4    A    
N5    N10   A    
C41   C56   A    
N6    Ni3   S    
C51   O3    S    
C39   H15   S    
C47   C48   A    
C45   C49   S    
C16   O1    S    
C28   H8    S    
N5    Ni4   S    
N1    N7    A    
C62   H27   S    
C36   C46   A    
C75   C77   A    
N13   Ni4   S    
C3    C79   S    
N8    Ni4   S    
C52   C58   A    
C9    C33   A    
C15   H2    S    
C41   N13   A    
C34   C74   A    
C8    C68   A    
C16   C23   A    
N7    Ni3   S    
N6    N11   A    
C13   C15   A    
C16   N10   A    
C65   H32   S    
C7    H23   S    
C13   C26   A    
C21   C24   A    
C70   H35   S    
C18   C32   S    
C17   C34   A    
C17   N11   A    
C80   O1    S    
C39   C47   A    
C63   C68   A    
C65   C78   A    
C73   N5    A    
C27   C32   A    
C63   H28   S    
C38   C48   A    
N10   Ni2   S    
C28   C31   A    
C12   H12   S    
C20   C22   A    
C35   H17   S    
C24   H6    S    
C2    C5    A    
C81   H49   S    
C83   O4    S    
C56   C70   A    
C50   C55   A    
N9    Ni2   S    
C33   H16   S    
N4    Ni2   S    
C9    C60   A    
C37   C44   A    
C28   C30   A    
C9    H22   S    
C4    C77   S    
C29   C31   A    
C72   N4    A    
C52   O4    S    
C7    C66   A    
C30   C32   A    
C46   H9    S    
N1    Ni1   S    
C69   H33   S    
C22   H5    S    
C67   C71   A    
C13   H59   S    
C82   H52   S    
C11   H58   S    
C44   H10   S    
C10   C61   A    
C53   H21   S    
C6    C66   S    
C51   C59   A    
N8    N9    A    
C34   C36   S    
C73   H38   S    
C55   C58   A    
C64   N14   A    
C3    C84   A    
C64   H31   S    
C11   C25   A    
C74   N6    A    
C36   C43   A    
N3    N14   A    
C8    C35   A    
C83   H54   S    
