data_mof_unit_16328.cif
_audit_creation_date              2012-12-11T16:51:30-0500
_audit_creation_method            fapswitch 2.2
_symmetry_space_group_name_H-M    P1
_symmetry_Int_Tables_number       1
_space_group_crystal_system       triclinic
_cell_length_a                    24.755389
_cell_length_b                    17.377673
_cell_length_c                    15.59678
_cell_angle_alpha                 89.887775
_cell_angle_beta                  129.482398
_cell_angle_gamma                 90.116257
_cell_volume                      5178.5869183

loop_
_atom_site_label
_atom_site_type_symbol
_atom_type_description
_atom_site_fract_x
_atom_site_fract_y
_atom_site_fract_z
_atom_type_partial_charge
C1    C     C_R   0.833249 0.893832 0.197241 -0.100013
C2    C     C_R   0.167823 0.147501 0.498311 0.111307
C3    C     C_3   0.397215 0.808323 0.494841 -0.884166
C4    C     C_3   0.698381 0.555128 0.276813 -0.840296
C5    C     C_3   0.181952 0.550444 0.511894 -0.836558
C6    C     C_3   0.311938 0.053122 0.485671 -0.834303
C7    C     C_3   0.731947 0.104334 0.522893 -0.807564
C8    C     C_3   0.894628 0.542066 0.445663 -0.864432
C9    C     C_3   0.007497 0.665388 0.295508 -0.871825
C10   C     C_3   0.488815 0.165866 0.701921 -0.870994
C11   C     C_3   0.548199 0.162444 0.341172 -0.873059
C12   C     C_3   0.274687 0.820653 0.753126 -0.981543
C13   C     C_R   0.329348 0.641915 0.501966 0.107704
C14   C     C_3   0.739992 0.785481 0.243389 -0.949520
C15   C     C_3   0.771941 0.315136 0.746861 -0.983390
C16   C     C_3   0.222257 0.324566 0.246219 -0.985133
C17   C     C_R   0.669387 0.645280 0.498039 0.085026
C18   C     C_R   0.876810 0.174279 0.193181 0.146763
C19   C     C_R   0.122647 0.176300 0.802570 0.147934
C20   C     C_R   0.381292 0.680358 0.205858 0.147377
C21   C     C_R   0.619008 0.680333 0.793919 0.145611
C22   C     C_R   0.797034 0.698351 0.463257 0.018360
C23   C     C_R   0.190232 0.745303 0.469015 0.006564
C24   C     C_R   0.307317 0.248637 0.530240 0.007468
C25   C     C_R   0.166868 0.893120 0.801921 -0.128829
C26   C     C_R   0.695594 0.286776 0.401903 -0.015677
C27   C     C_R   0.814428 0.771748 0.507335 0.019320
C28   C     C_R   0.216038 0.820028 0.491695 0.051127
C29   C     C_R   0.282553 0.323722 0.508554 0.052230
C30   C     C_R   0.724672 0.341352 0.485361 0.060179
C31   C     C_R   0.775826 0.809161 0.532238 -0.246082
C32   C     C_R   0.284793 0.835134 0.536766 -0.305245
C33   C     C_R   0.214198 0.339938 0.464534 -0.308689
C34   C     C_R   0.797439 0.352819 0.559268 -0.315338
C35   C     C_R   0.174149 0.281206 0.459361 0.186320
C36   C     C_R   0.333758 0.391486 0.199067 -0.129140
C37   C     C_R   0.840755 0.299015 0.562312 0.182061
C38   C     C_R   0.725385 0.768956 0.526803 0.192117
C39   C     C_R   0.324273 0.775713 0.542230 0.185992
C40   C     C_R   0.204272 0.207269 0.496024 -0.052436
C41   C     C_R   0.808571 0.235931 0.488439 0.016429
C42   C     C_R   0.714994 0.690992 0.495508 -0.091744
C43   C     C_R   0.293267 0.702078 0.504652 -0.052367
C44   C     C_R   0.268178 0.190518 0.523903 0.040891
C45   C     C_R   0.736784 0.236011 0.402503 -0.005154
C46   C     C_R   0.746063 0.658642 0.454827 0.057034
C47   C     C_R   0.666081 0.390973 0.800561 -0.123710
C48   C     C_R   0.228798 0.686442 0.475589 0.040677
C49   C     C_3   0.783530 0.583420 0.482585 -0.012995
C50   C     C_3   0.165630 0.646388 0.375752 -0.014797
C51   C     C_3   0.330903 0.149507 0.623096 -0.014605
C52   C     C_3   0.680123 0.175675 0.342023 -0.015592
C53   C     C_R   0.110238 0.893774 0.404813 -0.203708
C54   C     C_R   0.912772 0.857636 0.593687 -0.197992
C55   C     C_R   0.611630 0.398153 0.405361 -0.207488
C56   C     C_R   0.389171 0.395379 0.595096 -0.203515
C57   C     C_3   0.842366 0.628814 0.497752 -0.051392
C58   C     C_R   0.901601 0.134393 0.591130 -0.127524
C59   C     C_3   0.122375 0.713067 0.368186 -0.044041
C60   C     C_3   0.374885 0.215377 0.630467 -0.045407
C61   C     C_3   0.632783 0.233941 0.340126 -0.026210
C62   C     C_2   0.193708 0.847126 0.979925 -0.220706
C63   C     C_2   0.807632 0.845781 0.021149 -0.217551
C64   C     C_2   0.691463 0.341636 0.975776 -0.218679
C65   C     C_2   0.308422 0.343122 0.023461 -0.218145
C66   C     C_2   0.263127 0.845547 0.038427 -0.107278
C67   C     C_2   0.738086 0.844960 0.961576 -0.106025
C68   C     C_2   0.760936 0.342414 0.035264 -0.106469
C69   C     C_R   0.106120 0.119222 0.406027 -0.104012
C70   C     C_2   0.238925 0.343762 0.963554 -0.108291
C71   C     C_2   0.850158 0.245399 0.129020 -0.216789
C72   C     C_2   0.149327 0.247259 0.867038 -0.226494
C73   C     C_2   0.355607 0.752292 0.142936 -0.215559
C74   C     C_2   0.645004 0.752234 0.856727 -0.217828
C75   C     C_2   0.803012 0.287164 0.124428 -0.110458
C76   C     C_2   0.196821 0.289503 0.872938 -0.113175
C77   C     C_2   0.305152 0.792395 0.131211 -0.108834
C78   C     C_2   0.695985 0.791813 0.868995 -0.108842
C79   C     C_R   0.185182 0.891999 0.588916 0.203266
C80   C     C_R   0.392217 0.615543 0.593939 -0.101558
C81   C     C_R   0.835118 0.859275 0.407465 0.190154
C82   C     C_R   0.686111 0.394013 0.589296 0.205677
C83   C     C_R   0.314306 0.393474 0.411109 0.205353
C84   C     C_R   0.076987 0.892856 0.802904 -0.150517
C85   C     C_R   0.924188 0.891300 0.198816 -0.153587
C86   C     C_R   0.575450 0.389917 0.800290 -0.149663
C87   C     C_R   0.424503 0.390311 0.199619 -0.145171
C88   C     C_R   0.853813 0.873394 0.136040 0.133748
C89   C     C_R   0.147091 0.874166 0.864663 0.140075
C90   C     C_R   0.354450 0.371184 0.137893 0.137212
C91   C     C_R   0.607039 0.617635 0.405970 -0.107594
C92   C     C_R   0.645384 0.370459 0.861709 0.138030
C93   C     C_R   0.177081 0.876010 0.495006 0.004399
C94   C     C_R   0.859158 0.817179 0.501759 0.021934
C95   C     C_R   0.678824 0.380375 0.495368 -0.020802
C96   C     C_R   0.321999 0.378897 0.504997 0.003364
C97   C     C_R   0.827470 0.132156 0.405574 -0.156205
C98   C     C_R   0.181755 0.118699 0.592073 -0.179530
C99   C     C_R   0.316776 0.615487 0.408220 -0.179284
C100  C     C_R   0.682513 0.617410 0.591830 -0.200915
C101  C     C_R   0.937379 0.135696 0.231677 -0.131470
C102  C     C_R   0.846219 0.171334 0.496494 0.103575
C103  C     C_R   0.064080 0.135421 0.769720 -0.129899
C104  C     C_R   0.439529 0.638990 0.238024 -0.143628
C105  C     C_R   0.560555 0.639109 0.761650 -0.131804
C106  C     C_R   0.152607 0.136826 0.765306 -0.126022
C107  C     C_R   0.845406 0.133579 0.227260 -0.126786
C108  C     C_R   0.650698 0.639011 0.760772 -0.122285
C109  C     C_R   0.349518 0.639142 0.239200 -0.124063
C110  C     C_3   0.101883 0.312301 0.508514 -0.886286
C111  C     C_3   0.951380 0.323586 0.602923 -0.913001
C112  C     C_3   0.639556 0.865072 0.479099 -0.917503
H1    H     H_    0.780368 0.900209 0.166358 0.114470
H2    H     H_    0.133881 0.261871 0.916518 0.134151
H3    H     H_    0.412627 0.392349 0.681803 0.111983
H4    H     H_    0.287486 0.925679 0.705443 0.154563
H5    H     H_    0.319031 0.829059 0.842903 0.246422
H6    H     H_    0.293479 0.786002 0.717051 0.263857
H7    H     H_    0.232703 0.788374 0.744655 0.263290
H8    H     H_    0.729889 0.890403 0.299928 0.157804
H9    H     H_    0.707647 0.797554 0.153198 0.243182
H10   H     H_    0.706084 0.756314 0.256995 0.257294
H11   H     H_    0.783561 0.747088 0.267840 0.255807
H12   H     H_    0.787646 0.426976 0.717918 0.149930
H13   H     H_    0.373218 0.768250 0.096798 0.130414
H14   H     H_    0.817009 0.318987 0.837069 0.246778
H15   H     H_    0.788710 0.283310 0.705754 0.262700
H16   H     H_    0.729328 0.282484 0.736077 0.265018
H17   H     H_    0.213077 0.430724 0.295580 0.154652
H18   H     H_    0.178169 0.334056 0.156575 0.246265
H19   H     H_    0.202387 0.291388 0.281940 0.264280
H20   H     H_    0.263101 0.290253 0.254188 0.263240
H21   H     H_    0.048502 0.895355 0.834005 0.091532
H22   H     H_    0.953889 0.891943 0.169761 0.093799
H23   H     H_    0.545980 0.390327 0.829754 0.092103
H24   H     H_    0.627196 0.768549 0.902390 0.128997
H25   H     H_    0.454066 0.390930 0.170307 0.091925
H26   H     H_    0.781794 0.141026 0.320527 0.088245
H27   H     H_    0.228903 0.125203 0.677023 0.089671
H28   H     H_    0.269571 0.621509 0.323137 0.089634
H29   H     H_    0.731180 0.620101 0.676129 0.097304
H30   H     H_    0.971692 0.149950 0.213826 0.093656
H31   H     H_    0.033195 0.147302 0.794634 0.095058
H32   H     H_    0.474081 0.653992 0.220851 0.094768
H33   H     H_    0.219445 0.897778 0.831036 0.130341
H34   H     H_    0.525940 0.654327 0.778512 0.096044
H35   H     H_    0.201648 0.149074 0.783671 0.087646
H36   H     H_    0.793273 0.142018 0.198766 0.084242
H37   H     H_    0.699247 0.651860 0.777715 0.087205
H38   H     H_    0.301030 0.652188 0.222191 0.086964
H39   H     H_    0.922440 0.145481 0.675076 0.101218
H40   H     H_    0.084401 0.125550 0.320583 0.082827
H41   H     H_    0.414177 0.621041 0.679624 0.082203
H42   H     H_    0.586429 0.620779 0.320791 0.084783
H43   H     H_    0.785948 0.869027 0.557697 0.145658
H44   H     H_    0.281046 0.395240 0.169513 0.130513
H45   H     H_    0.306498 0.892516 0.564013 0.140160
H46   H     H_    0.193274 0.397553 0.437744 0.141812
H47   H     H_    0.820529 0.399912 0.617771 0.128803
H48   H     H_    0.079471 0.338141 0.359530 0.163353
H49   H     H_    0.046413 0.320594 0.471632 0.251654
H50   H     H_    0.131756 0.365341 0.554315 0.238974
H51   H     H_    0.123253 0.263410 0.567652 0.258767
H52   H     H_    0.931602 0.338052 0.712471 0.162625
H53   H     H_    0.008711 0.321958 0.672223 0.255343
H54   H     H_    0.936859 0.382242 0.566488 0.247425
H55   H     H_    0.718769 0.394164 0.829889 0.129425
H56   H     H_    0.938964 0.281542 0.539115 0.263582
H57   H     H_    0.667311 0.771456 0.582243 0.177518
H58   H     H_    0.615369 0.893169 0.511283 0.250973
H59   H     H_    0.597498 0.838639 0.397204 0.250534
H60   H     H_    0.666894 0.910069 0.468635 0.251824
H61   H     H_    0.420121 0.830176 0.645002 0.162268
H62   H     H_    0.452890 0.815033 0.531994 0.250300
H63   H     H_    0.369099 0.862908 0.452610 0.238946
H64   H     H_    0.374120 0.761326 0.432622 0.258333
H65   H     H_    0.800201 0.557773 0.561614 0.063272
H66   H     H_    0.287387 0.871893 0.007289 0.126466
H67   H     H_    0.164917 0.644861 0.303727 0.056374
H68   H     H_    0.332134 0.148278 0.695635 0.056447
H69   H     H_    0.662053 0.164128 0.257228 0.054212
H70   H     H_    0.726850 0.482317 0.404802 0.176886
H71   H     H_    0.684277 0.506487 0.219879 0.232637
H72   H     H_    0.722054 0.601125 0.260776 0.265002
H73   H     H_    0.649832 0.577118 0.258108 0.219028
H74   H     H_    0.150376 0.527106 0.354831 0.144791
H75   H     H_    0.156728 0.497350 0.511263 0.231458
H76   H     H_    0.174407 0.596620 0.552469 0.258490
H77   H     H_    0.713494 0.872126 0.991494 0.122315
H78   H     H_    0.238745 0.539250 0.560376 0.229629
H79   H     H_    0.344361 0.030001 0.643271 0.145808
H80   H     H_    0.335789 0.999212 0.485390 0.230215
H81   H     H_    0.319984 0.098717 0.444815 0.258168
H82   H     H_    0.255019 0.043292 0.438040 0.229671
H83   H     H_    0.703998 0.057191 0.375738 0.152873
H84   H     H_    0.704782 0.065127 0.540814 0.240016
H85   H     H_    0.734923 0.162266 0.555362 0.251446
H86   H     H_    0.785827 0.082359 0.567739 0.219125
H87   H     H_    0.891822 0.632600 0.585245 0.101774
H88   H     H_    0.785351 0.372036 0.006474 0.126253
H89   H     H_    0.097389 0.750108 0.293345 0.097971
H90   H     H_    0.400705 0.252164 0.705640 0.097998
H91   H     H_    0.589145 0.256414 0.255929 0.093003
H92   H     H_    0.871868 0.656841 0.402813 0.172944
H93   H     H_    0.897251 0.530660 0.378362 0.243242
H94   H     H_    0.870174 0.491500 0.452538 0.262891
H95   H     H_    0.948683 0.549926 0.525041 0.230885
H96   H     H_    0.072627 0.733445 0.435188 0.186647
H97   H     H_    0.978051 0.644408 0.322609 0.244787
H98   H     H_    0.012494 0.617191 0.254292 0.254410
H99   H     H_    0.214448 0.372395 0.992751 0.126453
H100  H     H_    0.977671 0.713191 0.235233 0.231779
H101  H     H_    0.424290 0.234485 0.562555 0.187113
H102  H     H_    0.517746 0.144220 0.674355 0.245705
H103  H     H_    0.483363 0.117957 0.743198 0.253787
H104  H     H_    0.519399 0.213385 0.762302 0.230979
H105  H     H_    0.610066 0.251106 0.448670 0.194943
H106  H     H_    0.539853 0.139429 0.398419 0.245066
H107  H     H_    0.553307 0.113081 0.301624 0.257449
H108  H     H_    0.502084 0.197714 0.276155 0.233359
H109  H     H_    0.787221 0.271908 0.173266 0.129679
H110  H     H_    0.865586 0.260849 0.079690 0.130448
H111  H     H_    0.212932 0.275226 0.824380 0.129707
H112  H     H_    0.286930 0.776818 0.176471 0.127057
H113  H     H_    0.714470 0.775885 0.824313 0.126009
H114  H     H_    0.170312 0.820006 0.012292 0.128665
H115  H     H_    0.831313 0.817752 0.989962 0.129319
H116  H     H_    0.667996 0.311286 0.005947 0.127533
H117  H     H_    0.331974 0.313640 0.993003 0.128512
H118  H     H_    0.086618 0.890182 0.318086 0.112315
H119  H     H_    0.938200 0.845120 0.679671 0.120148
H120  H     H_    0.589299 0.399969 0.319085 0.117233
N1    N     N_R   0.888400 0.921830 0.294620 -0.049444
N2    N     N_R   0.874350 0.922400 0.443380 -0.076574
N3    N     N_R   0.625650 0.422400 0.556620 -0.064992
N4    N     N_R   0.374350 0.422400 0.443380 -0.067389
N5    N     N_R   0.054230 0.922730 0.705400 -0.038393
N6    N     N_R   0.945770 0.922730 0.294600 -0.040419
N7    N     N_R   0.554230 0.422730 0.705400 -0.040051
N8    N     N_R   0.445770 0.422730 0.294600 -0.040172
N9    N     N_R   0.873790 0.077030 0.443380 -0.042671
N10   N     N_R   0.126210 0.077030 0.556620 -0.038650
N11   N     N_R   0.373790 0.577030 0.443380 -0.038473
N12   N     N_R   0.111600 0.921830 0.705380 -0.044595
N13   N     N_R   0.626210 0.577030 0.556620 -0.035456
N14   N     N_R   0.945200 0.076700 0.294600 -0.040821
N15   N     N_R   0.054800 0.076700 0.705400 -0.040974
N16   N     N_R   0.445200 0.576700 0.294600 -0.041548
N17   N     N_R   0.554800 0.576700 0.705400 -0.042496
N18   N     N_R   0.111030 0.077600 0.705380 -0.043095
N19   N     N_R   0.888970 0.077600 0.294620 -0.043458
N20   N     N_R   0.611030 0.577600 0.705380 -0.044101
N21   N     N_R   0.388970 0.577600 0.294620 -0.043202
N22   N     N_R   0.919490 0.077280 0.556590 -0.042145
N23   N     N_R   0.388400 0.421830 0.294620 -0.045409
N24   N     N_R   0.080510 0.077280 0.443410 -0.037938
N25   N     N_R   0.419490 0.577280 0.556590 -0.037468
N26   N     N_R   0.580510 0.577280 0.443410 -0.037745
N27   N     N_2   0.105506 0.296861 0.421125 -0.109011
N28   N     N_2   0.914920 0.304863 0.644790 -0.118212
N29   N     N_2   0.688184 0.806567 0.556577 -0.112158
N30   N     N_2   0.393270 0.790467 0.581383 -0.109658
N31   N     N_2   0.746751 0.528186 0.390907 -0.081498
N32   N     N_2   0.150324 0.571396 0.398655 -0.081339
N33   N     N_2   0.344777 0.074074 0.599334 -0.081277
N34   N     N_R   0.611600 0.421830 0.705380 -0.045726
N35   N     N_2   0.694441 0.104601 0.403967 -0.083575
N36   N     N_2   0.853580 0.610574 0.419338 -0.080628
N37   N     N_2   0.075778 0.692172 0.391044 -0.076349
N38   N     N_2   0.420792 0.193468 0.606773 -0.076254
N39   N     N_2   0.610823 0.209203 0.403048 -0.076772
N40   N     N_2   0.249417 0.894950 0.699130 -0.120828
N41   N     N_2   0.765981 0.857317 0.303995 -0.120501
N42   N     N_2   0.748444 0.391875 0.701301 -0.121186
N43   N     N_2   0.250006 0.398222 0.301145 -0.120110
N44   N     N_R   0.079940 0.922160 0.443410 -0.052121
N45   N     N_R   0.920060 0.922160 0.556590 -0.053283
N46   N     N_R   0.579940 0.422160 0.443410 -0.049951
N47   N     N_R   0.420060 0.422160 0.556590 -0.052531
N48   N     N_R   0.125650 0.922400 0.556620 -0.067038
Ni1   Ni    Ni4+2 0.882160 0.999430 0.370180 0.199716
Ni2   Ni    Ni4+2 0.117840 0.999430 0.629820 0.211919
Ni3   Ni    Ni4+2 0.382160 0.499430 0.370180 0.211010
Ni4   Ni    Ni4+2 0.617840 0.499430 0.629820 0.209679
Ni5   Ni    Ni4+2 0.012460 0.999430 0.370180 0.205953
Ni6   Ni    Ni4+2 0.987540 0.999430 0.629820 0.203874
Ni7   Ni    Ni4+2 0.512460 0.499430 0.370180 0.204581
Ni8   Ni    Ni4+2 0.487540 0.499430 0.629820 0.205409

loop_
_geom_bond_atom_site_label_1
_geom_bond_atom_site_label_2
_ccdc_geom_bond_type
N1    Ni1   S    
N7    Ni8   S    
C7    H85   S    
C14   H10   S    
N8    Ni7   S    
C72   H2    S    
C63   C88   S    
C8    H95   S    
N4    N47   A    
H79   N33   S    
C47   C92   A    
C97   H26   S    
C61   N39   S    
C84   N5    A    
C17   C91   A    
C37   N28   S    
C6    H82   S    
C8    N36   S    
C22   C57   S    
C49   N31   S    
H8    N41   S    
C50   N32   S    
C58   H39   S    
C68   C75   S    
C23   C59   S    
C66   H66   S    
C46   C49   S    
C36   H44   S    
C108  N20   A    
C3    H64   S    
C50   C59   S    
C64   C68   D    
C69   H40   S    
C82   N42   S    
C26   C61   S    
N48   Ni2   S    
C5    H78   S    
C79   C93   A    
C107  H36   S    
C100  H29   S    
N20   Ni4   S    
N19   Ni1   S    
C10   H103  S    
C85   C88   A    
C112  H59   S    
C101  N14   A    
C9    H100  S    
C36   C90   A    
C65   C70   D    
C34   C37   A    
C62   C89   S    
C29   C33   A    
C49   C57   S    
C41   C102  S    
C59   N37   S    
C85   N6    A    
N11   N25   A    
C32   C39   A    
C50   H67   S    
C16   H19   S    
C18   C107  A    
C100  N13   A    
C3    H62   S    
C26   C45   A    
N11   Ni3   S    
C68   H88   S    
C24   C29   A    
C98   H27   S    
C19   C103  A    
C53   N44   A    
C112  H58   S    
N44   N48   A    
C57   N36   S    
C1    N1    A    
C79   N48   A    
C104  N16   A    
C15   H14   S    
C74   H24   S    
H101  N38   S    
N24   Ni5   S    
C5    N32   S    
C104  H32   S    
C111  H53   S    
H105  N39   S    
C2    C69   A    
H83   N35   S    
C43   C48   A    
C74   C78   D    
C97   C102  A    
C87   C90   A    
C72   C76   D    
C53   H118  S    
N44   Ni5   S    
C34   H47   S    
C3    N30   S    
C1    C88   A    
C48   C50   S    
C13   C80   A    
C71   H110  S    
C15   H15   S    
C82   N3    A    
C57   H87   S    
C56   N47   A    
C37   C41   A    
C70   H99   S    
N18   Ni2   S    
C5    H75   S    
C19   C72   S    
C67   C78   S    
C1    H1    S    
C87   H25   S    
N15   Ni6   S    
C83   N43   S    
N5    Ni6   S    
C52   C61   S    
C110  H49   S    
C49   H65   S    
N14   N19   A    
H92   N36   S    
C76   H111  S    
C110  H50   S    
C65   C90   S    
C63   C67   D    
C84   H21   S    
C71   C75   D    
C36   N23   A    
C54   C94   A    
N46   Ni7   S    
C62   C66   D    
C53   C93   A    
C35   N27   S    
C80   H41   S    
C52   H69   S    
C91   H42   S    
C55   C95   A    
C38   N29   S    
C9    H97   S    
C30   C34   A    
N16   N21   A    
C10   H102  S    
C39   C43   A    
C78   H113  S    
C45   C52   S    
H74   N32   S    
C62   H114  S    
C27   C31   A    
C21   C74   S    
N17   Ni8   S    
N25   Ni8   S    
C103  N15   A    
C106  H35   S    
C20   C109  A    
N7    N34   A    
N26   Ni7   S    
C18   C101  A    
C4    H73   S    
C13   C99   A    
C15   N42   S    
C7    N35   S    
N1    N6    A    
C30   C95   S    
H12   N42   S    
N17   N20   A    
C14   H11   S    
C12   H7    S    
C47   H55   S    
C101  H30   S    
C59   H89   S    
C77   H112  S    
C28   C32   A    
C9    H98   S    
C24   C60   S    
N2    Ni1   S    
N13   Ni4   S    
H57   N29   S    
C86   N7    A    
C105  H34   S    
C111  H54   S    
C23   C28   A    
C4    H72   S    
C8    H94   S    
N13   N26   A    
C11   H106  S    
C75   H109  S    
H61   N30   S    
N6    Ni5   S    
H70   N31   S    
C58   C102  A    
C5    H76   S    
C44   C51   S    
C60   H90   S    
C22   C46   A    
C26   C30   A    
C6    N33   S    
C63   H115  S    
C15   H16   S    
H52   N28   S    
C42   C46   A    
C24   C44   A    
C12   H6    S    
C99   H28   S    
H17   N43   S    
C84   C89   A    
C64   C92   S    
C111  H56   S    
C6    H80   S    
C51   H68   S    
C11   H107  S    
C54   H119  S    
C64   H116  S    
C16   H18   S    
C33   H46   S    
C47   N34   A    
N16   Ni7   S    
C3    H63   S    
C17   C42   S    
N15   N18   A    
N34   Ni4   S    
C18   C71   S    
C56   C96   A    
C66   C77   S    
C9    N37   S    
C111  N28   S    
N8    N23   A    
C41   C45   A    
C82   C95   A    
N5    N12   A    
N3    N46   A    
C11   N39   S    
C55   H120  S    
N3    Ni4   S    
N9    Ni1   S    
N14   Ni5   S    
C39   N30   S    
C103  H31   S    
N10   N24   A    
C29   C96   S    
C31   H43   S    
C110  H51   S    
C67   H77   S    
C38   C42   A    
C20   C104  A    
C107  N19   A    
C54   N45   A    
C32   H45   S    
N45   Ni6   S    
C85   H22   S    
C25   C89   A    
C79   N40   S    
N4    Ni3   S    
C31   C38   A    
C65   H117  S    
C13   C43   S    
C22   C27   A    
C25   N12   A    
N47   Ni8   S    
C106  N18   A    
C51   C60   S    
C12   N40   S    
C35   C40   A    
C109  H38   S    
C110  N27   S    
N9    N22   A    
C91   N26   A    
C86   C92   A    
C87   N8    A    
C70   C76   S    
C81   C94   A    
C14   N41   S    
C10   H104  S    
C112  H60   S    
C7    H86   S    
C4    N31   S    
C73   H13   S    
C83   C96   A    
C51   N33   S    
C112  N29   S    
C109  N21   A    
N12   Ni2   S    
C33   C35   A    
C56   H3    S    
C14   H9    S    
C20   C73   S    
C58   N22   A    
C81   N41   S    
H48   N27   S    
C4    H71   S    
C99   N11   A    
C8    H93   S    
C16   H20   S    
C17   C100  A    
C21   C105  A    
C98   N10   A    
C21   C108  A    
C86   H23   S    
C105  N17   A    
C108  H37   S    
C19   C106  A    
C2    C40   S    
C23   C48   A    
C40   C44   A    
C52   N35   S    
C83   N4    A    
C2    C98   A    
C55   N46   A    
C16   N43   S    
H96   N37   S    
C10   N38   S    
N22   Ni6   S    
N23   Ni3   S    
N2    N45   A    
C73   C77   D    
C81   N2    A    
C28   C93   S    
C27   C94   S    
C25   H33   S    
C80   N25   A    
C12   H5    S    
C97   N9    A    
C60   N38   S    
C7    H84   S    
H4    N40   S    
C11   H108  S    
N10   Ni2   S    
C6    H81   S    
C61   H91   S    
N21   Ni3   S    
C69   N24   A    
