data_mof_unit_24281.cif
_audit_creation_date              2012-12-11T15:10:42-0500
_audit_creation_method            fapswitch 2.2
_symmetry_space_group_name_H-M    P1
_symmetry_Int_Tables_number       1
_space_group_crystal_system       triclinic
_cell_length_a                    21.153399
_cell_length_b                    7.22976
_cell_length_c                    18.193386
_cell_angle_alpha                 90.01191
_cell_angle_beta                  93.462484
_cell_angle_gamma                 90.002647
_cell_volume                      2777.30810503

loop_
_atom_site_label
_atom_site_type_symbol
_atom_type_description
_atom_site_fract_x
_atom_site_fract_y
_atom_site_fract_z
_atom_type_partial_charge
O1    O     O_R   0.448880 0.506250 0.415280 -0.528794
O2    O     O_R   0.551120 0.006250 0.584720 -0.528788
O3    O     O_R   0.434830 0.174000 0.557310 -0.521918
O4    O     O_R   0.565170 0.674000 0.442690 -0.521934
C1    C     C_R   0.417032 0.344592 0.579736 0.695776
C2    C     C_R   0.582968 0.844578 0.420263 0.695758
O5    O     O_R   0.441680 0.176440 0.414130 -0.532926
O6    O     O_R   0.558320 0.676440 0.585870 -0.532914
O7    O     O_R   0.558020 0.007570 0.440520 -0.518970
O8    O     O_R   0.441980 0.507570 0.559480 -0.518992
C3    C     C_R   0.428405 0.344828 0.387815 0.719217
C4    C     C_R   0.571594 0.844865 0.612185 0.719225
O9    O     O_3   0.538160 0.339670 0.508820 -0.364951
O10   O     O_3   0.461840 0.839670 0.491180 -0.364962
V1    V     V_3+5 0.492920 0.064260 0.498360 1.412812
V2    V     V_3+5 0.507080 0.564260 0.501640 1.412780
C5    C     C_R   0.877392 0.927349 0.685757 -0.239743
C6    C     C_R   0.122659 0.428491 0.314244 -0.239784
H1    H     H_    0.798030 0.899490 0.568690 0.121261
H2    H     H_    0.202023 0.400965 0.431306 0.121264
H3    H     H_    0.899548 0.933442 0.633611 0.128466
H4    H     H_    0.100525 0.435127 0.366396 0.128446
C7    C     C_R   0.887693 0.939002 0.818864 -0.162688
C8    C     C_R   0.112319 0.439162 0.181130 -0.162721
C9    C     C_R   0.580653 0.842686 0.747619 -0.351056
C10   C     C_R   0.419341 0.341963 0.252389 -0.351119
C11   C     C_R   0.614875 0.821083 0.815505 0.418720
C12   C     C_R   0.385108 0.320151 0.184517 0.418732
C13   C     C_R   0.681342 0.816793 0.818416 0.349372
C14   C     C_R   0.318637 0.316161 0.181608 0.349420
C15   C     C_R   0.714834 0.856326 0.754153 -0.092921
C16   C     C_R   0.285161 0.356160 0.245850 -0.092908
C17   C     C_R   0.678728 0.860748 0.684771 0.016181
C18   C     C_R   0.321278 0.360871 0.315225 0.016163
C19   C     C_R   0.782366 0.887896 0.755374 0.107976
C20   C     C_R   0.217639 0.387968 0.244621 0.107977
C21   C     C_R   0.811787 0.900216 0.687293 0.081598
C22   C     C_R   0.188242 0.400942 0.312705 0.081634
C23   C     C_R   0.775642 0.889744 0.620607 -0.179026
C24   C     C_R   0.224394 0.390745 0.379389 -0.179034
C25   C     C_R   0.710251 0.874382 0.619270 -0.138045
C26   C     C_R   0.289772 0.375061 0.380723 -0.138078
C27   C     C_R   0.821843 0.914262 0.820901 -0.305086
C28   C     C_R   0.178148 0.413983 0.179085 -0.305211
C29   C     C_R   0.915176 0.950363 0.750661 0.408430
C30   C     C_R   0.084872 0.451273 0.249334 0.408250
C31   C     C_R   0.611543 0.851086 0.682083 -0.133466
C32   C     C_R   0.388456 0.350917 0.317917 -0.133441
H5    H     H_    0.803141 0.922984 0.874400 0.183410
H6    H     H_    0.196824 0.422178 0.125561 0.183475
H7    H     H_    0.529395 0.847477 0.745571 0.134792
H8    H     H_    0.470601 0.346507 0.254441 0.134762
H9    H     H_    0.684437 0.873751 0.566031 0.098226
H10   H     H_    0.315594 0.374655 0.433958 0.098246
C33   C     C_1   0.864471 0.938973 0.131980 -0.206936
C34   C     C_1   0.135524 0.438935 0.868016 -0.206711
C35   C     C_1   0.821567 0.924923 0.175680 -0.000391
C36   C     C_1   0.178427 0.424890 0.824315 -0.000567
C37   C     C_1   0.770994 0.905831 0.227765 0.004966
C38   C     C_1   0.229001 0.405817 0.772230 0.004853
C39   C     C_1   0.728418 0.889198 0.271769 -0.001728
C40   C     C_1   0.271578 0.389204 0.728226 -0.001688
C41   C     C_1   0.677912 0.870040 0.323952 -0.005425
C42   C     C_1   0.322086 0.370067 0.676043 -0.005399
C43   C     C_1   0.635129 0.855945 0.367824 -0.207825
C44   C     C_1   0.364870 0.355980 0.632173 -0.207822
O11   O     O_R   0.058070 0.289240 0.940580 -0.525427
O12   O     O_R   0.941930 0.789240 0.059420 -0.525392
O13   O     O_R   0.058330 0.616740 0.085880 -0.545442
O14   O     O_R   0.941670 0.116740 0.914120 -0.545428
C45   C     C_R   0.071814 0.448602 0.112039 0.736599
C46   C     C_R   0.928187 0.948566 0.887961 0.736522
O15   O     O_R   0.065180 0.619040 0.942700 -0.516472
O16   O     O_R   0.934820 0.119040 0.057300 -0.516477
O17   O     O_R   0.948870 0.787780 0.915270 -0.525190
O18   O     O_R   0.051130 0.287780 0.084730 -0.525263
C47   C     C_R   0.083195 0.450310 0.920203 0.701181
C48   C     C_R   0.916803 0.950324 0.079794 0.701044
O19   O     O_3   0.961870 0.453310 0.991210 -0.368194
O20   O     O_3   0.038130 0.953310 0.008790 -0.368247
V3    V     V_3+5 0.007070 0.728770 0.001630 1.406813
V4    V     V_3+5 0.992930 0.228770 0.998370 1.406740
O21   O     O_3   0.979772 0.975141 0.746776 -0.580253
C49   C     C_3   0.994688 0.166057 0.752028 0.089865
H11   H     H_    0.041746 0.178441 0.782164 0.146757
H12   H     H_    0.960962 0.248023 0.783925 0.110348
C50   C     C_3   0.998872 0.250634 0.675306 -0.349793
H13   H     H_    0.033669 0.171725 0.644317 0.209211
H14   H     H_    0.951929 0.242418 0.644691 0.191076
C51   C     C_3   0.019140 0.453181 0.680154 -0.788211
H15   H     H_    0.984605 0.535035 0.710380 0.244003
H16   H     H_    0.021163 0.511125 0.623829 0.230580
H17   H     H_    0.066793 0.465513 0.708839 0.234806
O22   O     O_3   0.020305 0.476653 0.253223 -0.580214
C52   C     C_3   0.005592 0.667683 0.247864 0.090233
H18   H     H_    0.958628 0.680382 0.217536 0.146619
H19   H     H_    0.039506 0.749301 0.216098 0.110285
C53   C     C_3   0.001250 0.752494 0.324531 -0.349807
H20   H     H_    0.966194 0.674132 0.355340 0.209152
H21   H     H_    0.048076 0.743695 0.355386 0.191083
C54   C     C_3   0.981324 0.955320 0.319558 -0.787837
H22   H     H_    0.016157 0.036658 0.289579 0.243833
H23   H     H_    0.979114 0.013371 0.375851 0.230595
H24   H     H_    0.933816 0.968278 0.290562 0.234772
O23   O     O_3   0.711615 0.769386 0.885326 -0.568131
C55   C     C_3   0.735060 0.585860 0.882501 0.078709
H25   H     H_    0.776829 0.576565 0.922405 0.145206
H26   H     H_    0.752244 0.547345 0.827751 0.110523
C56   C     C_3   0.685158 0.446841 0.905211 -0.323622
H27   H     H_    0.667912 0.487316 0.959444 0.213908
H28   H     H_    0.644513 0.446887 0.863655 0.180273
C57   C     C_3   0.712130 0.251385 0.910593 -0.788834
H29   H     H_    0.728131 0.207340 0.856283 0.232799
H30   H     H_    0.674910 0.154319 0.927263 0.265494
H31   H     H_    0.752697 0.245366 0.952248 0.225988
O24   O     O_3   0.288343 0.268630 0.114717 -0.568127
C58   C     C_3   0.264863 0.085149 0.117591 0.078683
H32   H     H_    0.223074 0.075825 0.077716 0.145201
H33   H     H_    0.247699 0.046792 0.172362 0.110434
C59   C     C_3   0.314723 0.946008 0.094867 -0.323380
H34   H     H_    0.331971 0.986379 0.040629 0.214010
H35   H     H_    0.355372 0.946028 0.136415 0.180295
C60   C     C_3   0.287702 0.750599 0.089492 -0.789250
H36   H     H_    0.271693 0.706684 0.143806 0.232886
H37   H     H_    0.324896 0.653436 0.072828 0.265441
H38   H     H_    0.247134 0.744585 0.047841 0.226026
O25   O     O_3   0.585174 0.818466 0.881610 -0.557207
C61   C     C_3   0.536572 0.683630 0.882504 0.075738
H39   H     H_    0.548690 0.588146 0.929093 0.135659
H40   H     H_    0.531265 0.595641 0.832097 0.096279
C62   C     C_3   0.473691 0.778195 0.896395 -0.309543
H41   H     H_    0.479286 0.861886 0.947665 0.199541
H42   H     H_    0.460182 0.872689 0.849930 0.191193
C63   C     C_3   0.420876 0.637062 0.904471 -0.808826
H43   H     H_    0.413481 0.553982 0.853294 0.232072
H44   H     H_    0.376093 0.710193 0.914773 0.236935
H45   H     H_    0.432880 0.543229 0.951630 0.244491
O26   O     O_3   0.414804 0.317004 0.118407 -0.557176
C64   C     C_3   0.463404 0.182149 0.117638 0.075712
H46   H     H_    0.451328 0.086494 0.071076 0.135638
H47   H     H_    0.468645 0.094337 0.168083 0.096302
C65   C     C_3   0.526313 0.276615 0.103791 -0.309602
H48   H     H_    0.520789 0.359987 0.052446 0.199569
H49   H     H_    0.539764 0.371397 0.150199 0.191143
C66   C     C_3   0.579141 0.135412 0.095930 -0.808601
H50   H     H_    0.586466 0.052648 0.147184 0.231960
H51   H     H_    0.623945 0.208462 0.085655 0.236983
H52   H     H_    0.567200 0.041286 0.048831 0.244518

loop_
_geom_bond_atom_site_label_1
_geom_bond_atom_site_label_2
_ccdc_geom_bond_type
C22   C24   A    
C50   H13   S    
C41   C43   T    
C54   H22   S    
C7    C29   A    
C11   C13   A    
C52   H18   S    
O11   C47   A    
C49   C50   S    
C62   C63   S    
O2    C4    A    
C61   H39   S    
C2    O7    A    
C57   H30   S    
C66   H50   S    
C52   C53   S    
C60   H36   S    
C23   C25   A    
C14   O24   S    
O5    C3    A    
O12   V3    S    
C16   C20   A    
C19   C21   A    
C49   H12   S    
C4    C31   S    
C45   O18   A    
H2    C24   S    
C64   C65   S    
C35   C37   S    
C55   H25   S    
C36   C38   S    
C7    C27   A    
O24   C58   S    
C38   C40   T    
O6    V2    S    
O13   C45   A    
C40   C42   S    
C60   H37   S    
C50   C51   S    
C11   O25   S    
C2    C43   S    
C18   C26   A    
O1    C3    A    
C15   C17   A    
C19   C27   A    
C9    C31   A    
C20   C28   A    
C10   C32   A    
C24   C26   A    
C54   H23   S    
C65   C66   S    
C13   O23   S    
C3    C32   S    
C29   O21   S    
C63   H45   S    
C46   O17   A    
C6    C30   A    
O15   V3    S    
C57   H29   S    
C66   H51   S    
C59   H35   S    
O12   C48   A    
C37   C39   T    
C12   O26   S    
C49   H11   S    
O4    C2    A    
C58   C59   S    
O18   V4    S    
C33   C48   S    
C58   H33   S    
O17   V3    S    
C60   H38   S    
C63   H44   S    
C62   H42   S    
C5    H3    S    
C34   C47   S    
C59   C60   S    
C42   C44   T    
O4    V2    S    
C9    H7    S    
C10   H8    S    
C51   H16   S    
O21   C49   S    
C30   O22   S    
O6    C4    A    
C39   C41   S    
O1    V2    S    
C5    C21   A    
O2    V1    S    
C25   H9    S    
H1    C23   S    
C54   H24   S    
C53   H21   S    
C33   C35   T    
C17   C31   A    
C65   H49   S    
C56   C57   S    
C18   C32   A    
C62   H41   S    
C61   C62   S    
C66   H52   S    
O3    V1    S    
C59   H34   S    
C51   H17   S    
O16   V4    S    
C28   H6    S    
C6    H4    S    
C7    C46   S    
C27   H5    S    
O10   V1    S    
C5    C29   A    
O20   V3    S    
O3    C1    A    
C61   H40   S    
O19   V4    S    
C64   H46   S    
C52   H19   S    
C63   H43   S    
C9    C11   A    
C53   C54   S    
O23   C55   S    
C10   C12   A    
C8    C30   A    
C56   H28   S    
C6    C22   A    
C17   C25   A    
C12   C14   A    
C21   C23   A    
O8    V2    S    
C58   H32   S    
C1    C44   S    
C20   C22   A    
C14   C16   A    
C64   H47   S    
C51   H15   S    
C55   H26   S    
C8    C28   A    
O5    V1    S    
C34   C36   T    
C15   C19   A    
O7    V1    S    
O22   C52   S    
O14   V4    S    
O13   V3    S    
O26   C64   S    
C1    O8    A    
O11   V4    S    
C13   C15   A    
C53   H20   S    
O16   C48   A    
O9    V2    S    
C50   H14   S    
O15   C47   A    
C65   H48   S    
O14   C46   A    
C56   H27   S    
C57   H31   S    
C26   H10   S    
O25   C61   S    
C8    C45   S    
C16   C18   A    
C55   C56   S    
