data_mof_unit_30225.cif
_audit_creation_date              2012-12-11T18:11:16-0500
_audit_creation_method            fapswitch 2.2
_symmetry_space_group_name_H-M    P1
_symmetry_Int_Tables_number       1
_space_group_crystal_system       triclinic
_cell_length_a                    8.183357
_cell_length_b                    12.756527
_cell_length_c                    18.702478
_cell_angle_alpha                 99.321796
_cell_angle_beta                  90.973645
_cell_angle_gamma                 98.683156
_cell_volume                      1902.78984449

loop_
_atom_site_label
_atom_site_type_symbol
_atom_type_description
_atom_site_fract_x
_atom_site_fract_y
_atom_site_fract_z
_atom_type_partial_charge
Ba1   Ba    Ba6+2 0.852780 0.548340 0.465070 1.657148
Ba2   Ba    Ba6+2 0.337060 0.451750 0.534940 1.669501
C1    C     C_3   0.648758 0.931883 0.302656 -0.261718
C2    C     C_3   0.649954 0.819002 0.319216 0.415115
C3    C     C_3   0.467849 0.282414 0.315494 0.304019
C4    C     C_3   0.444974 0.251387 0.233547 -0.384991
C5    C     C_3   0.026017 0.231060 0.732082 0.428411
C6    C     C_3   0.037808 0.209392 0.809606 0.115659
C7    C     C_3   0.572173 0.211670 0.774481 0.291914
C8    C     C_3   0.507120 0.157490 0.837457 -0.255103
C9    C     C_R   0.991111 0.452948 0.049328 0.020565
C10   C     C_R   0.896090 0.395422 0.096903 -0.079172
C11   C     C_R   0.757695 0.433201 0.958968 -0.089312
C12   C     C_3   0.144604 0.757528 0.262499 0.321925
C13   C     C_R   0.927088 0.463709 0.979905 0.034774
C14   C     C_R   0.699551 0.435944 0.889073 -0.099150
C15   C     C_R   0.808299 0.466029 0.836304 -0.029927
C16   C     C_R   0.973869 0.510792 0.858185 0.002250
C17   C     C_R   0.033639 0.510261 0.930431 0.030051
C18   C     C_R   0.757468 0.451515 0.762142 -0.038659
C19   C     C_R   0.868747 0.486386 0.711936 -0.298819
C20   C     C_R   0.024695 0.544530 0.733865 0.046183
C21   C     C_R   0.078738 0.557162 0.808098 -0.042599
C22   C     C_R   0.157391 0.497205 0.071142 0.026851
C23   C     C_3   0.128278 0.772379 0.182358 0.609582
C24   C     C_R   0.217724 0.494041 0.142986 -0.015233
C25   C     C_R   0.112716 0.445752 0.192439 -0.036105
C26   C     C_R   0.956484 0.390699 0.166210 -0.009846
C27   C     C_R   0.233338 0.614863 0.834330 -0.004719
C28   C     C_R   0.293539 0.612788 0.904185 -0.057415
C29   C     C_R   0.199288 0.555849 0.952391 0.017358
C30   C     C_R   0.262750 0.546959 0.022433 0.022083
C31   C     C_R   0.430096 0.583553 0.044968 -0.037336
C32   C     C_R   0.382366 0.540744 0.165626 -0.048513
C33   C     C_R   0.488134 0.580485 0.114774 -0.010746
C34   C     C_3   0.232222 0.785459 0.619143 0.304717
C35   C     C_R   0.435812 0.547490 0.238709 -0.003064
C36   C     C_R   0.326415 0.507968 0.288096 -0.304639
C37   C     C_R   0.167539 0.454560 0.266281 0.044756
C38   C     C_R   0.768033 0.180949 0.526350 -0.268980
C39   C     C_R   0.427128 0.808978 0.472025 -0.305123
C40   C     C_R   0.401229 0.984666 0.446423 -0.096485
C41   C     C_R   0.336657 0.876663 0.442384 -0.002576
C42   C     C_R   0.577731 0.849170 0.510312 0.062100
C43   C     C_R   0.643543 0.960631 0.517029 -0.034591
C44   C     C_R   0.553868 0.028526 0.483425 -0.049602
C45   C     C_3   0.274025 0.906705 0.638847 0.080244
C46   C     C_R   0.618948 0.138751 0.487957 0.052583
C47   C     C_R   0.860060 0.115407 0.557260 -0.031693
C48   C     C_R   0.796501 0.006383 0.554658 -0.044492
C49   C     C_3   0.973293 0.207109 0.377910 0.262292
C50   C     C_3   0.038310 0.100832 0.365112 -0.297341
C51   C     C_3   0.728014 0.703943 0.682121 0.328139
C52   C     C_3   0.750925 0.740920 0.763734 -0.304233
H1    H     H_    0.747641 0.823105 0.361726 0.078715
H2    H     H_    0.165277 0.940612 0.661900 0.135489
H3    H     H_    0.310466 0.943270 0.590674 0.033988
H4    H     H_    0.838839 0.191463 0.385120 -0.009830
H5    H     H_    0.035955 0.255347 0.428255 0.065564
H6    H     H_    0.971501 0.046436 0.318117 0.156587
H7    H     H_    0.023303 0.063011 0.414301 0.085037
H8    H     H_    0.170681 0.114610 0.352370 0.146989
H9    H     H_    0.842810 0.677534 0.660918 -0.015290
H10   H     H_    0.624184 0.635976 0.671367 0.060394
H11   H     H_    0.695725 0.992168 0.350855 0.003934
H12   H     H_    0.860279 0.804966 0.776061 0.180708
H13   H     H_    0.769991 0.673201 0.791502 0.034086
H14   H     H_    0.639203 0.772744 0.785200 0.166302
H15   H     H_    0.527550 0.791539 0.339715 -0.080402
H16   H     H_    0.520556 0.943115 0.290442 0.159004
H17   H     H_    0.352352 0.308182 0.337195 0.006987
H18   H     H_    0.571210 0.350542 0.327542 0.067739
H19   H     H_    0.328004 0.194618 0.219394 0.166000
H20   H     H_    0.438187 0.323596 0.208415 0.050142
H21   H     H_    0.551266 0.213850 0.211213 0.129806
H22   H     H_    0.726056 0.947268 0.256298 0.192205
H23   H     H_    0.088273 0.314669 0.731579 0.003642
H24   H     H_    0.893608 0.223625 0.715032 -0.126074
H25   H     H_    0.970153 0.264516 0.845628 0.003609
H26   H     H_    0.169097 0.224214 0.829386 0.090439
H27   H     H_    0.692086 0.260549 0.793496 -0.041463
H28   H     H_    0.596412 0.151530 0.727874 0.115335
H29   H     H_    0.593956 0.104852 0.852294 0.164866
H30   H     H_    0.383814 0.108441 0.822550 0.189347
H31   H     H_    0.060594 0.682995 0.268534 0.029345
H32   H     H_    0.494695 0.219055 0.885455 0.076521
H33   H     H_    0.829100 0.474463 0.655329 0.070064
H34   H     H_    0.568705 0.411046 0.876374 0.088534
H35   H     H_    0.877011 0.344247 0.198979 0.099203
H36   H     H_    0.312082 0.660768 0.800972 0.115920
H37   H     H_    0.617146 0.611429 0.128444 0.133581
H38   H     H_    0.367627 0.515934 0.344262 0.073142
H39   H     H_    0.665973 0.408014 0.995979 0.063475
H40   H     H_    0.774412 0.351021 0.081472 0.066527
H41   H     H_    0.414594 0.658274 0.919127 0.088852
H42   H     H_    0.273165 0.745521 0.274518 -0.071672
H43   H     H_    0.520850 0.614599 0.009535 0.085757
H44   H     H_    0.329569 0.033341 0.420977 0.097406
H45   H     H_    0.869140 0.958967 0.581268 0.104828
H46   H     H_    0.817353 0.265174 0.528862 0.054655
H47   H     H_    0.376693 0.724599 0.467401 0.069641
H48   H     H_    0.121648 0.692678 0.147925 -0.071538
H49   H     H_    0.342612 0.752268 0.598487 0.005957
H50   H     H_    0.131233 0.765212 0.576778 0.028343
O1    O     O_2   0.873090 0.425890 0.325140 -0.476571
O2    O     O_3   0.694287 0.790685 0.650414 -0.575465
O3    O     O_3   0.101607 0.845010 0.310838 -0.582417
O4    O     O_2   0.316610 0.574140 0.674900 -0.463622
O5    O     O_3   0.067290 0.565720 0.585630 -0.501720
O6    O     O_3   0.530210 0.372990 0.631200 -0.450182
O7    O     O_3   0.184495 0.745307 0.681936 -0.608846
O8    O     O_3   0.611340 0.366290 0.463630 -0.481037
O9    O     O_3   0.108550 0.314140 0.595200 -0.482369
O10   O     O_2   0.204568 0.123746 0.554652 -0.476821
O11   O     O_3   0.104424 0.157481 0.686043 -0.550686
O12   O     O_3   0.122420 0.434370 0.414380 -0.497923
O13   O     O_3   0.578370 0.633800 0.536380 -0.495718
O14   O     O_2   0.341510 0.231850 0.465510 -0.472771
O15   O     O_3   0.503266 0.193724 0.345249 -0.640441
O16   O     O_2   0.427328 0.467285 0.754570 -0.490465
O17   O     O_3   0.452835 0.269730 0.752576 -0.573451
O18   O     O_3   0.659500 0.627100 0.368810 -0.497599
O19   O     O_2   0.785093 0.560940 0.242966 -0.505262
O20   O     O_3   0.999628 0.254290 0.315770 -0.625725
O21   O     O_3   0.681540 0.748333 0.256968 -0.536905
O22   O     O_2   0.848200 0.768190 0.534530 -0.487168
O23   O     O_3   0.081160 0.685950 0.404810 -0.484787
O24   O     O_2   0.998694 0.877802 0.444185 -0.514772
P1    P     P_3+3 0.041040 0.394770 0.336330 0.975613
P2    P     P_3+3 0.672880 0.754030 0.556100 0.999642
P3    P     P_3+3 0.129991 0.822563 0.400594 0.944511
P4    P     P_3+3 0.148670 0.605320 0.663680 0.990754
P5    P     P_3+3 0.068402 0.175706 0.596830 0.992414
P6    P     P_3+3 0.641737 0.616877 0.275388 0.971651
P7    P     P_3+3 0.522790 0.230531 0.439717 0.938365
P8    P     P_3+3 0.546560 0.389314 0.726024 0.961446
Br1   Br    Br    0.455063 0.939917 0.710063 -0.586548
S1    S     S_3+6 0.299747 0.857406 0.154140 -0.046797
O25   O     O_2   0.456368 0.813021 0.164588 -0.317938
O26   O     O_2   0.274192 0.862344 0.075045 -0.233656
O27   O     O_3   0.313201 0.981651 0.202239 -0.513942
H51   H     H_    0.417795 0.020746 0.187574 0.355092
Br2   Br    Br    0.943734 0.062098 0.815047 -0.553771
Br3   Br    Br    0.929811 0.826641 0.158350 -0.432547

loop_
_geom_bond_atom_site_label_1
_geom_bond_atom_site_label_2
_ccdc_geom_bond_type
O21   P6    S    
C19   H33   S    
Ba2   O5    S    
C32   C35   A    
C8    H29   S    
C46   P7    S    
O6    P8    S    
C17   C29   A    
Ba2   O14   S    
C5    C6    S    
C43   C44   A    
C13   C17   A    
Ba2   O8    S    
C24   C25   A    
C27   C28   A    
C2    O21   S    
C10   C26   A    
C34   H49   S    
C21   C27   A    
C35   C36   A    
C22   C24   A    
C32   C33   A    
C3    H18   S    
Ba1   P1    S    
C50   H7    S    
C40   H44   S    
Ba1   O8    S    
C28   C29   A    
C51   H10   S    
C23   H48   S    
C52   H14   S    
O22   P2    D    
C42   P2    S    
C38   C47   A    
C36   H38   S    
C9    C22   A    
C15   C18   A    
C34   C45   S    
C38   C46   A    
Ba1   Ba2   S    
C40   C44   A    
C5    O11   S    
Ba1   O18   S    
O18   P6    S    
C50   H6    S    
Ba1   O5    S    
Ba2   O12   S    
C51   O2    S    
C24   C32   A    
Ba2   O6    S    
O12   P1    S    
C25   C37   A    
C14   C15   A    
C6    H25   S    
Ba2   P4    S    
C26   H35   S    
Ba1   O12   S    
C7    C8    S    
C7    H28   S    
C5    H23   S    
C12   C23   S    
O9    P5    S    
C19   C20   A    
C49   O20   S    
C39   C41   A    
C10   H40   S    
C1    H11   S    
C9    C13   A    
O5    P4    S    
C12   H42   S    
C2    H15   S    
Ba2   O4    S    
Ba2   O13   S    
C4    H20   S    
C36   C37   A    
C44   C46   A    
O19   P6    D    
C49   C50   S    
C4    H21   S    
C1    H16   S    
Ba1   O22   S    
O3    P3    S    
Ba1   P2    S    
C16   C17   A    
O1    P1    D    
C52   H13   S    
O11   P5    S    
C51   C52   S    
O15   P7    S    
C16   C21   A    
C11   H39   S    
O16   P8    D    
C22   C30   A    
C28   H41   S    
C1    H22   S    
C45   H3    S    
C7    O17   S    
C29   C30   A    
C45   Br1   S    
C34   O7    S    
C15   C16   A    
C48   H45   S    
C49   H4    S    
Ba1   O13   S    
C18   P8    S    
O13   P2    S    
S1    O26   D    
C5    H24   S    
C12   O3    S    
C3    O15   S    
C11   C13   A    
C2    H1    S    
C39   C42   A    
C23   Br3   S    
C49   H5    S    
C40   C41   A    
O8    P7    S    
C1    C2    S    
O24   P3    D    
C42   C43   A    
C4    H19   S    
C14   H34   S    
Ba2   O9    S    
O2    P2    S    
C47   P5    S    
C8    H32   S    
C20   P4    S    
C20   C21   A    
C27   H36   S    
Ba1   O23   S    
C12   H31   S    
S1    O27   S    
C38   H46   S    
C9    C10   A    
C52   H12   S    
C37   P1    S    
C34   H50   S    
C30   C31   A    
C41   P3    S    
C23   S1    S    
C3    H17   S    
C50   H8    S    
O27   H51   S    
C51   H9    S    
C3    C4    S    
C43   C48   A    
C8    H30   S    
C31   C33   A    
O10   P5    D    
C39   H47   S    
O20   P1    S    
C6    Br2   S    
C31   H43   S    
O17   P8    S    
O23   P3    S    
O4    P4    D    
S1    O25   D    
O7    P4    S    
C18   C19   A    
C47   C48   A    
C11   C14   A    
C7    H27   S    
C25   C26   A    
C6    H26   S    
C35   P6    S    
O14   P7    D    
Ba1   O1    S    
C45   H2    S    
C33   H37   S    
