data_mof_unit_59113.cif
_audit_creation_date              2012-12-10T20:41:49-0500
_audit_creation_method            fapswitch 2.2
_symmetry_space_group_name_H-M    P1
_symmetry_Int_Tables_number       1
_space_group_crystal_system       triclinic
_cell_length_a                    14.972248
_cell_length_b                    15.315232
_cell_length_c                    9.904183
_cell_angle_alpha                 90.131907
_cell_angle_beta                  88.700955
_cell_angle_gamma                 89.699689
_cell_volume                      2270.44181057

loop_
_atom_site_label
_atom_site_type_symbol
_atom_type_description
_atom_site_fract_x
_atom_site_fract_y
_atom_site_fract_z
_atom_type_partial_charge
C1    C     C_R   0.382101 0.878290 0.500521 0.880888
C2    C     C_R   0.385508 0.125189 0.500879 0.873105
C3    C     C_R   0.882130 0.377898 0.500268 0.869000
C4    C     C_R   0.879680 0.619831 0.500925 0.875591
C5    C     C_3   0.257109 0.191533 0.740524 -0.528594
C6    C     C_3   0.315045 0.751576 0.745092 -0.474051
C7    C     C_3   0.767290 0.710599 0.753190 -0.546609
C8    C     C_3   0.761634 0.302534 0.745081 -0.494937
C9    C     C_R   0.429033 0.966959 0.072976 0.166469
C10   C     C_R   0.926978 0.474148 0.073271 0.159087
C11   C     C_R   0.573494 0.024346 0.069413 -0.142632
C12   C     C_R   0.075780 0.516942 0.069291 -0.159967
C13   C     C_R   0.573519 0.024210 0.925691 -0.123540
C14   C     C_R   0.075383 0.518457 0.925458 -0.125497
C15   C     C_R   0.429716 0.966044 0.931359 0.098330
C16   C     C_R   0.929069 0.466494 0.931577 0.100869
C17   C     C_3   0.334190 0.993184 0.928065 -0.692075
C18   C     C_3   0.833288 0.493093 0.924387 -0.748408
C19   C     C_3   0.332168 0.993059 0.083995 0.876089
C20   C     C_3   0.837078 0.516316 0.075806 0.902079
C21   C     C_R   0.622058 0.117907 0.499001 0.863894
C22   C     C_R   0.619097 0.879777 0.498619 0.866591
C23   C     C_R   0.121097 0.618627 0.499345 0.868963
C24   C     C_R   0.123855 0.383521 0.499078 0.862608
C25   C     C_R   0.299590 0.237761 0.624098 0.151017
C26   C     C_R   0.274137 0.787872 0.620603 0.117716
C27   C     C_R   0.749447 0.690863 0.608647 0.123677
C28   C     C_R   0.799354 0.262837 0.618620 0.132912
C29   C     C_R   0.337234 0.206807 0.503665 -0.126040
C30   C     C_R   0.317544 0.810796 0.500386 -0.111606
C31   C     C_R   0.809627 0.682679 0.499908 -0.089456
C32   C     C_R   0.826184 0.302578 0.498482 -0.113620
C33   C     C_R   0.326458 0.256909 0.386097 -0.238966
C34   C     C_R   0.294830 0.771311 0.378113 -0.195728
C35   C     C_R   0.796870 0.730867 0.381981 -0.223399
C36   C     C_R   0.800407 0.266454 0.374726 -0.196652
C37   C     C_R   0.730438 0.792839 0.377827 -0.260140
C38   C     C_R   0.735952 0.201929 0.373955 -0.241370
C39   C     C_R   0.257445 0.318684 0.383090 -0.249546
C40   C     C_R   0.229395 0.708527 0.377146 -0.274926
C41   C     C_R   0.678693 0.808570 0.494246 -0.084516
C42   C     C_R   0.697803 0.173948 0.496907 -0.099701
C43   C     C_R   0.204226 0.332215 0.500037 -0.109524
C44   C     C_R   0.187460 0.684342 0.498715 -0.090426
C45   C     C_R   0.685125 0.754825 0.606003 0.129158
C46   C     C_R   0.735736 0.199000 0.617938 0.130130
C47   C     C_R   0.233824 0.299787 0.622343 0.144848
C48   C     C_R   0.209285 0.724900 0.619756 0.143139
C49   C     C_3   0.696910 0.780821 0.749256 -0.462435
C50   C     C_3   0.691733 0.231712 0.745202 -0.479790
C51   C     C_3   0.183598 0.259823 0.738267 -0.477317
C52   C     C_3   0.243108 0.682908 0.745001 -0.499792
H1    H     H_    0.362925 0.241276 0.293388 0.194529
H2    H     H_    0.328652 0.787330 0.283757 0.210257
H3    H     H_    0.840579 0.723615 0.295474 0.208737
H4    H     H_    0.824905 0.291787 0.278879 0.195162
H5    H     H_    0.724324 0.832337 0.287810 0.172974
H6    H     H_    0.712009 0.178919 0.277873 0.167504
H7    H     H_    0.241931 0.350193 0.288613 0.172783
H8    H     H_    0.213485 0.677662 0.282170 0.165501
H9    H     H_    0.724626 0.847612 0.760880 0.210750
H10   H     H_    0.698674 0.185197 0.830224 0.194577
H11   H     H_    0.182068 0.302823 0.828895 0.210159
H12   H     H_    0.269431 0.615716 0.727065 0.201548
H13   H     H_    0.636765 0.766528 0.813200 0.200239
H14   H     H_    0.622892 0.256928 0.729918 0.208231
H15   H     H_    0.117805 0.233078 0.709247 0.205569
H16   H     H_    0.195152 0.689448 0.831646 0.198055
H17   H     H_    0.299553 0.197165 0.830357 0.205866
H18   H     H_    0.383328 0.724616 0.726023 0.203018
H19   H     H_    0.835656 0.736568 0.767325 0.212917
H20   H     H_    0.808616 0.296292 0.829862 0.208008
H21   H     H_    0.233926 0.124818 0.714528 0.204754
H22   H     H_    0.308987 0.796508 0.832732 0.195529
H23   H     H_    0.744880 0.657630 0.821219 0.194870
H24   H     H_    0.733097 0.368615 0.727438 0.203222
H25   H     H_    0.632436 0.045406 0.121294 0.139582
H26   H     H_    0.136379 0.532839 0.121208 0.143000
H27   H     H_    0.632645 0.044523 0.869945 0.138593
H28   H     H_    0.135605 0.535510 0.869635 0.143053
H29   H     H_    0.327492 0.058875 0.884412 0.212917
H30   H     H_    0.293258 0.943141 0.878098 0.173014
H31   H     H_    0.819861 0.542591 0.847765 0.204227
H32   H     H_    0.790396 0.435783 0.909266 0.192937
N1    N     N_R   0.499140 0.000000 0.142800 -0.108446
N2    N     N_R   0.999140 0.500000 0.142800 -0.120472
N3    N     N_R   0.499160 0.000000 0.857150 -0.084752
N4    N     N_R   0.999160 0.500000 0.857150 -0.092028
O1    O     O_R   0.408400 0.908380 0.614690 -0.613309
O2    O     O_R   0.408400 0.091620 0.614690 -0.612859
O3    O     O_R   0.908400 0.408380 0.614690 -0.606044
O4    O     O_R   0.908400 0.591620 0.614690 -0.626056
O5    O     O_R   0.408370 0.908370 0.385350 -0.593929
O6    O     O_R   0.408370 0.091630 0.385350 -0.568887
O7    O     O_R   0.908370 0.408370 0.385350 -0.598502
O8    O     O_R   0.908370 0.591630 0.385350 -0.573472
O9    O     O_R   0.591610 0.091610 0.614650 -0.625389
O10   O     O_R   0.591610 0.908390 0.614650 -0.623909
O11   O     O_R   0.091610 0.591610 0.614650 -0.626922
O12   O     O_R   0.091610 0.408390 0.614650 -0.615185
O13   O     O_R   0.591590 0.091600 0.385310 -0.632578
O14   O     O_R   0.591590 0.908400 0.385310 -0.631721
O15   O     O_R   0.091590 0.591600 0.385310 -0.641924
O16   O     O_R   0.091590 0.408400 0.385310 -0.625503
Zn1   Zn    Zn3+2 0.500010 0.000000 0.653130 0.944769
Zn2   Zn    Zn3+2 0.000010 0.500000 0.653130 0.935851
Zn3   Zn    Zn3+2 0.499980 0.000000 0.346870 0.981377
Zn4   Zn    Zn3+2 0.999980 0.500000 0.346870 0.967314
O17   O     O_3   0.324624 0.077324 0.144440 -0.643734
C53   C     C_3   0.235929 0.102335 0.181021 0.101733
H33   H     H_    0.238391 0.140789 0.274550 0.176350
H34   H     H_    0.191705 0.048898 0.211888 0.168548
C54   C     C_3   0.194560 0.159222 0.072262 -0.424173
H35   H     H_    0.240800 0.213717 0.047983 0.235436
H36   H     H_    0.184259 0.119351 0.980328 0.226475
C55   C     C_3   0.104916 0.198009 0.119103 -0.937385
H37   H     H_    0.056021 0.145417 0.140643 0.258011
H38   H     H_    0.078184 0.240321 0.038392 0.266804
H39   H     H_    0.113003 0.238268 0.211391 0.274735
O18   O     O_3   0.284743 0.925572 0.153458 -0.671862
C56   C     C_3   0.201310 0.904790 0.096604 -0.010774
H40   H     H_    0.211169 0.847138 0.029754 0.127820
H41   H     H_    0.173845 0.958333 0.033583 0.152858
C57   C     C_3   0.133776 0.881676 0.210868 -0.306585
H42   H     H_    0.124415 0.809917 0.214192 0.207733
H43   H     H_    0.159688 0.901858 0.310491 0.248284
C58   C     C_3   0.042577 0.925247 0.193932 -0.983408
H44   H     H_    0.047104 0.996567 0.210824 0.259219
H45   H     H_    0.994248 0.898477 0.269585 0.260618
H46   H     H_    0.017007 0.913592 0.091287 0.276210
O19   O     O_3   0.841329 0.605695 0.119749 -0.645400
C59   C     C_3   0.876559 0.667240 0.025334 -0.025564
H47   H     H_    0.824340 0.717600 0.009746 0.163672
H48   H     H_    0.895610 0.640166 0.926340 0.175514
C60   C     C_3   0.959449 0.713916 0.076984 -0.322375
H49   H     H_    0.939075 0.769774 0.142090 0.201944
H50   H     H_    0.000510 0.669554 0.138292 0.255754
C61   C     C_3   0.016143 0.748917 0.958463 -0.987458
H51   H     H_    0.033364 0.696283 0.885106 0.278242
H52   H     H_    0.079471 0.775353 0.995098 0.259429
H53   H     H_    0.979325 0.801316 0.905485 0.261383
O20   O     O_3   0.777548 0.466987 0.157759 -0.632760
C62   C     C_3   0.687792 0.494278 0.141485 0.116736
H54   H     H_    0.646255 0.435010 0.129257 0.136960
H55   H     H_    0.677115 0.535009 0.049885 0.083511
C63   C     C_3   0.653308 0.544814 0.265824 -0.327497
H56   H     H_    0.689753 0.607293 0.273588 0.250004
H57   H     H_    0.581469 0.560553 0.252877 0.158230
C64   C     C_3   0.663508 0.493132 0.396313 -0.778458
H58   H     H_    0.629978 0.428826 0.388816 0.245637
H59   H     H_    0.632689 0.530300 0.481913 0.217742
H60   H     H_    0.735201 0.482929 0.417458 0.277430

loop_
_geom_bond_atom_site_label_1
_geom_bond_atom_site_label_2
_ccdc_geom_bond_type
O13   Zn3   S    
C62   C63   S    
C23   O11   A    
C13   H27   S    
C6    H18   S    
C18   H31   S    
C40   H8    S    
C60   C61   S    
C60   H49   S    
C28   C46   A    
C33   C39   A    
O10   Zn1   S    
C49   H13   S    
C2    C29   S    
C34   C40   A    
C32   C36   A    
C3    O3    A    
C35   C37   A    
C38   C42   A    
C57   H43   S    
C64   H59   S    
C7    H19   S    
C22   C41   S    
C62   H54   S    
C29   C33   A    
C8    H24   S    
C7    C27   S    
C55   H37   S    
C60   H50   S    
C17   H30   S    
C42   C46   A    
C2    O2    A    
C53   H33   S    
C56   C57   S    
C5    H17   S    
C11   H25   S    
C9    N1    A    
C38   H6    S    
C9    C19   S    
C62   H55   S    
C10   C20   S    
C59   H47   S    
C12   H26   S    
C18   H32   S    
O15   Zn4   S    
C14   H28   S    
C25   C47   A    
C40   C44   A    
C18   C20   S    
C52   H16   S    
C26   C48   A    
C54   C55   S    
O9    Zn1   S    
C27   C45   A    
O8    Zn4   S    
C4    O8    A    
C25   C29   A    
O3    Zn2   S    
C59   H48   S    
N4    Zn2   S    
C6    H22   S    
C63   H57   S    
C19   O17   S    
C33   H1    S    
C23   O15   A    
O6    Zn3   S    
C8    H20   S    
C49   H9    S    
C30   C34   A    
C27   C31   A    
C20   O20   S    
C28   C32   A    
C51   H11   S    
C7    C49   S    
C54   H35   S    
C52   H12   S    
C64   H60   S    
C22   O10   A    
C7    H23   S    
C35   H3    S    
C23   C44   S    
C54   H36   S    
C24   O16   A    
C58   H45   S    
C36   H4    S    
C63   C64   S    
C21   O9    A    
N3    Zn1   S    
C2    O6    A    
C39   H7    S    
C13   N3    A    
C45   C49   S    
O14   Zn3   S    
C51   H15   S    
C50   H14   S    
C53   C54   S    
C56   H40   S    
C61   H52   S    
O7    Zn4   S    
C57   C58   S    
C5    C25   S    
C16   C18   S    
C12   C14   A    
C19   O18   S    
C34   H2    S    
C50   H10   S    
C31   C35   A    
C20   O19   S    
C58   H44   S    
C8    C50   S    
O16   Zn4   S    
O18   C56   S    
C15   N3    A    
C63   H56   S    
O4    Zn2   S    
C15   C17   S    
O11   Zn2   S    
C10   N2    A    
C1    O1    A    
C24   O12   A    
C5    H21   S    
N2    Zn4   S    
O2    Zn1   S    
C61   H53   S    
C47   C51   S    
C26   C30   A    
C46   C50   S    
O12   Zn2   S    
C22   O14   A    
C55   H39   S    
C12   N2    A    
N1    Zn3   S    
C36   C38   A    
C9    C15   A    
C58   H46   S    
C14   N4    A    
C21   O13   A    
C10   C16   A    
C64   H58   S    
O5    Zn3   S    
C11   C13   A    
C6    C26   S    
C11   N1    A    
C59   C60   S    
C8    C28   S    
C1    C30   S    
C17   C19   S    
C55   H38   S    
C17   H29   S    
C37   C41   A    
C3    C32   S    
C53   H34   S    
C56   H41   S    
C4    C31   S    
C61   H51   S    
C21   C42   S    
C44   C48   A    
C48   C52   S    
C39   C43   A    
C1    O5    A    
O1    Zn1   S    
C16   N4    A    
C24   C43   S    
C41   C45   A    
O20   C62   S    
C5    C51   S    
C3    O7    A    
C6    C52   S    
O17   C53   S    
C43   C47   A    
C37   H5    S    
O19   C59   S    
C57   H42   S    
C4    O4    A    
