data_mof_unit_66554.cif
_audit_creation_date              2013-03-05T16:46:09-0500
_audit_creation_method            fapswitch 2.2
_symmetry_space_group_name_H-M    P1
_symmetry_Int_Tables_number       1
_space_group_crystal_system       triclinic
_cell_length_a                    10.9572
_cell_length_b                    11.155501
_cell_length_c                    10.219869
_cell_angle_alpha                 90.423121
_cell_angle_beta                  91.944611
_cell_angle_gamma                 90.538194
_cell_volume                      1248.39422643

loop_
_atom_site_label
_atom_site_type_symbol
_atom_site_description
_atom_site_fract_x
_atom_site_fract_y
_atom_site_fract_z
_atom_type_partial_charge
O1    O     O_R   0.500020 0.316790 0.614690 -0.595422
O2    O     O_R   0.500000 0.316760 0.385350 -0.596690
C1    C     C_R   0.503664 0.260725 0.499136 0.987171
O3    O     O_R   0.316770 0.500030 0.614670 -0.527639
O4    O     O_R   0.316750 0.499990 0.385330 -0.639250
C2    C     C_R   0.259587 0.499649 0.498706 0.918381
Zn1   Zn    Zn3+2 0.500010 0.500020 0.653130 1.119096
Zn2   Zn    Zn3+2 0.499990 0.499980 0.346870 1.088280
O5    O     O_R   0.500000 0.683240 0.614650 -0.566806
O6    O     O_R   0.499980 0.683210 0.385310 -0.575979
O7    O     O_R   0.683250 0.500010 0.614670 -0.592520
O8    O     O_R   0.683230 0.499970 0.385330 -0.566934
C3    C     C_R   0.503195 0.738891 0.499436 0.923826
C4    C     C_R   0.738151 0.502297 0.502089 0.917856
C5    C     C_R   0.064080 0.640821 0.127349 -0.134871
H1    H     H_    0.074484 0.736799 0.114526 0.238114
C6    C     C_R   0.065151 0.596882 0.251634 -0.208340
H2    H     H_    0.071488 0.662227 0.329588 0.163836
C7    C     C_R   0.063401 0.472559 0.274131 0.054522
C8    C     C_R   0.051821 0.393814 0.167997 -0.185866
H3    H     H_    0.041810 0.298587 0.185160 0.245188
C9    C     C_R   0.049507 0.437332 0.039931 0.309470
C10   C     C_R   0.068854 0.562395 0.022094 0.384489
C11   C     C_R   0.930356 0.409720 0.440909 0.263808
C12   C     C_R   0.869911 0.501607 0.506216 -0.134030
C13   C     C_R   0.936497 0.599737 0.557782 0.086385
C14   C     C_R   0.063789 0.592279 0.563379 -0.045122
H4    H     H_    0.114668 0.668281 0.599496 0.235905
C15   C     C_R   0.124051 0.498752 0.499726 -0.125339
C16   C     C_R   0.052802 0.430288 0.409118 -0.044876
C17   C     C_R   0.875934 0.791191 0.462664 -0.289133
H5    H     H_    0.889257 0.750983 0.367727 0.229117
C18   C     C_R   0.869635 0.915456 0.472540 0.324506
C19   C     C_R   0.861930 0.968811 0.596065 -0.314730
H6    H     H_    0.864204 0.065406 0.605047 0.249412
C20   C     C_R   0.857589 0.899013 0.709493 0.182414
C21   C     C_R   0.861204 0.771787 0.699093 0.325711
C22   C     C_R   0.881063 0.719643 0.574607 -0.148657
C23   C     C_R   0.519786 0.062092 0.610907 -0.072568
C24   C     C_R   0.515884 0.128004 0.495903 -0.156455
C25   C     C_R   0.519526 0.061553 0.377654 0.257015
C26   C     C_R   0.519689 0.935101 0.376719 0.232736
C27   C     C_R   0.514175 0.870848 0.495606 -0.204240
C28   C     C_R   0.517883 0.937707 0.611016 -0.145765
C29   C     C_3   0.436092 0.933078 0.725384 0.489895
C30   C     C_3   0.446635 0.070459 0.731362 0.308326
C31   C     C_R   0.400627 0.463850 0.066925 0.011521
N1    N     N_R   0.499160 0.499140 0.142800 -0.164646
C32   C     C_R   0.596464 0.542198 0.073798 0.407730
C33   C     C_R   0.595943 0.539996 0.932643 -0.022227
H7    H     H_    0.673454 0.571015 0.883530 0.229870
N2    N     N_R   0.499160 0.499180 0.857150 -0.143687
C34   C     C_R   0.399634 0.466866 0.926595 0.299447
C35   C     C_3   0.342528 0.348261 0.917351 -0.328950
C36   C     C_3   0.352255 0.340356 0.063764 -0.383289
H8    H     H_    0.247679 0.348542 0.878118 0.275882
H9    H     H_    0.404222 0.290362 0.866122 0.247034
H10   H     H_    0.265122 0.328674 0.112657 0.213166
H11   H     H_    0.425309 0.280151 0.095395 0.302145
S1    S     S_3+6 0.149929 0.623615 0.896124 0.088341
O9    O     O_2   0.174464 0.530982 0.796101 -0.273352
O10   O     O_2   0.079416 0.723525 0.836289 -0.216980
O11   O     O_3   0.282710 0.682980 0.954138 -0.456689
H12   H     H_    0.282256 0.678567 0.050633 0.348778
N3    N     N_R   0.863752 0.959569 0.834147 0.282188
O12   O     O_R   0.950576 0.934563 0.919327 -0.212103
O13   O     O_R   0.802215 0.057142 0.850505 -0.223074
N4    N     N_R   0.846760 0.696807 0.812513 0.221386
O14   O     O_R   0.869291 0.582759 0.806769 -0.342482
O15   O     O_R   0.815530 0.741553 0.924262 -0.269991
N5    N     N_R   0.499037 0.118698 0.255887 0.221873
O16   O     O_R   0.591480 0.163839 0.195806 -0.238746
O17   O     O_R   0.395678 0.097642 0.192976 -0.297421
N6    N     N_R   0.509289 0.875355 0.252173 0.271223
O18   O     O_R   0.403861 0.830711 0.213550 -0.305132
O19   O     O_R   0.591597 0.894980 0.165885 -0.180747
S2    S     S_3+6 0.286985 0.873387 0.680079 0.097660
O20   O     O_2   0.250401 0.906398 0.541791 -0.331652
O21   O     O_2   0.293656 0.740401 0.689913 -0.234058
O22   O     O_3   0.181385 0.922207 0.782200 -0.374818
H13   H     H_    0.114215 0.952683 0.724763 0.391271
N7    N     N_R   0.490704 0.871968 0.838784 0.250323
O23   O     O_R   0.595403 0.819006 0.832331 -0.362705
O24   O     O_R   0.431870 0.866957 0.946716 -0.174444
N8    N     N_R   0.327994 0.131049 0.717312 0.183260
O25   O     O_R   0.256981 0.132998 0.816545 -0.293022
O26   O     O_R   0.282821 0.163135 0.603597 -0.381491
N9    N     N_R   0.523003 0.117249 0.841045 0.195010
O27   O     O_R   0.493122 0.095461 0.960094 -0.231914
O28   O     O_R   0.607140 0.197728 0.821579 -0.303164
N10   N     N_R   0.703029 0.586264 0.142016 0.248557
O29   O     O_R   0.808507 0.541959 0.115798 -0.353958
O30   O     O_R   0.697729 0.680785 0.216323 -0.325477
S3    S     S_3+6 0.988838 0.336075 0.918563 0.142709
O31   O     O_2   0.045425 0.215366 0.940349 -0.209120
O32   O     O_2   0.854061 0.324533 0.938894 -0.146601
O33   O     O_3   0.008035 0.376385 0.762815 -0.482669
H14   H     H_    0.977255 0.307258 0.709554 0.389856
N11   N     N_R   0.861499 0.309121 0.388645 0.233356
O34   O     O_R   0.799437 0.244467 0.468779 -0.419382
O35   O     O_R   0.830283 0.304790 0.264815 -0.261331
N12   N     N_R   0.887683 0.987253 0.359006 0.256451
O36   O     O_R   0.848464 0.949443 0.244247 -0.234568
O37   O     O_R   0.964762 0.076589 0.366045 -0.293373

loop_
_geom_bond_atom_site_label_1
_geom_bond_atom_site_label_2
_geom_bond_distance
_ccdc_geom_bond_type
C36   H11   1.091816 S    
C14   C15   1.407055 A    
C11   N11   1.435908 S    
C25   C26   1.410609 A    
C7    C8    1.392396 A    
O33   H14   0.990536 S    
S2    O20   1.505225 D    
C28   C29   1.497693 S    
Zn1   O7    2.058957 S    
C13   C14   1.397287 A    
C21   C22   1.419341 A    
N6    O19   1.300795 A    
S1    O11   1.680599 S    
S1    O10   1.485697 D    
C20   C21   1.423484 A    
Zn1   N2    2.085484 S    
O4    C2    1.335723 A    
O7    C4    1.316600 A    
C29   N7    1.462253 S    
C5    H1    1.085043 S    
C21   N4    1.446577 S    
C6    H2    1.075927 S    
C19   H6    1.080776 S    
C32   C33   1.442433 A    
O5    C3    1.336514 A    
C17   H5    1.080879 S    
N4    O14   1.299543 A    
N3    O13   1.298502 A    
C33   N2    1.362859 A    
C17   C18   1.391696 A    
C31   C34   1.434472 A    
C30   N8    1.473994 S    
C5    C10   1.384216 A    
C9    S3    1.779201 S    
N12   O36   1.301224 A    
C32   N10   1.421278 S    
O3    Zn1   2.032779 S    
C18   C19   1.397197 A    
C30   N9    1.465830 S    
S2    O21   1.489974 D    
C10   S1    1.729794 S    
C35   H8    1.101209 S    
C26   N6    1.433016 S    
N6    O18   1.301403 A    
N8    O26   1.301593 A    
C18   N12   1.432905 S    
C11   C12   1.402669 A    
O3    C2    1.321597 A    
N10   O29   1.296766 A    
N5    O17   1.301735 A    
C20   N3    1.436818 S    
C13   C22   1.485474 S    
S3    O33   1.676774 S    
C12   C13   1.399557 A    
N8    O25   1.299214 A    
S1    O9    1.480985 D    
O1    C1    1.334231 A    
S3    O32   1.502757 D    
C27   C28   1.390065 A    
Zn2   N1    2.085231 S    
C15   C16   1.406977 A    
N10   O30   1.297766 A    
C31   N1    1.361103 A    
Zn2   O8    2.032780 S    
C33   H7    1.057804 S    
C8    H3    1.083126 S    
N12   O37   1.300253 A    
C23   C30   1.494426 S    
N4    O15   1.300719 A    
N1    C32   1.382445 A    
N11   O35   1.300105 A    
N9    O28   1.301935 A    
C1    C24   1.488083 S    
N7    O23   1.298767 A    
N7    O24   1.297661 A    
C29   C30   1.536434 S    
C26   C27   1.417998 A    
C3    C27   1.476738 S    
N2    C34   1.368141 A    
C31   C36   1.471167 S    
S2    O22   1.676329 S    
C5    C6    1.364565 A    
C35   C36   1.499805 S    
C24   C25   1.414976 A    
O1    Zn1   2.078583 S    
O2    Zn2   2.084249 S    
C8    C9    1.398819 A    
O22   H13   0.990028 S    
O6    C3    1.316643 A    
O4    Zn2   2.058957 S    
C34   C35   1.459327 S    
C23   C28   1.387557 A    
C17   C22   1.399643 A    
C25   N5    1.414517 S    
O2    C1    1.323890 A    
O8    C4    1.318033 A    
N5    O16   1.301468 A    
N11   O34   1.300247 A    
C6    C7    1.407546 A    
C19   C20   1.403096 A    
C4    C12   1.443002 S    
S3    O31   1.502669 D    
C11   C16   1.408249 A    
O11   H12   0.987942 S    
C23   C24   1.390605 A    
Zn1   O5    2.084251 S    
C2    C15   1.485433 S    
N9    O27   1.294781 A    
Zn2   O6    2.078583 S    
N3    O12   1.301179 A    
C36   H10   1.099627 S    
C14   H4    1.066956 S    
C9    C10   1.423171 A    
C29   S2    1.802983 S    
C7    C16   1.469170 S    
C35   H9    1.084193 S    
