data_mof_unit_39707.cif
_audit_creation_date              2013-03-05T16:18:24-0500
_audit_creation_method            fapswitch 2.2
_symmetry_space_group_name_H-M    P1
_symmetry_Int_Tables_number       1
_space_group_crystal_system       triclinic
_cell_length_a                    11.01222
_cell_length_b                    9.75785
_cell_length_c                    10.734518
_cell_angle_alpha                 89.966812
_cell_angle_beta                  91.221082
_cell_angle_gamma                 89.894412
_cell_volume                      1153.21985143

loop_
_atom_site_label
_atom_site_type_symbol
_atom_site_description
_atom_site_fract_x
_atom_site_fract_y
_atom_site_fract_z
_atom_type_partial_charge
O1    O     O_R   0.314910 0.616040 0.499970 -0.568238
O2    O     O_R   0.314910 0.383960 0.499970 -0.557828
C1    C     C_R   0.255688 0.501078 0.499070 1.115591
O3    O     O_R   0.500080 0.616020 0.313900 -0.623729
O4    O     O_R   0.500080 0.383980 0.313900 -0.640269
C2    C     C_R   0.508803 0.499639 0.258475 0.987918
Zn1   Zn    Zn3+2 0.500150 0.654960 0.499940 1.019280
Zn2   Zn    Zn3+2 0.500150 0.345040 0.499940 1.006533
O5    O     O_R   0.685320 0.616040 0.499930 -0.633772
O6    O     O_R   0.685320 0.383960 0.499930 -0.629293
O7    O     O_R   0.500150 0.616060 0.686000 -0.601738
O8    O     O_R   0.500150 0.383940 0.686000 -0.603068
C3    C     C_R   0.740870 0.499745 0.499897 1.006365
C4    C     C_R   0.507768 0.499148 0.743337 1.014232
C5    C     C_3   0.420107 0.562678 0.043120 -0.318363
C6    C     C_3   0.520515 0.365809 0.047216 -0.243469
C7    C     C_3   0.422701 0.431234 0.962244 0.415071
H1    H     H_    0.347090 0.624065 0.084432 0.233425
H2    H     H_    0.521054 0.259170 0.083547 0.188844
C8    C     C_3   0.520156 0.494924 0.879733 -0.259712
C9    C     C_3   0.521548 0.622789 0.963784 0.297749
C10   C     C_3   0.618078 0.431099 0.966842 0.300056
C11   C     C_3   0.621804 0.560955 0.049202 -0.234475
C12   C     C_3   0.519601 0.497768 0.125373 -0.182430
H3    H     H_    0.703560 0.614257 0.087116 0.202863
C13   C     C_3   0.065883 0.600883 0.610352 0.548291
C14   C     C_3   0.065079 0.348182 0.509537 0.543431
C15   C     C_3   0.923294 0.616048 0.587801 0.036397
C16   C     C_3   0.925613 0.356735 0.538489 0.014415
H4    H     H_    0.907064 0.708284 0.529842 0.204955
H5    H     H_    0.877351 0.283890 0.476579 0.162447
H6    H     H_    0.859863 0.614677 0.324711 0.239229
H7    H     H_    0.893787 0.441591 0.309851 0.259636
C17   C     C_3   0.056410 0.566153 0.367607 0.455235
C18   C     C_3   0.115278 0.504583 0.496688 -0.402405
C19   C     C_3   0.874249 0.500265 0.502276 -0.292632
C20   C     C_3   0.916064 0.532386 0.368477 -0.639600
C21   C     C_3   0.390121 0.081143 0.435776 -0.229546
C22   C     C_3   0.389442 0.920062 0.436097 -0.210792
H8    H     H_    0.382905 0.118958 0.338128 0.203951
H9    H     H_    0.382463 0.882542 0.338447 0.212056
H10   H     H_    0.311017 0.119210 0.485047 0.212098
H11   H     H_    0.307823 0.884527 0.484510 0.245108
H12   H     H_    0.602654 0.119152 0.330965 0.168136
H13   H     H_    0.603321 0.880049 0.331496 0.176821
C23   C     C_3   0.604613 0.080978 0.428689 -0.224194
C24   C     C_3   0.604831 0.918580 0.429040 -0.236366
C25   C     C_3   0.508888 0.080661 0.625151 -0.221555
C26   C     C_3   0.508323 0.919140 0.625095 -0.198345
N1    N     N_3   0.499750 0.138610 0.497240 -0.091470
N2    N     N_3   0.499750 0.861390 0.497240 -0.097688
H14   H     H_    0.593416 0.117325 0.672172 0.246086
H15   H     H_    0.592853 0.881357 0.671635 0.245020
H16   H     H_    0.434528 0.120920 0.682119 0.179569
H17   H     H_    0.432523 0.880725 0.681421 0.223613
H18   H     H_    0.691290 0.118272 0.471017 0.204678
H19   H     H_    0.691438 0.881205 0.472219 0.203801
O9    O     O_3   0.324067 0.351022 0.917782 -0.611471
C27   C     C_3   0.246542 0.324668 0.018122 0.179986
H20   H     H_    0.184156 0.411690 0.024133 0.242683
H21   H     H_    0.296121 0.309095 0.108650 0.193326
C28   C     C_3   0.170519 0.197070 0.997079 -0.681336
H22   H     H_    0.230280 0.107231 0.981299 0.241333
H23   H     H_    0.116048 0.176708 0.081005 0.285911
H24   H     H_    0.106316 0.213150 0.917614 0.296290
N3    N     N_R   0.524703 0.764878 0.922438 0.222771
O10   O     O_R   0.429500 0.842382 0.934329 -0.429096
O11   O     O_R   0.628815 0.821454 0.900393 -0.322099
N4    N     N_R   0.723514 0.349832 0.935143 0.277145
O12   O     O_R   0.829380 0.383916 0.981145 -0.303098
O13   O     O_R   0.706744 0.225302 0.895578 -0.304200
N5    N     N_R   0.124086 0.738186 0.609120 0.174500
O14   O     O_R   0.228657 0.754830 0.665420 -0.437936
O15   O     O_R   0.060845 0.847979 0.585295 -0.445228
N6    N     N_R   0.083112 0.271059 0.389564 0.157013
O16   O     O_R   0.995666 0.205103 0.332247 -0.405242
O17   O     O_R   0.190208 0.257035 0.343341 -0.405481
O18   O     O_3   0.095193 0.538047 0.727487 -0.559148
C29   C     C_3   0.065732 0.620407 0.833299 0.277833
H25   H     H_    0.007175 0.559278 0.895117 0.240010
H26   H     H_    0.017868 0.717612 0.811792 0.177921
C30   C     C_3   0.177860 0.664254 0.906377 -0.754229
H27   H     H_    0.257104 0.606975 0.872883 0.293477
H28   H     H_    0.195514 0.775417 0.893919 0.273573
H29   H     H_    0.163008 0.648466 0.006995 0.245143
O19   O     O_3   0.129731 0.281355 0.609030 -0.579014
C31   C     C_3   0.107679 0.137980 0.615458 0.223474
H30   H     H_    0.123431 0.084878 0.526199 0.194619
H31   H     H_    0.013246 0.113847 0.639648 0.212335
C32   C     C_3   0.190846 0.075050 0.714876 -0.725563
H32   H     H_    0.137424 0.017151 0.783890 0.251625
H33   H     H_    0.254241 0.003045 0.671752 0.231483
H34   H     H_    0.245810 0.154948 0.762466 0.294180
N7    N     N_R   0.849230 0.643733 0.697879 0.191569
O20   O     O_R   0.814983 0.769101 0.719660 -0.360968
O21   O     O_R   0.798723 0.545839 0.759862 -0.361416
N8    N     N_R   0.890595 0.312415 0.664012 0.259533
O22   O     O_R   0.805835 0.220626 0.673236 -0.376271
O23   O     O_R   0.956870 0.338284 0.762568 -0.263115
N9    N     N_R   0.076478 0.715620 0.354697 0.230480
O24   O     O_R   0.986668 0.801286 0.338311 -0.362460
O25   O     O_R   0.184074 0.759094 0.327745 -0.376180
N10   N     N_R   0.107356 0.503943 0.255942 0.232622
O26   O     O_R   0.038422 0.492048 0.156469 -0.407725
O27   O     O_R   0.224285 0.504738 0.242392 -0.461478

loop_
_geom_bond_atom_site_label_1
_geom_bond_atom_site_label_2
_geom_bond_distance
_ccdc_geom_bond_type
C5    H1    1.102613 S    
C22   N2    1.482282 S    
C31   H30   1.106328 S    
C9    N3    1.456248 S    
C14   C16   1.575515 S    
C17   C20   1.581065 S    
C13   N5    1.486439 S    
N3    O11   1.299620 A    
N8    O22   1.300064 A    
C22   H9    1.111680 S    
C25   H16   1.104205 S    
C16   C19   1.555515 S    
C13   O18   1.429063 S    
C19   C20   1.549632 S    
C21   H10   1.093259 S    
C25   H14   1.109336 S    
C21   C22   1.571839 S    
O7    C4    1.297663 A    
C7    C8    1.537795 S    
C15   N7    1.474816 S    
C17   C18   1.631093 S    
N4    O13   1.299673 A    
O5    C3    1.288179 A    
C28   H23   1.110941 S    
C6    C7    1.534510 S    
C26   N2    1.485159 S    
C17   N9    1.482382 S    
C11   C12   1.535133 S    
C10   N4    1.451382 S    
C7    O9    1.414803 S    
C25   N1    1.485992 S    
N3    O10   1.300098 A    
C27   H20   1.094075 S    
C6    C12   1.537390 S    
N7    O20   1.302236 A    
O3    Zn1   2.033077 S    
C14   N6    1.508579 S    
N8    O23   1.297588 A    
H12   C23   1.112747 S    
H13   C24   1.112549 S    
C27   H21   1.114650 S    
C4    C8    1.468137 S    
C3    C19   1.468499 S    
N5    O15   1.299056 A    
C29   H26   1.106126 S    
O19   C31   1.422278 S    
C24   N2    1.491459 S    
C14   C18   1.630899 S    
O9    C27   1.412370 S    
C26   H17   1.106917 S    
H7    C20   1.111771 S    
O1    C1    1.298559 A    
C14   O19   1.427516 S    
Zn1   O7    2.032799 S    
N6    O16   1.302908 A    
C28   H22   1.110441 S    
C24   H19   1.112269 S    
C32   H33   1.098932 S    
C1    C18   1.546198 S    
Zn2   O8    2.033231 S    
C2    C12   1.436375 S    
N9    O25   1.297656 A    
N10   O27   1.298943 A    
H6    C20   1.110798 S    
N7    O21   1.296728 A    
N6    O17   1.296240 A    
O3    C2    1.286723 A    
C25   C26   1.576123 S    
O8    C4    1.283979 A    
C30   H28   1.110856 S    
C9    C11   1.541899 S    
O4    Zn2   2.032644 S    
Zn2   N1    2.014551 S    
C32   H34   1.106426 S    
C5    C7    1.549780 S    
C23   C24   1.584655 S    
C5    C12   1.528654 S    
C27   C28   1.515988 S    
C6    C10   1.531652 S    
C28   H24   1.107198 S    
O1    Zn1   2.075649 S    
O2    Zn2   2.074273 S    
C8    C10   1.542376 S    
N5    O14   1.299563 A    
O6    C3    1.285788 A    
C29   C30   1.511345 S    
C22   H11   1.104090 S    
C21   N1    1.475199 S    
C30   H29   1.106564 S    
C23   N1    1.491827 S    
C13   C15   1.590279 S    
C17   N10   1.465717 S    
C16   N8    1.474243 S    
C15   H4    1.105940 S    
O2    C1    1.314698 A    
Zn1   N2    2.014501 S    
C16   H5    1.102840 S    
C21   H8    1.112252 S    
O18   C29   1.434238 S    
C32   H32   1.110603 S    
O4    C2    1.280221 A    
C6    H2    1.110997 S    
C26   H15   1.109373 S    
N9    O24   1.302767 A    
C11   H3    1.110448 S    
N4    O12   1.300256 A    
C29   H25   1.109577 S    
Zn1   O5    2.073510 S    
C13   C18   1.641740 S    
C5    C9    1.536095 S    
C8    C9    1.540061 S    
C15   C19   1.547034 S    
Zn2   O6    2.074886 S    
C30   H27   1.102265 S    
C31   C32   1.519971 S    
C23   H18   1.110390 S    
N10   O26   1.302235 A    
C31   H31   1.103018 S    
C10   C11   1.545579 S    
