data_mof_unit_48430.cif
_audit_creation_date              2012-12-10T20:44:46-0500
_audit_creation_method            fapswitch 2.2
_symmetry_space_group_name_H-M    P1
_symmetry_Int_Tables_number       1
_space_group_crystal_system       triclinic
_cell_length_a                    9.833398
_cell_length_b                    10.696768
_cell_length_c                    16.705817
_cell_angle_alpha                 89.308258
_cell_angle_beta                  94.596391
_cell_angle_gamma                 89.486877
_cell_volume                      1751.34522997

loop_
_atom_site_label
_atom_site_type_symbol
_atom_type_description
_atom_site_fract_x
_atom_site_fract_y
_atom_site_fract_z
_atom_type_partial_charge
C1    C     C_R   0.500170 0.259957 0.498983 0.938182
C2    C     C_R   0.647720 0.494735 0.792006 0.151065
C3    C     C_R   0.540467 0.346742 0.148580 0.439265
C4    C     C_R   0.562490 0.379660 0.229161 0.047474
C5    C     C_R   0.430103 0.400589 0.101241 0.149882
C6    C     C_R   0.469836 0.463190 0.262052 -0.148593
C7    C     C_R   0.354101 0.506819 0.215320 -0.287853
C8    C     C_R   0.334553 0.475759 0.135179 -0.237808
C9    C     C_R   0.612375 0.061355 0.524599 0.098021
C10   C     C_R   0.500790 0.128386 0.489949 -0.305798
C11   C     C_R   0.394686 0.067348 0.444043 0.339658
C12   C     C_R   0.517787 0.498915 0.654217 0.916179
C13   C     C_R   0.395560 0.937067 0.442205 0.377143
C14   C     C_R   0.500055 0.871368 0.488014 -0.311485
C15   C     C_R   0.611444 0.933899 0.523740 0.088655
C16   C     C_3   0.672222 0.921507 0.608236 -0.418906
C17   C     C_3   0.672446 0.062716 0.609885 -0.473618
C18   C     C_R   0.080116 0.434314 0.557277 0.216262
C19   C     C_R   0.064274 0.573459 0.447776 -0.130072
C20   C     C_R   0.920022 0.573401 0.447690 -0.086055
C21   C     C_R   0.937462 0.435055 0.557694 0.214066
C22   C     C_3   0.935256 0.297843 0.573481 -0.590579
C23   C     C_R   0.499173 0.739767 0.497142 0.923291
C24   C     C_3   0.089396 0.296710 0.570755 0.245179
C25   C     C_R   0.482422 0.493782 0.346721 0.873242
C26   C     C_R   0.524533 0.492312 0.742177 -0.167022
C27   C     C_R   0.399882 0.481821 0.777388 -0.339373
C28   C     C_R   0.395709 0.467407 0.859784 0.472066
C29   C     C_R   0.519498 0.465010 0.908744 0.189569
C30   C     C_R   0.643217 0.480712 0.874698 -0.281687
H1    H     H_    0.601389 0.878836 0.649261 0.196196
H2    H     H_    0.776261 0.879208 0.611684 0.219340
H3    H     H_    0.601779 0.102887 0.651825 0.197883
H4    H     H_    0.777201 0.099982 0.615757 0.206707
H5    H     H_    0.112642 0.630667 0.404718 0.173910
H6    H     H_    0.858986 0.630601 0.404435 0.156121
H7    H     H_    0.901578 0.277244 0.634124 0.233331
H8    H     H_    0.881714 0.245778 0.523306 0.207706
H9    H     H_    0.126310 0.247708 0.517876 0.146744
H10   H     H_    0.737100 0.482654 0.913310 0.189653
H11   H     H_    0.279497 0.566381 0.240658 0.183781
H12   H     H_    0.249121 0.515853 0.098292 0.193055
H13   H     H_    0.303557 0.486499 0.741178 0.219192
N1    N     N_2   0.523397 0.455492 0.993044 -0.118620
N2    N     N_2   0.426156 0.396566 0.017610 -0.130281
N3    N     N_R   0.142860 0.499130 0.500540 -0.145320
N4    N     N_R   0.857210 0.499170 0.500530 -0.099515
O1    O     O_R   0.614690 0.316790 0.499990 -0.603208
O2    O     O_R   0.385350 0.316760 0.500000 -0.593585
O3    O     O_R   0.627460 0.498860 0.616130 -0.584894
O4    O     O_R   0.398120 0.498820 0.616130 -0.608889
O5    O     O_R   0.614650 0.683240 0.500000 -0.618967
O6    O     O_R   0.385310 0.683210 0.500010 -0.582314
O7    O     O_R   0.601880 0.501180 0.383870 -0.591726
O8    O     O_R   0.372540 0.501140 0.383870 -0.636210
Zn1   Zn    Zn3+2 0.653130 0.500020 0.499990 0.981986
Zn2   Zn    Zn3+2 0.346870 0.499980 0.500010 0.978369
I1    I     I_    0.730964 0.290783 0.297303 -0.380141
O9    O     O_3   0.288369 0.876451 0.400929 -0.564575
C31   C     C_3   0.330733 0.833883 0.326926 0.111567
H14   H     H_    0.374707 0.738487 0.335088 0.145956
H15   H     H_    0.408890 0.894471 0.301424 0.094928
C32   C     C_3   0.207698 0.829529 0.265723 -0.828103
H16   H     H_    0.160411 0.923968 0.257655 0.263774
H17   H     H_    0.240073 0.797946 0.207027 0.206631
H18   H     H_    0.130839 0.763609 0.286264 0.245738
O10   O     O_3   0.159164 0.268419 0.646103 -0.596401
C33   C     C_3   0.202439 0.142244 0.647654 0.142511
H19   H     H_    0.277359 0.126212 0.602215 0.158196
H20   H     H_    0.113988 0.078757 0.636033 0.151064
C34   C     C_3   0.272369 0.110340 0.729889 -0.872402
H21   H     H_    0.198195 0.118452 0.776323 0.249475
H22   H     H_    0.312540 0.012948 0.730400 0.222982
H23   H     H_    0.358538 0.174984 0.744113 0.250943
O11   O     O_3   0.634022 0.270966 0.114342 -0.575391
C35   C     C_3   0.577458 0.150886 0.103478 0.101047
H24   H     H_    0.487138 0.153895 0.058789 0.136837
H25   H     H_    0.546882 0.111246 0.161368 0.129000
C36   C     C_3   0.683846 0.064036 0.072230 -0.769487
H26   H     H_    0.774805 0.057665 0.116079 0.263437
H27   H     H_    0.640615 0.969185 0.063384 0.202257
H28   H     H_    0.715201 0.100082 0.013915 0.254551
I2    I     I_    0.844905 0.525864 0.752385 -0.407532
O12   O     O_3   0.271311 0.470613 0.893370 -0.593392
C37   C     C_3   0.198609 0.360199 0.874061 0.105510
H29   H     H_    0.264777 0.275238 0.883887 0.129287
H30   H     H_    0.154752 0.363956 0.810610 0.201360
C38   C     C_3   0.081803 0.348366 0.928039 -0.769058
H31   H     H_    0.014302 0.432185 0.920981 0.274572
H32   H     H_    0.021038 0.264126 0.911661 0.210536
H33   H     H_    0.122706 0.339497 0.991805 0.246077
O13   O     O_3   0.281148 0.131855 0.410473 -0.581827
C39   C     C_3   0.307537 0.176326 0.333510 0.124247
H34   H     H_    0.327889 0.098103 0.292930 0.125782
H35   H     H_    0.396413 0.239813 0.336847 0.132281
C40   C     C_3   0.182871 0.248070 0.297209 -0.750853
H36   H     H_    0.163148 0.330726 0.334355 0.265706
H37   H     H_    0.200099 0.279878 0.235397 0.205630
H38   H     H_    0.092103 0.186748 0.294414 0.266485

loop_
_geom_bond_atom_site_label_1
_geom_bond_atom_site_label_2
_ccdc_geom_bond_type
C32   H17   S    
C39   H34   S    
C28   O12   S    
C18   C21   A    
C19   C20   A    
C35   C36   S    
C19   N3    A    
C7    C8    A    
C37   H29   S    
C16   H1    S    
C26   C27   A    
C31   C32   S    
C18   C24   S    
C28   C29   A    
C8    H12   S    
C6    C25   S    
C15   C16   S    
C22   H8    S    
C40   H38   S    
C24   H9    S    
O2    Zn2   S    
C31   H15   S    
C24   O10   S    
C11   O13   S    
C33   H19   S    
C40   H37   S    
O4    Zn2   S    
C3    O11   S    
C9    C10   A    
C32   H18   S    
O9    C31   S    
C39   H35   S    
C21   C22   S    
C2    I2    S    
C17   H3    S    
C18   N3    A    
C23   O6    A    
C35   H24   S    
C37   H30   S    
O7    Zn1   S    
O10   C33   S    
O12   C37   S    
C4    C6    A    
C36   H27   S    
O6    Zn2   S    
C16   C17   S    
C22   H7    S    
C5    N2    S    
O3    Zn1   S    
C36   H26   S    
C12   C26   S    
C31   H14   S    
C14   C23   S    
O11   C35   S    
C29   C30   A    
C34   H23   S    
C38   H33   S    
C40   H36   S    
C30   H10   S    
C2    C26   A    
C25   O7    A    
C9    C17   S    
C38   H32   S    
C39   C40   S    
O8    Zn2   S    
C29   N1    S    
C22   C24   S    
C5    C8    A    
C17   H4    S    
C3    C4    A    
C12   O4    A    
N1    N2    D    
C34   H22   S    
C37   C38   S    
O1    Zn1   S    
C1    C10   S    
C25   O8    A    
C35   H25   S    
C3    C5    A    
C36   H28   S    
C12   O3    A    
C1    O1    A    
C6    C7    A    
C13   O9    S    
C16   H2    S    
C2    C30   A    
C9    C15   A    
C34   H21   S    
N3    Zn2   S    
C19   H5    S    
C11   C13   A    
C23   O5    A    
C33   C34   S    
O13   C39   S    
C7    H11   S    
C20   N4    A    
C10   C11   A    
C32   H16   S    
C20   H6    S    
C27   H13   S    
C38   H31   S    
C33   H20   S    
C4    I1    S    
C27   C28   A    
C14   C15   A    
C13   C14   A    
C1    O2    A    
O5    Zn1   S    
N4    Zn1   S    
C21   N4    A    
