data_mof_unit_52101.cif
_audit_creation_date              2012-12-10T17:31:28-0500
_audit_creation_method            fapswitch 2.2
_symmetry_space_group_name_H-M    P1
_symmetry_Int_Tables_number       1
_space_group_crystal_system       triclinic
_cell_length_a                    19.124045
_cell_length_b                    18.352233
_cell_length_c                    12.341172
_cell_angle_alpha                 89.476759
_cell_angle_beta                  129.174478
_cell_angle_gamma                 90.134972
_cell_volume                      3357.61623659

loop_
_atom_site_label
_atom_site_type_symbol
_atom_type_description
_atom_site_fract_x
_atom_site_fract_y
_atom_site_fract_z
_atom_type_partial_charge
C1    C     C_R   0.612538 0.898259 0.653619 0.879575
C2    C     C_R   0.609867 0.103497 0.649858 0.853628
C3    C     C_R   0.112538 0.398259 0.653619 0.879575
C4    C     C_R   0.109867 0.603497 0.649858 0.853628
C5    C     C_R   0.245889 0.771891 0.044578 0.039137
C6    C     C_R   0.233896 0.207959 0.014697 0.030689
C7    C     C_R   0.745889 0.271891 0.044578 0.039137
C8    C     C_R   0.733896 0.707959 0.014697 0.030689
C9    C     C_R   0.675739 0.255176 0.050258 -0.033609
C10   C     C_R   0.648611 0.697415 0.981265 -0.034742
C11   C     C_R   0.175739 0.755176 0.050258 -0.033609
C12   C     C_R   0.148611 0.197415 0.981265 -0.034742
C13   C     C_R   0.597544 0.222637 0.934781 -0.231279
C14   C     C_R   0.571940 0.728486 0.858249 -0.225408
C15   C     C_R   0.097544 0.722637 0.934781 -0.231279
C16   C     C_R   0.071940 0.228486 0.858249 -0.225408
C17   C     C_R   0.591456 0.203259 0.820711 0.598063
C18   C     C_R   0.579755 0.774076 0.775763 0.595186
C19   C     C_R   0.091456 0.703259 0.820711 0.598063
C20   C     C_R   0.079755 0.274076 0.775763 0.595186
C21   C     C_R   0.307425 0.825084 0.134422 -0.151410
C22   C     C_R   0.311211 0.184763 0.145974 -0.145139
C23   C     C_R   0.807425 0.325084 0.134422 -0.151410
C24   C     C_R   0.811211 0.684763 0.145974 -0.145139
C25   C     C_R   0.253703 0.822423 0.266487 -0.190578
C26   C     C_R   0.220613 0.127135 0.195770 -0.209762
C27   C     C_R   0.753703 0.322423 0.266487 -0.190579
C28   C     C_R   0.720613 0.627135 0.195770 -0.209762
C29   C     C_R   0.671886 0.164005 0.733237 -0.079295
C30   C     C_R   0.677798 0.839627 0.740048 -0.079564
C31   C     C_R   0.171886 0.664005 0.733237 -0.079295
C32   C     C_R   0.177798 0.339627 0.740048 -0.079564
C33   C     C_R   0.683809 0.002736 0.286377 -0.249411
C34   C     C_R   0.183809 0.502736 0.286377 -0.249411
C35   C     C_R   0.344060 0.998906 0.627358 0.122037
C36   C     C_R   0.844060 0.498906 0.627358 0.122037
C37   C     C_R   0.310023 0.997380 0.699228 -0.226793
C38   C     C_R   0.810023 0.497380 0.699228 -0.226793
C39   C     C_R   0.383355 0.097972 0.340698 0.837560
C40   C     C_R   0.384124 0.901368 0.342332 0.864137
C41   C     C_R   0.883355 0.597972 0.340698 0.837560
C42   C     C_R   0.884124 0.401368 0.342332 0.864137
C43   C     C_R   0.368642 0.997144 0.844968 -0.121825
C44   C     C_R   0.868642 0.497144 0.844968 -0.121825
C45   C     C_R   0.462776 0.998821 0.921390 0.015185
C46   C     C_R   0.962776 0.498821 0.921390 0.015185
C47   C     C_R   0.494589 0.999865 0.842878 0.302605
C48   C     C_R   0.994589 0.499865 0.842878 0.302605
C49   C     C_R   0.526412 0.999471 0.072110 0.005748
C50   C     C_R   0.026412 0.499472 0.072110 0.005748
C51   C     C_R   0.619906 0.001408 0.140125 0.168223
C52   C     C_R   0.119906 0.501408 0.140125 0.168223
C53   C     C_R   0.649424 0.001714 0.062129 -0.261684
C54   C     C_R   0.149424 0.501714 0.062129 -0.261684
C55   C     C_R   0.588386 0.000468 0.917344 -0.175480
C56   C     C_R   0.088386 0.500468 0.917344 -0.175480
C57   C     C_R   0.502012 0.998579 0.159623 0.140898
C58   C     C_R   0.002012 0.498579 0.159623 0.140898
C59   C     C_R   0.655420 0.002055 0.365847 0.105139
C60   C     C_R   0.155420 0.502055 0.365847 0.105139
C61   C     C_R   0.682272 0.277997 0.165427 0.403039
C62   C     C_R   0.642518 0.655523 0.071771 0.431971
C63   C     C_R   0.182272 0.777997 0.165427 0.403039
C64   C     C_R   0.142518 0.155523 0.071771 0.431971
C65   C     C_R   0.314599 0.848167 0.248194 -0.120682
C66   C     C_R   0.304863 0.141203 0.232112 -0.130678
C67   C     C_R   0.814599 0.348168 0.248194 -0.120682
C68   C     C_R   0.804863 0.641203 0.232112 -0.130678
C69   C     C_R   0.743142 0.175917 0.730630 -0.241978
C70   C     C_R   0.757960 0.839003 0.758141 -0.261366
C71   C     C_R   0.243142 0.675917 0.730630 -0.241978
C72   C     C_R   0.257960 0.339003 0.758141 -0.261366
C73   C     C_R   0.318253 0.714586 0.836083 -0.110311
C74   C     C_R   0.324350 0.287452 0.844168 -0.104328
C75   C     C_R   0.818253 0.214586 0.836082 -0.110311
C76   C     C_R   0.824350 0.787452 0.844168 -0.104328
C77   C     C_R   0.324911 0.740929 0.947656 0.393928
C78   C     C_R   0.315994 0.239657 0.923555 0.410185
C79   C     C_R   0.824911 0.240929 0.947656 0.393929
C80   C     C_R   0.815994 0.739657 0.923555 0.410185
C81   C     C_R   0.747710 0.239775 0.941894 -0.064798
C82   C     C_R   0.739913 0.744861 0.919337 -0.059343
C83   C     C_R   0.247710 0.739775 0.941894 -0.064798
C84   C     C_R   0.239913 0.244861 0.919337 -0.059343
C85   C     C_R   0.669291 0.202352 0.830148 -0.089074
C86   C     C_R   0.665042 0.787470 0.811556 -0.084575
C87   C     C_R   0.169291 0.702352 0.830148 -0.089074
C88   C     C_R   0.165042 0.287470 0.811556 -0.084575
Cu1   Cu    Cu3+1 0.526340 1.000000 0.421010 0.994658
Cu2   Cu    Cu3+1 0.026340 0.500000 0.421010 0.994658
Cu3   Cu    Cu3+1 0.473640 0.000000 0.578990 1.013666
Cu4   Cu    Cu3+1 0.973640 0.500000 0.578990 1.013666
H1    H     H_    0.258575 0.839856 0.354676 0.191894
H2    H     H_    0.215106 0.091364 0.260409 0.177887
H3    H     H_    0.758575 0.339856 0.354676 0.191894
H4    H     H_    0.715106 0.591364 0.260409 0.177887
H5    H     H_    0.720946 0.002672 0.113742 0.165550
H6    H     H_    0.220946 0.502672 0.113742 0.165550
H7    H     H_    0.755421 0.004311 0.338979 0.149460
H8    H     H_    0.255421 0.504310 0.338979 0.149460
H9    H     H_    0.432497 0.997146 0.116813 0.123013
H10   H     H_    0.932497 0.497146 0.116813 0.123013
H11   H     H_    0.297931 0.998846 0.514301 0.122791
H12   H     H_    0.797931 0.498846 0.514301 0.122791
H13   H     H_    0.338545 0.995862 0.895026 0.151372
H14   H     H_    0.838545 0.495863 0.895026 0.151372
H15   H     H_    0.237842 0.996286 0.641681 0.162957
H16   H     H_    0.737842 0.496286 0.641681 0.162957
H17   H     H_    0.618303 0.999796 0.868250 0.192744
H18   H     H_    0.118303 0.499796 0.868250 0.192744
H19   H     H_    0.538138 0.217227 0.927021 0.227714
H20   H     H_    0.505372 0.719387 0.826307 0.205579
H21   H     H_    0.038138 0.717226 0.927021 0.227714
H22   H     H_    0.005372 0.219387 0.826307 0.205579
H23   H     H_    0.346250 0.852603 0.110853 0.195163
H24   H     H_    0.377707 0.199935 0.183488 0.213291
H25   H     H_    0.846250 0.352603 0.110853 0.195163
H26   H     H_    0.877707 0.699935 0.183488 0.213291
H27   H     H_    0.744793 0.149872 0.653842 0.188932
H28   H     H_    0.768696 0.877714 0.703139 0.175066
H29   H     H_    0.244793 0.649872 0.653842 0.188932
H30   H     H_    0.268696 0.377714 0.703139 0.175066
H31   H     H_    0.375209 0.718151 0.837251 0.203362
H32   H     H_    0.382515 0.284315 0.848192 0.190788
H33   H     H_    0.875208 0.218151 0.837251 0.203362
H34   H     H_    0.882515 0.784315 0.848192 0.190788
H35   H     H_    0.704523 0.003217 0.478716 0.120754
H36   H     H_    0.204523 0.503217 0.478716 0.120754
N1    N     N_R   0.566260 1.000000 0.302220 -0.187123
N2    N     N_R   0.066260 0.500000 0.302220 -0.187123
N3    N     N_R   0.434410 0.000000 0.697680 -0.192773
N4    N     N_R   0.934410 0.500000 0.697680 -0.192773
O1    O     O_R   0.608610 0.924520 0.551740 -0.588247
O2    O     O_R   0.608610 0.075480 0.551740 -0.595940
O3    O     O_R   0.108610 0.424520 0.551740 -0.588247
O4    O     O_R   0.108610 0.575480 0.551740 -0.595940
O5    O     O_R   0.564110 0.924510 0.685150 -0.566464
O6    O     O_R   0.564110 0.075490 0.685150 -0.559033
O7    O     O_R   0.064110 0.424510 0.685150 -0.566464
O8    O     O_R   0.064110 0.575490 0.685150 -0.559033
O9    O     O_R   0.435880 0.075470 0.314850 -0.567672
O10   O     O_R   0.435880 0.924530 0.314850 -0.590282
O11   O     O_R   0.935880 0.575470 0.314850 -0.567672
O12   O     O_R   0.935880 0.424530 0.314850 -0.590282
O13   O     O_R   0.391380 0.075460 0.448260 -0.558512
O14   O     O_R   0.391380 0.924540 0.448260 -0.567689
O15   O     O_R   0.891380 0.575460 0.448260 -0.558512
O16   O     O_R   0.891380 0.424540 0.448260 -0.567689
Cl1   Cl    Cl    0.602771 0.252868 0.187105 -0.588975
Cl2   Cl    Cl    0.538740 0.632356 0.030300 -0.603148
Cl3   Cl    Cl    0.102771 0.752868 0.187105 -0.588974
Cl4   Cl    Cl    0.038740 0.132355 0.030300 -0.603148
Cl5   Cl    Cl    0.436393 0.760576 0.098144 -0.577237
Cl6   Cl    Cl    0.392125 0.165461 0.999233 -0.633224
Cl7   Cl    Cl    0.936393 0.260576 0.098144 -0.577237
Cl8   Cl    Cl    0.892125 0.665461 0.999233 -0.633224
F1    F     F_    0.507759 0.190455 0.698693 -0.646579
F2    F     F_    0.502121 0.798885 0.654040 -0.657563
F3    F     F_    0.007759 0.690455 0.698693 -0.646579
F4    F     F_    0.002121 0.298885 0.654040 -0.657563

loop_
_geom_bond_atom_site_label_1
_geom_bond_atom_site_label_2
_ccdc_geom_bond_type
C26   H2    S    
C74   H32   S    
C25   H1    S    
C40   O10   A    
Cu4   O16   S    
C76   H34   S    
C14   C18   A    
C83   C87   A    
C25   C63   A    
C21   H23   S    
C42   O16   A    
Cu1   N1    S    
C32   C72   A    
C1    C30   S    
C15   C19   A    
C18   C86   A    
C20   F4    S    
C64   Cl4   S    
C2    C29   S    
C9    C61   A    
C57   N1    A    
C28   C68   A    
C37   H15   S    
C35   H11   S    
C36   N4    A    
C6    C12   A    
C12   C64   A    
Cu1   O9    S    
Cu3   N3    S    
C77   C83   A    
C59   H35   S    
Cu1   O10   S    
C6    C22   A    
C49   C57   A    
C48   C56   A    
C43   H13   S    
C23   C67   A    
C29   C69   A    
C9    C13   A    
C22   C66   A    
C26   C64   A    
C27   C61   A    
C6    C84   A    
C77   Cl5   S    
Cu3   O5    S    
C27   H3    S    
C39   O9    A    
C44   C46   A    
C22   H24   S    
C49   C51   A    
C34   H8    S    
C15   H21   S    
C58   H10   S    
C30   C86   A    
C17   F1    S    
C29   C85   A    
Cu2   O11   S    
C4    O4    A    
C21   C65   A    
C45   C47   A    
C33   C59   A    
C41   O11   A    
C55   H17   S    
Cu4   O15   S    
C34   C60   A    
C10   C62   A    
C11   C15   A    
C1    O1    A    
C56   H18   S    
C30   C70   A    
C52   C54   A    
C80   Cl8   S    
C41   C68   S    
C46   C48   A    
C53   C55   A    
Cu2   Cu4   S    
C54   C56   A    
Cu1   O1    S    
C2    O6    A    
C12   C16   A    
C60   H36   S    
C31   C87   A    
C72   C74   A    
C10   C14   A    
C70   H28   S    
C79   C81   A    
C78   Cl6   S    
C53   H5    S    
C82   C86   A    
C69   H27   S    
C47   N3    A    
C75   H33   S    
C26   C66   A    
C37   C43   A    
C14   H20   S    
C38   C44   A    
C18   F2    S    
C4    O8    A    
Cu3   O6    S    
Cu2   O4    S    
C50   C52   A    
C41   O15   A    
C45   C49   A    
C16   C20   A    
C39   O13   A    
C50   C58   A    
C25   C65   A    
C2    O2    A    
C43   C45   A    
C63   Cl3   S    
C80   C82   A    
C7    C81   A    
C40   C65   S    
C70   C76   A    
C42   C67   S    
C39   C66   S    
C17   C85   A    
C3    O7    A    
C60   N2    A    
Cu4   O8    S    
C35   N3    A    
Cu3   O13   S    
C1    O5    A    
C35   C37   A    
C47   C55   A    
C7    C9    A    
C59   N1    A    
Cu1   O2    S    
C62   Cl2   S    
C72   H30   S    
C34   C52   A    
C71   H29   S    
C48   N4    A    
C76   C80   A    
C16   H22   S    
C23   H25   S    
C5    C83   A    
C5    C11   A    
C44   H14   S    
C33   C51   A    
C57   H9    S    
Cu4   N4    S    
C46   C50   A    
C11   C63   A    
C40   O14   A    
C28   H4    S    
C33   H7    S    
C19   F3    S    
C36   C38   A    
C19   C87   A    
C13   H19   S    
C73   H31   S    
C42   O12   A    
Cu2   O3    S    
C36   H12   S    
C84   C88   A    
C75   C79   A    
C58   N2    A    
C7    C23   A    
C20   C88   A    
C31   C71   A    
C24   H26   S    
C8    C24   A    
C69   C75   A    
C3    O3    A    
C38   H16   S    
C3    C32   S    
C81   C85   A    
C4    C31   S    
C27   C67   A    
C24   C68   A    
C79   Cl7   S    
C13   C17   A    
Cu2   N2    S    
C78   C84   A    
C8    C82   A    
C5    C21   A    
C8    C10   A    
Cu1   Cu3   S    
C74   C78   A    
C71   C73   A    
C73   C77   A    
C54   H6    S    
C51   C53   A    
Cu4   O7    S    
C61   Cl1   S    
Cu3   O14   S    
Cu2   O12   S    
C28   C62   A    
C32   C88   A    
