data_mof_unit_30210.cif
_audit_creation_date              2012-12-10T19:09:31-0500
_audit_creation_method            fapswitch 2.2
_symmetry_space_group_name_H-M    P1
_symmetry_Int_Tables_number       1
_space_group_crystal_system       triclinic
_cell_length_a                    15.233453
_cell_length_b                    14.870818
_cell_length_c                    9.688155
_cell_angle_alpha                 90.328355
_cell_angle_beta                  90.445989
_cell_angle_gamma                 90.019377
_cell_volume                      2194.59291646

loop_
_atom_site_label
_atom_site_type_symbol
_atom_type_description
_atom_site_fract_x
_atom_site_fract_y
_atom_site_fract_z
_atom_type_partial_charge
C1    C     C_R   0.120230 0.377541 0.500239 0.837193
C2    C     C_R   0.881814 0.624114 0.499812 0.845040
C3    C     C_R   0.381195 0.876501 0.499254 0.847392
C4    C     C_R   0.381814 0.124114 0.499812 0.845040
C5    C     C_3   0.829568 0.240626 0.614196 -0.405896
C6    C     C_3   0.808922 0.259866 0.356603 -0.425316
C7    C     C_3   0.811262 0.741459 0.360184 -0.420378
C8    C     C_3   0.827975 0.759315 0.618907 -0.424233
C9    C     C_3   0.329567 0.740626 0.614196 -0.405896
C10   C     C_3   0.308922 0.759866 0.356603 -0.425316
C11   C     C_3   0.311262 0.241459 0.360184 -0.420379
C12   C     C_R   0.120928 0.621735 0.500450 0.822603
C13   C     C_3   0.327975 0.259315 0.618907 -0.424233
C14   C     C_3   0.259843 0.667075 0.609245 -0.391399
C15   C     C_3   0.237797 0.687848 0.359229 -0.456466
C16   C     C_3   0.239527 0.312336 0.362445 -0.397037
C17   C     C_3   0.258007 0.333067 0.613577 -0.463190
C18   C     C_3   0.759843 0.167074 0.609245 -0.391399
C19   C     C_3   0.737797 0.187848 0.359229 -0.456466
C20   C     C_3   0.739526 0.812336 0.362445 -0.397037
C21   C     C_3   0.758007 0.833067 0.613577 -0.463190
C22   C     C_3   0.723904 0.358542 0.520627 -0.379208
C23   C     C_R   0.620230 0.877541 0.500239 0.837193
C24   C     C_3   0.724299 0.641498 0.518493 -0.390322
C25   C     C_3   0.223904 0.858542 0.520627 -0.379208
C26   C     C_3   0.224300 0.141497 0.518494 -0.390322
C27   C     C_3   0.812259 0.309690 0.497897 0.125120
C28   C     C_3   0.812719 0.690831 0.499316 0.135351
C29   C     C_3   0.312259 0.809690 0.497897 0.125121
C30   C     C_3   0.312719 0.190831 0.499316 0.135351
C31   C     C_3   0.188158 0.691525 0.500525 0.128166
C32   C     C_3   0.187834 0.308163 0.501382 0.134794
C33   C     C_3   0.688158 0.191525 0.500525 0.128166
C34   C     C_R   0.620927 0.121735 0.500450 0.822603
C35   C     C_3   0.687834 0.808163 0.501382 0.134794
C36   C     C_3   0.146649 0.789705 0.525361 0.348808
C37   C     C_3   0.147383 0.210189 0.531379 0.350296
C38   C     C_3   0.646649 0.289705 0.525361 0.348808
C39   C     C_3   0.647383 0.710189 0.531379 0.350296
C40   C     C_3   0.030821 0.413363 0.080742 -0.233748
C41   C     C_3   0.032077 0.413809 0.918328 -0.231936
C42   C     C_3   0.054412 0.572894 0.920082 -0.240916
C43   C     C_3   0.055740 0.571998 0.082476 -0.232032
C44   C     C_3   0.530820 0.913363 0.080742 -0.233747
C45   C     C_3   0.909216 0.514501 0.080440 -0.231651
C46   C     C_3   0.532077 0.913809 0.918328 -0.231935
C47   C     C_3   0.554412 0.072894 0.920082 -0.240917
C48   C     C_3   0.555741 0.071998 0.082476 -0.232032
C49   C     C_3   0.093449 0.799933 0.664440 -0.346238
C50   C     C_3   0.141542 0.796531 0.804529 -0.948331
C51   C     C_3   0.080574 0.811656 0.403145 -0.454571
C52   C     C_3   0.031313 0.901821 0.412271 -0.967717
C53   C     C_3   0.068308 0.183913 0.433162 -0.364595
C54   C     C_3   0.082323 0.179995 0.276909 -0.956770
C55   C     C_3   0.111037 0.205183 0.684076 -0.446078
C56   C     C_3   0.908984 0.513130 0.917659 -0.230637
C57   C     C_3   0.066321 0.116555 0.726376 -0.961462
C58   C     C_3   0.593449 0.299933 0.664440 -0.346238
C59   C     C_3   0.641542 0.296531 0.804529 -0.948330
C60   C     C_3   0.580574 0.311656 0.403145 -0.454570
C61   C     C_3   0.531313 0.401821 0.412271 -0.967717
C62   C     C_3   0.568308 0.683913 0.433162 -0.364595
C63   C     C_3   0.582323 0.679995 0.276909 -0.956771
C64   C     C_3   0.611037 0.705183 0.684076 -0.446079
C65   C     C_3   0.566321 0.616555 0.726376 -0.961463
C66   C     C_3   0.409216 0.014501 0.080440 -0.231651
C67   C     C_3   0.408984 0.013130 0.917659 -0.230637
C68   C     C_R   0.881195 0.376501 0.499254 0.847392
H1    H     H_    0.829622 0.273553 0.717378 0.183092
H2    H     H_    0.873360 0.228100 0.333880 0.180878
H3    H     H_    0.499595 0.610890 0.680982 0.250557
H4    H     H_    0.604552 0.556278 0.696383 0.262713
H5    H     H_    0.558695 0.615761 0.840298 0.257832
H6    H     H_    0.664963 0.715609 0.759889 0.210458
H7    H     H_    0.562102 0.758967 0.701555 0.215275
H8    H     H_    0.875729 0.774221 0.341808 0.178372
H9    H     H_    0.893953 0.790332 0.610647 0.160664
H10   H     H_    0.395202 0.709782 0.601078 0.153432
H11   H     H_    0.373360 0.728100 0.333880 0.180879
H12   H     H_    0.375729 0.274221 0.341808 0.178372
H13   H     H_    0.393953 0.290332 0.610647 0.160664
H14   H     H_    0.291714 0.602287 0.580146 0.147596
H15   H     H_    0.268934 0.620668 0.344708 0.175408
H16   H     H_    0.270499 0.379830 0.351465 0.159464
H17   H     H_    0.794041 0.307714 0.271536 0.178964
H18   H     H_    0.289804 0.398398 0.588408 0.168520
H19   H     H_    0.791714 0.102287 0.580145 0.147596
H20   H     H_    0.768934 0.120668 0.344708 0.175408
H21   H     H_    0.770499 0.879830 0.351465 0.159464
H22   H     H_    0.789804 0.898398 0.588408 0.168520
H23   H     H_    0.234122 0.654245 0.713058 0.183280
H24   H     H_    0.193739 0.695675 0.268348 0.170510
H25   H     H_    0.198213 0.305477 0.269241 0.186115
H26   H     H_    0.229531 0.343338 0.717624 0.170134
H27   H     H_    0.734122 0.154245 0.713058 0.183280
H28   H     H_    0.798753 0.694308 0.272618 0.172806
H29   H     H_    0.693739 0.195675 0.268348 0.170510
H30   H     H_    0.698213 0.805477 0.269241 0.186115
H31   H     H_    0.729531 0.843338 0.717624 0.170134
H32   H     H_    0.726982 0.401866 0.614133 0.153492
H33   H     H_    0.715280 0.407134 0.434606 0.147326
H34   H     H_    0.713435 0.593243 0.432058 0.150214
H35   H     H_    0.730414 0.598685 0.611698 0.157326
H36   H     H_    0.226982 0.901866 0.614133 0.153492
H37   H     H_    0.215280 0.907134 0.434606 0.147326
H38   H     H_    0.213435 0.093243 0.432058 0.150214
H39   H     H_    0.824976 0.725032 0.720592 0.176059
H40   H     H_    0.230414 0.098685 0.611698 0.157326
H41   H     H_    0.988255 0.357625 0.116870 0.140099
H42   H     H_    0.991752 0.357056 0.877619 0.139501
H43   H     H_    0.029196 0.638827 0.883678 0.152208
H44   H     H_    0.034111 0.638559 0.122763 0.140521
H45   H     H_    0.488254 0.857625 0.116870 0.140099
H46   H     H_    0.491752 0.857056 0.877619 0.139501
H47   H     H_    0.529196 0.138827 0.883678 0.152208
H48   H     H_    0.534111 0.138559 0.122763 0.140521
H49   H     H_    0.098171 0.399514 0.119948 0.140759
H50   H     H_    0.329622 0.773553 0.717378 0.183092
H51   H     H_    0.100294 0.401833 0.882603 0.140971
H52   H     H_    0.122597 0.565910 0.881275 0.142044
H53   H     H_    0.124366 0.562303 0.119578 0.143278
H54   H     H_    0.598171 0.899514 0.119948 0.140759
H55   H     H_    0.600294 0.901833 0.882603 0.140971
H56   H     H_    0.622597 0.065910 0.881275 0.142044
H57   H     H_    0.624366 0.062303 0.119578 0.143278
H58   H     H_    0.863805 0.461978 0.119294 0.142375
H59   H     H_    0.864794 0.458734 0.879308 0.142676
H60   H     H_    0.880862 0.577275 0.878918 0.144122
H61   H     H_    0.294041 0.807714 0.271536 0.178964
H62   H     H_    0.882950 0.580054 0.117220 0.141078
H63   H     H_    0.363805 0.961978 0.119294 0.142375
H64   H     H_    0.364794 0.958735 0.879308 0.142676
H65   H     H_    0.380862 0.077275 0.878918 0.144122
H66   H     H_    0.382951 0.080054 0.117220 0.141078
H67   H     H_    0.150525 0.727253 0.841127 0.246725
H68   H     H_    0.204889 0.832532 0.805900 0.256779
H69   H     H_    0.099790 0.829512 0.883576 0.238358
H70   H     H_    0.061789 0.867006 0.665549 0.217448
H71   H     H_    0.039079 0.750402 0.666120 0.195510
H72   H     H_    0.298753 0.194308 0.272618 0.172806
H73   H     H_    0.974936 0.897266 0.483546 0.250971
H74   H     H_    0.075095 0.957275 0.446375 0.267367
H75   H     H_    0.004160 0.919130 0.309057 0.257385
H76   H     H_    0.116022 0.813763 0.303806 0.212461
H77   H     H_    0.030424 0.757831 0.393645 0.198927
H78   H     H_    0.071141 0.246857 0.230941 0.255418
H79   H     H_    0.147618 0.153571 0.248496 0.262246
H80   H     H_    0.032326 0.134761 0.229433 0.245175
H81   H     H_    0.045103 0.115754 0.460624 0.222647
H82   H     H_    0.012888 0.230429 0.452682 0.179384
H83   H     H_    0.324976 0.225032 0.720592 0.176058
H84   H     H_    0.999595 0.110890 0.680983 0.250556
H85   H     H_    0.104552 0.056278 0.696383 0.262713
H86   H     H_    0.058695 0.115761 0.840298 0.257832
H87   H     H_    0.164963 0.215609 0.759889 0.210457
H88   H     H_    0.062102 0.258968 0.701555 0.215275
H89   H     H_    0.650525 0.227253 0.841127 0.246725
H90   H     H_    0.704889 0.332533 0.805900 0.256779
H91   H     H_    0.599790 0.329512 0.883576 0.238358
H92   H     H_    0.561789 0.367006 0.665550 0.217448
H93   H     H_    0.539079 0.250402 0.666120 0.195510
H94   H     H_    0.895202 0.209782 0.601078 0.153432
H95   H     H_    0.474936 0.397266 0.483546 0.250971
H96   H     H_    0.575095 0.457275 0.446376 0.267367
H97   H     H_    0.504160 0.419130 0.309057 0.257385
H98   H     H_    0.616022 0.313763 0.303806 0.212461
H99   H     H_    0.530424 0.257831 0.393646 0.198927
H100  H     H_    0.571141 0.746857 0.230941 0.255418
H101  H     H_    0.647618 0.653571 0.248496 0.262246
H102  H     H_    0.532326 0.634761 0.229433 0.245175
H103  H     H_    0.545103 0.615754 0.460623 0.222647
H104  H     H_    0.512888 0.730429 0.452682 0.179384
N1    N     N_3   0.998760 0.500000 0.138610 -0.027797
N2    N     N_3   0.998760 0.500000 0.861390 -0.028759
N3    N     N_3   0.498760 0.000000 0.138610 -0.027797
N4    N     N_3   0.498760 0.000000 0.861390 -0.028759
O1    O     O_R   0.092530 0.407440 0.616040 -0.645570
O2    O     O_R   0.907330 0.407420 0.383960 -0.627980
O3    O     O_R   0.907330 0.592580 0.383960 -0.633759
O4    O     O_R   0.907330 0.592580 0.616040 -0.634407
O5    O     O_R   0.407330 0.907420 0.616040 -0.634722
O6    O     O_R   0.407330 0.907420 0.383960 -0.627980
O7    O     O_R   0.407330 0.092580 0.383960 -0.633759
O8    O     O_R   0.407330 0.092580 0.616040 -0.634407
O9    O     O_R   0.092530 0.407440 0.383960 -0.625682
O10   O     O_R   0.092530 0.592560 0.383960 -0.638720
O11   O     O_R   0.092530 0.592560 0.616040 -0.625992
O12   O     O_R   0.592530 0.907440 0.616040 -0.645570
O13   O     O_R   0.592530 0.907440 0.383960 -0.625682
O14   O     O_R   0.592530 0.092560 0.383960 -0.638720
O15   O     O_R   0.592530 0.092560 0.616040 -0.625992
O16   O     O_R   0.907330 0.407420 0.616040 -0.634722
Zn1   Zn    Zn3+2 0.999890 0.500000 0.654960 0.889374
Zn2   Zn    Zn3+2 0.999890 0.500000 0.345040 0.892454
Zn3   Zn    Zn3+2 0.499890 0.000000 0.654960 0.889374
Zn4   Zn    Zn3+2 0.499890 0.000000 0.345040 0.892454

loop_
_geom_bond_atom_site_label_1
_geom_bond_atom_site_label_2
_ccdc_geom_bond_type
C41   N2    S    
C18   H27   S    
C61   H96   S    
C62   H103  S    
C67   H64   S    
C10   C29   S    
C44   N3    S    
C14   C31   S    
C9    C14   S    
C26   H38   S    
C2    O3    A    
C19   H29   S    
C50   H69   S    
C25   H37   S    
C55   H87   S    
C53   C54   S    
C47   H47   S    
C7    H28   S    
O2    Zn2   S    
C16   H25   S    
C22   H33   S    
O1    Zn1   S    
C34   O15   A    
C67   H65   S    
C50   H67   S    
C40   N1    S    
C21   H31   S    
C59   H90   S    
C63   H101  S    
C51   H77   S    
C22   C38   S    
C57   H84   S    
C13   H13   S    
C16   H16   S    
C24   C39   S    
C65   H5    S    
C56   H59   S    
C44   H54   S    
C3    C29   S    
C5    H1    S    
C27   C68   S    
C45   H58   S    
C15   H24   S    
C38   C58   S    
C20   C35   S    
C1    O1    A    
C5    H94   S    
C47   C48   S    
C11   C30   S    
C11   H72   S    
C8    H9    S    
O9    Zn2   S    
C24   H34   S    
C47   N4    S    
C9    C29   S    
C48   H48   S    
C48   N3    S    
C37   C53   S    
C51   H76   S    
C66   C67   S    
C48   H57   S    
C45   H62   S    
C4    O7    A    
C5    C27   S    
C49   H70   S    
O11   Zn1   S    
C53   H81   S    
C9    H50   S    
C2    O4    A    
O5    Zn3   S    
C18   C33   S    
C44   C46   S    
C8    C21   S    
C21   H22   S    
C25   C29   S    
C55   H88   S    
C52   H75   S    
C39   C64   S    
C46   H46   S    
C51   C52   S    
C60   H99   S    
C66   H66   S    
C13   C30   S    
C34   O14   A    
C22   H32   S    
C45   C56   S    
C19   H20   S    
C19   C33   S    
C26   H40   S    
C59   H89   S    
C63   H102  S    
C15   H15   S    
C5    C18   S    
C58   C59   S    
C65   H3    S    
C12   O11   A    
C57   H85   S    
C7    C20   S    
O12   Zn3   S    
C1    C32   S    
C52   H74   S    
C7    C28   S    
C17   H18   S    
C56   N2    S    
C60   C61   S    
C35   C39   S    
C42   H43   S    
C62   C63   S    
C6    C19   S    
C45   N1    S    
C11   C16   S    
C6    C27   S    
C67   N4    S    
C12   O10   A    
O7    Zn4   S    
C26   C37   S    
C32   C37   S    
C41   H51   S    
C3    O5    A    
C13   H83   S    
C40   H41   S    
C36   C51   S    
C38   C60   S    
C63   H100  S    
C44   H45   S    
C26   C30   S    
C23   C35   S    
C22   C27   S    
C49   H71   S    
C12   C31   S    
C42   N2    S    
C53   H82   S    
C8    C28   S    
C46   N4    S    
C66   N3    S    
O6    Zn4   S    
C43   H44   S    
C14   H14   S    
C18   H19   S    
O8    Zn3   S    
C8    H39   S    
N3    Zn4   S    
C23   O13   A    
C54   H80   S    
C66   H63   S    
C20   H21   S    
C59   H91   S    
C6    H2    S    
C39   C62   S    
C43   H53   S    
C40   C41   S    
C64   H6    S    
C10   C15   S    
C61   H95   S    
O10   Zn2   S    
C24   C28   S    
C2    C28   S    
C10   H11   S    
C25   H36   S    
C15   C31   S    
C7    H8    S    
C21   C35   S    
C1    O9    A    
C16   C32   S    
C65   H4    S    
C62   H104  S    
C57   H86   S    
C52   H73   S    
C54   H78   S    
C41   H42   S    
C24   H35   S    
O16   Zn1   S    
C55   C57   S    
C10   H61   S    
C58   H92   S    
C64   C65   S    
O14   Zn4   S    
C43   N1    S    
O13   Zn4   S    
C42   H52   S    
C47   H56   S    
C23   O12   A    
C68   O2    A    
C64   H7    S    
C33   C34   S    
C40   H49   S    
C61   H97   S    
C9    H10   S    
C56   H60   S    
N4    Zn3   S    
C46   H55   S    
C3    O6    A    
O15   Zn3   S    
C14   H23   S    
C4    O8    A    
C11   H12   S    
O4    Zn1   S    
C25   C36   S    
C13   C17   S    
C37   C55   S    
C20   H30   S    
N2    Zn1   S    
C60   H98   S    
C49   C50   S    
C42   C43   S    
C6    H17   S    
N1    Zn2   S    
C17   C32   S    
C68   O16   A    
C31   C36   S    
C33   C38   S    
C50   H68   S    
C17   H26   S    
C58   H93   S    
C4    C30   S    
C36   C49   S    
C54   H79   S    
O3    Zn2   S    
