data_mof_unit_56647.cif
_audit_creation_date              2012-12-10T19:34:36-0500
_audit_creation_method            fapswitch 2.2
_symmetry_space_group_name_H-M    P1
_symmetry_Int_Tables_number       1
_space_group_crystal_system       triclinic
_cell_length_a                    10.765583
_cell_length_b                    15.866211
_cell_length_c                    17.031971
_cell_angle_alpha                 96.774841
_cell_angle_beta                  89.218638
_cell_angle_gamma                 91.867028
_cell_volume                      2887.22605873

loop_
_atom_site_label
_atom_site_type_symbol
_atom_type_description
_atom_site_fract_x
_atom_site_fract_y
_atom_site_fract_z
_atom_type_partial_charge
C1    C     C_R   0.499841 0.489396 0.348366 0.770433
C2    C     C_R   0.065805 0.458723 0.426391 0.093359
C3    C     C_R   0.129273 0.501111 0.492489 -0.093274
C4    C     C_R   0.064996 0.546560 0.554319 -0.215149
C5    C     C_R   0.936853 0.544969 0.554863 -0.213643
C6    C     C_R   0.871494 0.499701 0.492484 -0.084750
C7    C     C_R   0.501457 0.483791 0.261752 -0.026961
C8    C     C_R   0.509999 0.558407 0.225041 -0.229194
C9    C     C_R   0.512080 0.554275 0.143179 -0.166027
C10   C     C_R   0.506110 0.474933 0.096098 0.372079
C11   C     C_R   0.496457 0.400574 0.132752 -0.203833
C12   C     C_R   0.262601 0.500394 0.498032 0.792863
C13   C     C_R   0.494740 0.404712 0.215053 -0.236838
C14   C     C_R   0.630203 0.497253 0.854700 0.042087
C15   C     C_R   0.621589 0.492062 0.771383 0.052826
C16   C     C_R   0.528282 0.526518 0.901989 0.250142
C17   C     C_R   0.510146 0.516151 0.737444 -0.138353
C18   C     C_R   0.407597 0.544808 0.785269 0.068393
C19   C     C_R   0.417618 0.550608 0.868506 0.046537
C20   C     C_R   0.419605 0.749702 0.476414 0.015609
C21   C     C_R   0.419328 0.838245 0.473483 0.050251
C22   C     C_R   0.520519 0.889228 0.505713 0.345966
C23   C     C_R   0.501041 0.510455 0.651215 0.833928
C24   C     C_R   0.617484 0.849059 0.539648 -0.342272
C25   C     C_R   0.612464 0.760602 0.541980 0.035444
C26   C     C_R   0.588816 0.152128 0.483973 0.080727
C27   C     C_R   0.579712 0.235921 0.460826 0.274064
C28   C     C_R   0.481831 0.114619 0.518408 0.322229
C29   C     C_R   0.389043 0.253965 0.530915 0.014999
C30   C     C_R   0.383278 0.167685 0.541746 -0.365608
C31   C     C_R   0.737570 0.499525 0.497297 0.779867
C32   C     C_R   0.129594 0.418514 0.359841 -0.181517
C33   C     C_R   0.064476 0.382132 0.293425 -0.137692
C34   C     C_R   0.935697 0.386776 0.291372 -0.129728
C35   C     C_R   0.871207 0.426345 0.356333 -0.193188
C36   C     C_R   0.934690 0.460293 0.425458 0.092286
Cu1   Cu    Cu3+1 0.493970 0.415220 0.496180 0.916026
Cu2   Cu    Cu3+1 0.506030 0.584780 0.503820 0.927921
H1    H     H_    0.114284 0.581974 0.603172 0.148682
H2    H     H_    0.487799 0.346208 0.241990 0.163572
H3    H     H_    0.517009 0.613293 0.117026 0.149229
H4    H     H_    0.514740 0.620311 0.259497 0.161396
H5    H     H_    0.698126 0.885959 0.562683 0.154780
H6    H     H_    0.688145 0.730739 0.568014 0.136476
H7    H     H_    0.315892 0.294001 0.556079 0.156764
H8    H     H_    0.229859 0.416424 0.357639 0.147054
H9    H     H_    0.302912 0.142682 0.571354 0.162231
H10   H     H_    0.344152 0.710394 0.449506 0.146480
H11   H     H_    0.114406 0.351982 0.242657 0.135366
H12   H     H_    0.885725 0.360689 0.238864 0.133460
H13   H     H_    0.772217 0.432586 0.351022 0.121892
H14   H     H_    0.888421 0.578982 0.604408 0.130958
H15   H     H_    0.490516 0.339256 0.097340 0.138461
N1    N     N_2   0.504468 0.467811 0.012306 -0.269529
N2    N     N_2   0.537926 0.534532 0.985014 -0.272219
N3    N     N_R   0.515100 0.712130 0.509560 -0.181158
N4    N     N_2   0.536894 0.976197 0.492049 -0.257149
N5    N     N_2   0.468528 0.026777 0.533108 -0.228630
N6    N     N_R   0.484890 0.287850 0.490450 -0.200544
O1    O     O_R   0.494360 0.420530 0.382500 -0.607101
O2    O     O_R   0.504550 0.563720 0.388950 -0.578996
O3    O     O_R   0.314550 0.428390 0.496780 -0.591997
O4    O     O_R   0.324740 0.571580 0.503230 -0.591251
O5    O     O_R   0.495450 0.436280 0.611050 -0.571248
O6    O     O_R   0.505640 0.579470 0.617500 -0.589572
O7    O     O_R   0.675260 0.428420 0.496770 -0.598897
O8    O     O_R   0.685450 0.571610 0.503220 -0.580106
C37   C     C_3   0.286195 0.565306 0.747352 -0.403023
C38   C     C_3   0.197788 0.487488 0.738094 -0.852441
H16   H     H_    0.185692 0.460050 0.794825 0.250799
H17   H     H_    0.105210 0.505635 0.719026 0.237046
H18   H     H_    0.234926 0.438250 0.692837 0.255969
H19   H     H_    0.240717 0.619677 0.781814 0.200322
H20   H     H_    0.301551 0.587206 0.688544 0.204019
C39   C     C_3   0.313372 0.585250 0.923500 -0.375883
C40   C     C_3   0.334653 0.680774 0.947611 -0.352246
C41   C     C_3   0.229150 0.717662 0.000182 -0.866350
H21   H     H_    0.140638 0.711987 0.966983 0.250760
H22   H     H_    0.218602 0.683991 0.053611 0.257536
H23   H     H_    0.250009 0.785952 0.019218 0.244435
H24   H     H_    0.423407 0.692209 0.980337 0.226461
H25   H     H_    0.341392 0.714454 0.893986 0.215141
H26   H     H_    0.307993 0.551957 0.977294 0.219514
H27   H     H_    0.220523 0.572636 0.896755 0.203113
C42   C     C_3   0.670304 0.265288 0.400067 -0.369737
C43   C     C_3   0.663949 0.208012 0.321271 -0.922317
H28   H     H_    0.694407 0.143024 0.327077 0.254507
H29   H     H_    0.567420 0.204120 0.298556 0.256363
H30   H     H_    0.725696 0.235165 0.277259 0.249434
H31   H     H_    0.647155 0.327650 0.385659 0.260203
H32   H     H_    0.766538 0.272003 0.422889 0.192882
C44   C     C_3   0.714388 0.109023 0.479837 -0.383419
C45   C     C_3   0.761274 0.098124 0.562317 -0.827173
H33   H     H_    0.771683 0.161106 0.598191 0.244536
H34   H     H_    0.696957 0.057167 0.593614 0.271190
H35   H     H_    0.853384 0.068295 0.557201 0.233396
H36   H     H_    0.710935 0.047702 0.441344 0.219505
H37   H     H_    0.788439 0.146167 0.452873 0.200732
C46   C     C_3   0.313842 0.874961 0.432212 -0.410867
C47   C     C_3   0.198401 0.882319 0.485215 -0.821527
H38   H     H_    0.166681 0.818777 0.500222 0.245548
H39   H     H_    0.218835 0.924612 0.540574 0.261883
H40   H     H_    0.122346 0.909698 0.453917 0.239393
H41   H     H_    0.339460 0.938582 0.414909 0.232487
H42   H     H_    0.291521 0.833519 0.376605 0.188647
C48   C     C_3   0.732383 0.464548 0.718594 -0.380001
C49   C     C_3   0.734448 0.368008 0.698638 -0.787815
H43   H     H_    0.651269 0.343788 0.664405 0.275276
H44   H     H_    0.818268 0.350903 0.662240 0.232366
H45   H     H_    0.736800 0.335814 0.752918 0.231671
H46   H     H_    0.731418 0.493597 0.662699 0.185268
H47   H     H_    0.821427 0.488700 0.746033 0.190163
C50   C     C_3   0.747814 0.474005 0.895162 -0.366106
C51   C     C_3   0.828771 0.553303 0.921639 -0.350055
C52   C     C_3   0.947330 0.529886 0.960993 -0.863721
H48   H     H_    0.924222 0.496141 0.013115 0.260445
H49   H     H_    0.004438 0.488664 0.918391 0.248444
H50   H     H_    0.002614 0.588421 0.981246 0.245707
H51   H     H_    0.854463 0.586780 0.869707 0.208466
H52   H     H_    0.776244 0.597488 0.964366 0.233800
H53   H     H_    0.723250 0.440335 0.947069 0.218369
H54   H     H_    0.803509 0.428035 0.856854 0.198473

loop_
_geom_bond_atom_site_label_1
_geom_bond_atom_site_label_2
_ccdc_geom_bond_type
C31   O7    A    
C45   H33   S    
C35   C36   A    
C25   N3    A    
C20   N3    A    
C22   N4    S    
Cu1   O3    S    
C42   H32   S    
C44   H37   S    
C7    C8    A    
C48   H47   S    
C41   H21   S    
C31   O8    A    
C26   C27   A    
C17   C23   S    
C15   C48   S    
Cu1   Cu2   S    
C8    H4    S    
C18   C19   A    
C5    C6    A    
C21   C46   S    
C43   H29   S    
C39   H27   S    
C48   C49   S    
C18   C37   S    
C37   H20   S    
C52   H48   S    
C2    C32   A    
C34   C35   A    
C27   C42   S    
C44   C45   S    
C13   H2    S    
C3    C12   S    
Cu2   O4    S    
C50   H54   S    
C29   N6    A    
C8    C9    A    
C52   H49   S    
C49   H43   S    
C4    H1    S    
C5    H14   S    
C9    C10   A    
C51   H51   S    
C11   H15   S    
Cu2   O2    S    
C6    C31   S    
C45   H34   S    
C21   C22   A    
C49   H44   S    
C25   H6    S    
C44   H36   S    
C33   C34   A    
C48   H46   S    
C41   H22   S    
C46   H42   S    
C34   H12   S    
C38   H17   S    
C30   H9    S    
C24   C25   A    
C1    O1    A    
C40   H25   S    
C12   O4    A    
C43   H28   S    
C37   C38   S    
C37   H19   S    
C42   C43   S    
C47   H40   S    
C29   H7    S    
C38   H18   S    
C39   C40   S    
C29   C30   A    
C12   O3    A    
C46   C47   S    
Cu2   O6    S    
C52   H50   S    
Cu1   O7    S    
C20   C21   A    
C47   H39   S    
C17   C18   A    
Cu2   N3    S    
Cu1   N6    S    
C40   C41   S    
C20   H10   S    
C23   O5    A    
C45   H35   S    
C35   H13   S    
C49   H45   S    
C22   C24   A    
C3    C4    A    
Cu1   O5    S    
C50   C51   S    
C41   H23   S    
C2    C36   A    
C15   C17   A    
N1    N2    D    
C1    C7    S    
C32   H8    S    
C4    C5    A    
C43   H30   S    
C1    O2    A    
C40   H24   S    
C42   H31   S    
C51   C52   S    
C28   N5    S    
C9    H3    S    
C14   C50   S    
C26   C28   A    
C32   C33   A    
C23   O6    A    
C28   C30   A    
C2    C3    A    
C16   N2    S    
C27   N6    A    
C11   C13   A    
C39   H26   S    
N4    N5    D    
C16   C19   A    
C19   C39   S    
C47   H38   S    
C6    C36   A    
C46   H41   S    
C14   C16   A    
C38   H16   S    
C10   N1    S    
Cu1   O1    S    
C10   C11   A    
C7    C13   A    
C50   H53   S    
Cu2   O8    S    
C33   H11   S    
C24   H5    S    
C14   C15   A    
C26   C44   S    
C51   H52   S    
