data_mof_unit_65431.cif
_audit_creation_date              2012-12-10T17:00:14-0500
_audit_creation_method            fapswitch 2.2
_symmetry_space_group_name_H-M    P1
_symmetry_Int_Tables_number       1
_space_group_crystal_system       triclinic
_cell_length_a                    13.159225
_cell_length_b                    13.119334
_cell_length_c                    16.048112
_cell_angle_alpha                 80.391434
_cell_angle_beta                  100.327931
_cell_angle_gamma                 90.825956
_cell_volume                      2687.07961261

loop_
_atom_site_label
_atom_site_type_symbol
_atom_type_description
_atom_site_fract_x
_atom_site_fract_y
_atom_site_fract_z
_atom_type_partial_charge
Br1   Br    Br    0.541825 0.129979 0.357605 -0.396975
C1    C     C_R   0.464235 0.778131 0.467641 0.496195
C2    C     C_2   0.052339 0.545946 0.474604 -0.006868
C3    C     C_2   0.887953 0.553653 0.525168 -0.091995
C4    C     C_R   0.535447 0.222649 0.530651 0.543324
C5    C     C_2   0.939910 0.530206 0.464985 0.019910
C6    C     C_R   0.776957 0.534946 0.522357 0.517682
C7    C     C_R   0.223119 0.468390 0.476759 0.558764
C8    C     C_R   0.515766 0.487682 0.726995 0.512648
C9    C     C_R   0.484167 0.512343 0.272999 0.520348
C10   C     C_1   0.522198 0.482630 0.817706 0.033202
C11   C     C_2   0.533730 0.473598 0.985002 -0.104030
C12   C     C_1   0.472322 0.521504 0.106068 -0.012092
C13   C     C_2   0.466111 0.526314 0.015014 -0.107381
C14   C     C_2   0.361789 0.944176 0.394172 0.614435
C15   C     C_2   0.889610 0.487613 0.388134 0.609040
C16   C     C_2   0.094173 0.650058 0.486104 0.605996
C17   C     C_1   0.527531 0.478448 0.893941 -0.026483
C18   C     C_1   0.477670 0.517368 0.182296 0.055780
C19   C     C_2   0.542272 0.109999 0.539855 -0.045686
C20   C     C_2   0.540120 0.060126 0.473066 0.179893
C21   C     C_2   0.455765 0.892547 0.450726 0.048994
C22   C     C_2   0.534011 0.946690 0.488665 -0.137701
C23   C     C_2   0.112004 0.463234 0.474032 -0.097874
H1    H     H_    0.405524 0.573545 0.971280 0.147112
H2    H     H_    0.077633 0.387379 0.473962 0.123295
H3    H     H_    0.594321 0.426369 0.028737 0.156224
H4    H     H_    0.597842 0.906397 0.534096 0.136970
H5    H     H_    0.535377 0.065709 0.602179 0.081417
H6    H     H_    0.928805 0.588808 0.578031 0.115461
H7    H     H_    0.261586 0.065354 0.365859 0.358078
H8    H     H_    0.832066 0.362921 0.338558 0.353918
H9    H     H_    0.213644 0.735501 0.531910 0.342389
O1    O     O_3   0.500000 0.500000 0.500000 -0.465736
O2    O     O_R   0.564890 0.556920 0.685230 -0.533414
O3    O     O_R   0.419250 0.562810 0.301190 -0.531189
O4    O     O_R   0.461010 0.422870 0.688230 -0.530417
O5    O     O_R   0.554850 0.457400 0.325340 -0.511570
O6    O     O_2   0.313912 0.902690 0.336628 -0.450735
O7    O     O_R   0.326201 0.038763 0.408151 -0.672506
O8    O     O_2   0.872409 0.543936 0.318206 -0.476575
O9    O     O_R   0.865495 0.382739 0.395492 -0.663831
O10   O     O_2   0.038352 0.726685 0.460041 -0.472295
O11   O     O_R   0.195310 0.660778 0.528579 -0.688117
O12   O     O_R   0.732880 0.470090 0.478000 -0.498389
O13   O     O_R   0.260330 0.535210 0.424090 -0.491305
O14   O     O_R   0.533020 0.732860 0.528350 -0.553691
O15   O     O_R   0.473780 0.261850 0.569570 -0.538846
O16   O     O_R   0.406490 0.723840 0.419860 -0.479748
O17   O     O_R   0.586720 0.281460 0.482230 -0.488299
O18   O     O_R   0.723810 0.584530 0.562340 -0.535644
O19   O     O_R   0.282980 0.410180 0.535580 -0.525525
Zn1   Zn    Zn3+2 0.592010 0.428480 0.447310 1.020544
Zn2   Zn    Zn3+2 0.579060 0.591980 0.567800 0.966618
Zn3   Zn    Zn3+2 0.430650 0.400450 0.572090 0.986006
Zn4   Zn    Zn3+2 0.398290 0.579090 0.412800 1.030673

loop_
_geom_bond_atom_site_label_1
_geom_bond_atom_site_label_2
_ccdc_geom_bond_type
C1    C21   S    
O15   Zn3   S    
C16   O10   D    
C10   C17   T    
Br1   C20   S    
O3    Zn4   S    
C1    O16   A    
C1    O14   A    
O16   Zn4   S    
C7    O19   A    
O19   Zn3   S    
C9    C18   S    
C9    O5    A    
O18   Zn2   S    
C2    C5    S    
C8    O4    A    
C16   O11   S    
C6    O18   A    
O1    Zn3   S    
C4    C19   S    
C12   C13   S    
C19   C20   D    
O2    Zn2   S    
O1    Zn4   S    
C8    C10   S    
C14   O6    D    
C2    C23   D    
O5    Zn1   S    
C3    C6    S    
C6    O12   A    
C7    C23   S    
C23   H2    S    
O1    Zn2   S    
C19   H5    S    
O14   Zn2   S    
C13   H1    S    
C3    H6    S    
C4    O17   A    
C4    O15   A    
C7    O13   A    
C14   O7    S    
O17   Zn1   S    
C12   C18   T    
C11   H3    S    
O12   Zn1   S    
O4    Zn3   S    
C15   O9    S    
H7    O7    S    
O1    Zn1   S    
C3    C5    D    
C11   C17   S    
C8    O2    A    
H8    O9    S    
C21   C22   D    
C9    O3    A    
C22   H4    S    
H9    O11   S    
C5    C15   S    
C20   C22   S    
C14   C21   S    
C2    C16   S    
C11   C13   D    
C15   O8    D    
O13   Zn4   S    
