data_mof_unit_57664.cif
_audit_creation_date              2012-12-10T18:16:30-0500
_audit_creation_method            fapswitch 2.2
_symmetry_space_group_name_H-M    P1
_symmetry_Int_Tables_number       1
_space_group_crystal_system       triclinic
_cell_length_a                    12.598658
_cell_length_b                    13.228973
_cell_length_c                    26.869237
_cell_angle_alpha                 90.451192
_cell_angle_beta                  103.013118
_cell_angle_gamma                 82.587165
_cell_volume                      4325.71009543

loop_
_atom_site_label
_atom_site_type_symbol
_atom_type_description
_atom_site_fract_x
_atom_site_fract_y
_atom_site_fract_z
_atom_type_partial_charge
C1    C     C_R   0.439112 0.690981 0.493169 0.861758
C2    C     C_R   0.676273 0.383827 0.051480 0.061465
C3    C     C_R   0.536083 0.268106 0.030859 -0.028858
C4    C     C_R   0.502016 0.498822 0.594685 0.873618
C5    C     C_R   0.607041 0.320726 0.067197 0.084611
C6    C     C_R   0.763626 0.414181 0.088605 -0.245116
C7    C     C_R   0.766146 0.403982 0.140298 -0.143566
C8    C     C_R   0.681693 0.362301 0.155632 0.000628
C9    C     C_R   0.604896 0.315771 0.119430 -0.129095
C10   C     C_R   0.522699 0.269552 0.135054 -0.159540
C11   C     C_R   0.507424 0.287675 0.184948 0.503131
C12   C     C_R   0.425100 0.483989 0.722223 0.281454
C13   C     C_R   0.667886 0.371658 0.205592 0.589139
C14   C     C_R   0.526462 0.489383 0.268589 0.414375
C15   C     C_R   0.518822 0.529177 0.316839 0.314445
C16   C     C_R   0.561765 0.308957 0.507813 0.853024
C17   C     C_R   0.516962 0.356859 0.347431 -0.320871
C18   C     C_R   0.539150 0.317134 0.302332 -0.200103
C19   C     C_R   0.546024 0.382878 0.263151 0.168713
C20   C     C_R   0.654479 0.414782 0.999464 -0.016868
C21   C     C_R   0.592020 0.354512 0.962870 -0.008360
C22   C     C_R   0.541305 0.273962 0.978664 -0.042453
C23   C     C_R   0.528914 0.446932 0.753505 0.238863
C24   C     C_R   0.687054 0.505938 0.982626 0.196202
C25   C     C_R   0.485230 0.226816 0.889400 -0.214690
C26   C     C_R   0.458874 0.216507 0.047723 -0.280445
C27   C     C_R   0.453533 0.214347 0.099134 0.507146
C28   C     C_R   0.499507 0.497020 0.405655 0.949238
C29   C     C_R   0.495770 0.205268 0.941148 0.440509
C30   C     C_R   0.718857 0.058297 0.490139 -0.191019
C31   C     C_R   0.600579 0.199800 0.512688 -0.148059
C32   C     C_R   0.312726 0.830718 0.515578 -0.208440
C33   C     C_R   0.295488 0.929459 0.532240 -0.161396
C34   C     C_R   0.577434 0.376632 0.910211 -0.061734
C35   C     C_R   0.368713 0.997438 0.528396 -0.152843
C36   C     C_R   0.458161 0.969168 0.504818 0.093785
C37   C     C_R   0.471744 0.870405 0.485212 0.003017
C38   C     C_R   0.537593 0.034139 0.502337 0.014854
C39   C     C_R   0.633376 0.997764 0.484823 0.008863
C40   C     C_R   0.595279 0.486889 0.841793 0.522623
C41   C     C_R   0.641008 0.902738 0.461576 0.437451
C42   C     C_R   0.556787 0.843032 0.459093 -0.282299
C43   C     C_R   0.521275 0.136513 0.513945 -0.246290
C44   C     C_R   0.707567 0.156964 0.509276 0.202154
C45   C     C_R   0.615411 0.463393 0.894125 -0.058533
C46   C     C_R   0.402644 0.799673 0.493968 -0.074027
C47   C     C_R   0.084490 0.353703 0.425019 0.305412
C48   C     C_R   0.802451 0.626183 0.561118 -0.004537
C49   C     C_R   0.910037 0.646808 0.576936 -0.272935
C50   C     C_R   0.991485 0.593969 0.555745 -0.179930
C51   C     C_R   0.965307 0.520449 0.517912 0.069944
C52   C     C_R   0.507924 0.337524 0.821456 0.514567
C53   C     C_R   0.854875 0.501154 0.503984 0.174124
C54   C     C_R   0.043112 0.467977 0.492482 -0.115360
C55   C     C_R   0.008094 0.399443 0.452438 -0.080051
C56   C     C_R   0.668247 0.527451 0.930307 -0.158943
C57   C     C_R   0.897413 0.381311 0.439712 0.209353
C58   C     C_R   0.824994 0.428662 0.467316 -0.265954
C59   C     C_R   0.154177 0.484597 0.503816 -0.167785
C60   C     C_R   0.187727 0.386709 0.433214 0.493447
C61   C     C_R   0.622256 0.433791 0.732949 -0.130226
C62   C     C_R   0.613631 0.454672 0.681600 -0.216738
C63   C     C_R   0.416823 0.500934 0.669906 -0.224395
C64   C     C_3   0.423048 0.068003 0.135662 0.159176
C65   C     C_3   0.436746 0.987500 0.095417 -0.426340
C66   C     C_3   0.472831 0.881078 0.119667 -0.947470
C67   C     C_R   0.522692 0.313300 0.873512 -0.086920
C68   C     C_3   0.556840 0.040864 0.967992 0.059608
C69   C     C_3   0.519335 0.935310 0.967035 -0.322781
C70   C     C_3   0.615144 0.852902 0.988089 -0.941894
C71   C     C_3   0.909397 0.155613 0.538494 -0.831367
C72   C     C_3   0.817456 0.824770 0.467072 0.076859
C73   C     C_3   0.917095 0.846471 0.446923 -0.322623
C74   C     C_3   0.021696 0.778715 0.472888 -0.973281
C75   C     C_3   0.277443 0.607606 0.738382 -0.786680
C76   C     C_3   0.213480 0.406559 0.351950 0.133747
C77   C     C_3   0.230273 0.332262 0.309620 -0.325515
C78   C     C_R   0.510767 0.486741 0.649591 -0.092104
C79   C     C_3   0.217167 0.388319 0.258718 -0.902201
C80   C     C_3   0.796453 0.243889 0.399449 -0.752891
C81   C     C_3   0.069770 0.185718 0.406206 0.120178
C82   C     C_3   0.183494 0.129398 0.405276 -0.349101
C83   C     C_3   0.184045 0.014113 0.407925 -0.949376
C84   C     C_3   0.620127 0.664471 0.323738 0.109477
C85   C     C_3   0.715029 0.620669 0.367807 -0.343429
C86   C     C_3   0.825880 0.638872 0.358267 -0.950274
C87   C     C_3   0.416353 0.600973 0.207629 0.068735
C88   C     C_3   0.357320 0.537823 0.164596 -0.362801
C89   C     C_R   0.508307 0.462173 0.355120 -0.182472
C90   C     C_3   0.244412 0.592642 0.138858 -0.939733
C91   C     C_3   0.823069 0.620688 0.017329 -0.802756
H1    H     H_    0.337171 0.524999 0.645044 0.154383
H2    H     H_    0.354991 0.069946 0.545988 0.128036
H3    H     H_    0.228092 0.952006 0.550554 0.144963
H4    H     H_    0.560128 0.773663 0.437551 0.187062
H5    H     H_    0.188301 0.531558 0.534627 0.163581
H6    H     H_    0.738952 0.666072 0.577847 0.148294
H7    H     H_    0.690083 0.598072 0.917913 0.196660
H8    H     H_    0.073196 0.613827 0.569121 0.135024
H9    H     H_    0.930320 0.703618 0.605512 0.154052
H10   H     H_    0.743677 0.410234 0.457707 0.228453
H11   H     H_    0.830235 0.434677 0.167785 0.183622
H12   H     H_    0.701914 0.406592 0.757023 0.152170
H13   H     H_    0.828921 0.448167 0.078016 0.174170
H14   H     H_    0.687083 0.442279 0.666593 0.167593
H15   H     H_    0.367165 0.043508 0.158512 0.182514
H16   H     H_    0.503381 0.072174 0.162977 0.123924
H17   H     H_    0.357642 0.987622 0.066924 0.243789
H18   H     H_    0.500009 0.006288 0.075422 0.220389
H19   H     H_    0.552242 0.879139 0.148074 0.265594
H20   H     H_    0.483686 0.825155 0.089586 0.274633
H21   H     H_    0.409688 0.858626 0.138831 0.259987
H22   H     H_    0.602545 0.055803 0.007311 0.149242
H23   H     H_    0.447408 0.174682 0.861680 0.210159
H24   H     H_    0.613095 0.040975 0.941264 0.143202
H25   H     H_    0.456474 0.935007 0.990096 0.230550
H26   H     H_    0.481005 0.917379 0.927048 0.232976
H27   H     H_    0.678584 0.850726 0.965181 0.269970
H28   H     H_    0.584847 0.777480 0.986166 0.282770
H29   H     H_    0.652581 0.867606 0.028599 0.264566
H30   H     H_    0.790589 0.267881 0.550350 0.258688
H31   H     H_    0.970366 0.209085 0.552211 0.248077
H32   H     H_    0.933388 0.115852 0.505500 0.223555
H33   H     H_    0.913453 0.099771 0.569762 0.246662
H34   H     H_    0.396661 0.182094 0.021305 0.226652
H35   H     H_    0.813060 0.741524 0.466745 0.172866
H36   H     H_    0.829455 0.849706 0.507550 0.120539
H37   H     H_    0.901752 0.834343 0.405184 0.236581
H38   H     H_    0.930392 0.927344 0.453249 0.195463
H39   H     H_    0.040685 0.791076 0.514719 0.260817
H40   H     H_    0.090946 0.797845 0.457076 0.269325
H41   H     H_    0.012702 0.697381 0.465328 0.274860
H42   H     H_    0.335435 0.470981 0.778079 0.243390
H43   H     H_    0.203348 0.613904 0.754674 0.244596
H44   H     H_    0.250884 0.633786 0.697811 0.238238
H45   H     H_    0.511702 0.304922 0.377537 0.185038
H46   H     H_    0.335264 0.657784 0.759941 0.253959
H47   H     H_    0.257578 0.472890 0.349272 0.163603
H48   H     H_    0.124367 0.437318 0.344223 0.124281
H49   H     H_    0.313366 0.287845 0.320026 0.245287
H50   H     H_    0.168726 0.277913 0.305027 0.232969
H51   H     H_    0.134392 0.433315 0.247468 0.255413
H52   H     H_    0.226843 0.332273 0.228583 0.304084
H53   H     H_    0.280815 0.440256 0.261716 0.253607
H54   H     H_    0.814429 0.377927 0.364294 0.254493
H55   H     H_    0.774791 0.207026 0.361909 0.237151
H56   H     H_    0.552394 0.235320 0.298098 0.183202
H57   H     H_    0.719495 0.268966 0.412037 0.233423
H58   H     H_    0.849314 0.186421 0.426852 0.242576
H59   H     H_    0.006478 0.145403 0.381206 0.182998
H60   H     H_    0.054878 0.181928 0.445543 0.110556
H61   H     H_    0.207197 0.148813 0.369530 0.245031
H62   H     H_    0.245309 0.153109 0.438189 0.223648
H63   H     H_    0.152850 0.992483 0.441279 0.270265
H64   H     H_    0.268944 0.975225 0.411355 0.284859
H65   H     H_    0.130972 0.988097 0.372625 0.260566
H66   H     H_    0.610897 0.748905 0.326148 0.168265
H67   H     H_    0.793967 0.028781 0.479563 0.166456
H68   H     H_    0.641420 0.647250 0.286435 0.200855
H69   H     H_    0.703157 0.656328 0.403956 0.237799
H70   H     H_    0.716319 0.537391 0.372065 0.223410
H71   H     H_    0.844418 0.591802 0.326100 0.282647
H72   H     H_    0.891446 0.616787 0.392972 0.263860
H73   H     H_    0.824987 0.720284 0.348527 0.266876
H74   H     H_    0.422667 0.676474 0.191514 0.174804
H75   H     H_    0.366516 0.616296 0.237004 0.145138
H76   H     H_    0.407754 0.522998 0.135624 0.239578
H77   H     H_    0.346690 0.463539 0.180422 0.244118
H78   H     H_    0.442970 0.170658 0.519942 0.164685
H79   H     H_    0.192080 0.606330 0.167072 0.262934
H80   H     H_    0.203815 0.544786 0.108029 0.274935
H81   H     H_    0.252514 0.666681 0.121785 0.263733
H82   H     H_    0.692244 0.590691 0.050312 0.239337
H83   H     H_    0.839454 0.678586 0.047282 0.243251
H84   H     H_    0.822299 0.656906 0.980143 0.251071
H85   H     H_    0.890404 0.555988 0.025705 0.241651
H86   H     H_    0.260884 0.776421 0.523428 0.156468
N1    N     N_R   0.542249 0.424229 0.806762 -0.355148
N2    N     N_R   0.576422 0.342748 0.217843 -0.326732
N3    N     N_R   0.222180 0.444690 0.474320 -0.155995
N4    N     N_R   0.776980 0.554780 0.525420 -0.129432
N5    N     N_2   0.800185 0.212496 0.524021 -0.289982
N6    N     N_2   0.329167 0.502822 0.742531 -0.296066
N7    N     N_2   0.854690 0.329244 0.394300 -0.255049
N8    N     N_2   0.718184 0.586108 0.016550 -0.321803
O1    O     O_R   0.366730 0.627160 0.487740 -0.615979
O2    O     O_R   0.410930 0.482330 0.420550 -0.580255
O3    O     O_R   0.589030 0.517690 0.436960 -0.650896
O4    O     O_2   0.628321 0.571719 0.825908 -0.568372
O5    O     O_3   0.374066 0.163649 0.112404 -0.605053
O6    O     O_3   0.463255 0.114655 0.953530 -0.660449
O7    O     O_3   0.721144 0.874946 0.434430 -0.655904
O8    O     O_3   0.256346 0.357333 0.400608 -0.617336
O9    O     O_3   0.056603 0.286267 0.386011 -0.619907
O10   O     O_3   0.518491 0.632369 0.326927 -0.668333
O11   O     O_3   0.524578 0.553032 0.227625 -0.649413
O12   O     O_2   0.741664 0.414560 0.241075 -0.580329
O13   O     O_2   0.459356 0.275416 0.785779 -0.563700
O14   O     O_2   0.421324 0.256048 0.199567 -0.559304
O15   O     O_R   0.544830 0.662520 0.504140 -0.620604
O16   O     O_R   0.410970 0.482310 0.563040 -0.617647
O17   O     O_R   0.589070 0.517670 0.579450 -0.613590
O18   O     O_R   0.455170 0.337480 0.495860 -0.578797
O19   O     O_R   0.633270 0.372840 0.512260 -0.646848
Zn1   Zn    Zn3+2 0.381080 0.476390 0.489050 0.965033
Zn2   Zn    Zn3+2 0.618920 0.523610 0.510950 0.914145

loop_
_geom_bond_atom_site_label_1
_geom_bond_atom_site_label_2
_ccdc_geom_bond_type
C10   C27   A    
C87   C88   S    
C69   H25   S    
C8    C13   A    
C22   C29   A    
C74   H41   S    
C85   H70   S    
C41   C42   A    
C71   H31   S    
C16   O19   A    
C35   C36   A    
C25   C67   A    
C77   H49   S    
C56   H7    S    
C48   N4    A    
C75   N6    S    
C33   H3    S    
C81   C82   S    
C43   H78   S    
C75   H43   S    
C7    C8    A    
C39   C41   A    
C62   H14   S    
C1    O1    A    
C16   C31   S    
C4    C78   S    
C48   H6    S    
O18   Zn1   S    
H54   N7    S    
H82   N8    S    
C26   C27   A    
C31   C43   A    
C81   H60   S    
C71   H32   S    
C59   N3    A    
C61   H12   S    
C87   O11   S    
C58   H10   S    
C28   O3    A    
C38   C39   A    
C75   H44   S    
C1    C46   S    
C76   H48   S    
C87   H75   S    
C83   H64   S    
C84   O10   S    
C81   H59   S    
C18   C19   A    
C73   C74   S    
C37   C42   A    
C23   N1    S    
C47   O9    S    
C81   O9    S    
C82   H62   S    
H42   N6    S    
C79   H52   S    
C40   O4    S    
C20   C24   A    
C45   C56   A    
C70   H29   S    
C8    C9    A    
C88   H77   S    
C7    H11   S    
C90   H80   S    
C91   H85   S    
C29   O6    S    
C28   C89   S    
C86   H71   S    
C27   O5    S    
C6    H13   S    
C66   H20   S    
C16   O18   A    
C9    C10   A    
C65   H17   S    
C61   C62   A    
C41   O7    S    
C68   H22   S    
C15   O10   S    
C80   H55   S    
C47   C60   A    
C21   C22   A    
C71   N5    S    
C30   C44   A    
C2    C6    A    
C84   H68   S    
C60   O8    S    
C50   C51   A    
C57   C58   A    
C54   C59   A    
C35   H2    S    
C25   C29   A    
C80   H58   S    
C73   H38   S    
C31   C44   A    
C72   H36   S    
C2    C20   A    
C42   H4    S    
C71   H33   S    
C17   C89   A    
C76   C77   S    
C18   H56   S    
C75   H46   S    
C28   O2    A    
C11   N2    A    
C83   H63   S    
C12   C63   A    
C68   C69   S    
C21   C34   A    
C68   O6    S    
C85   C86   S    
C82   C83   S    
C66   H19   S    
C91   H83   S    
C72   H35   S    
C24   N8    S    
C51   C53   A    
C26   H34   S    
C63   H1    S    
C5    C9    A    
C53   N4    A    
C15   C89   A    
C4    O17   A    
C79   H53   S    
C12   C23   A    
C23   C61   A    
C70   H28   S    
C84   H66   S    
C88   H76   S    
O3    Zn2   S    
O2    Zn1   S    
C17   H45   S    
C17   C18   A    
C50   H8    S    
C77   C79   S    
C91   H84   S    
C34   C45   A    
C84   C85   S    
C65   H18   S    
C52   C67   A    
C13   O12   S    
C40   N1    A    
C48   C49   A    
C85   H69   S    
O19   Zn2   S    
C65   C66   S    
C10   C11   A    
C55   C57   A    
C38   C43   A    
C32   H86   S    
C2    C5    A    
C52   O13   S    
C59   H5    S    
N3    Zn1   S    
C74   H39   S    
C19   N2    S    
C64   H16   S    
C47   C55   A    
C44   N5    S    
C30   H67   S    
C14   O11   S    
C54   C55   A    
C36   C37   A    
O15   Zn2   S    
O1    Zn1   S    
C20   C21   A    
C32   C46   A    
C14   C19   A    
C62   C78   A    
C3    C26   A    
C60   N3    A    
C88   C90   S    
C72   C73   S    
C3    C5    A    
C34   C67   A    
C64   O5    S    
C53   C58   A    
C64   H15   S    
C6    C7    A    
C83   H65   S    
C76   H47   S    
C24   C56   A    
C73   H37   S    
C51   C54   A    
C64   C65   S    
C36   C38   A    
N4    Zn2   S    
C37   C46   A    
C90   H79   S    
C13   N2    A    
C25   H23   S    
C32   C33   A    
C49   H9    S    
C4    O16   A    
C87   H74   S    
C1    O15   A    
C70   H27   S    
C69   H26   S    
C12   N6    S    
C33   C35   A    
C30   C39   A    
C80   N7    S    
C91   N8    S    
C69   C70   S    
C11   O14   S    
C76   O8    S    
C68   H24   S    
C79   H51   S    
C80   H57   S    
C86   H73   S    
C40   C45   A    
C77   H50   S    
C49   C50   A    
O17   Zn2   S    
C90   H81   S    
O16   Zn1   S    
C14   C15   A    
C3    C22   A    
C86   H72   S    
C66   H21   S    
C52   N1    A    
C74   H40   S    
C72   O7    S    
C57   N7    S    
C82   H61   S    
H30   N5    S    
C63   C78   A    
