data_mof_unit_6800.cif
_audit_creation_date              2012-12-10T17:19:54-0500
_audit_creation_method            fapswitch 2.2
_symmetry_space_group_name_H-M    P1
_symmetry_Int_Tables_number       1
_space_group_crystal_system       triclinic
_cell_length_a                    9.580623
_cell_length_b                    10.863543
_cell_length_c                    15.49846
_cell_angle_alpha                 87.697597
_cell_angle_beta                  74.304986
_cell_angle_gamma                 90.399932
_cell_volume                      1551.40843055

loop_
_atom_site_label
_atom_site_type_symbol
_atom_type_description
_atom_site_fract_x
_atom_site_fract_y
_atom_site_fract_z
_atom_type_partial_charge
C1    C     C_R   0.003476 0.263109 0.492778 0.803152
C2    C     C_R   0.671351 0.523836 0.905114 0.093718
C3    C     C_R   0.770840 0.565952 0.951010 0.159425
C4    C     C_R   0.520764 0.512699 0.950724 0.068575
C5    C     C_R   0.473941 0.533438 0.044265 0.065157
C6    C     C_R   0.577349 0.574945 0.087390 -0.181390
C7    C     C_R   0.722339 0.591835 0.041264 -0.223012
C8    C     C_R   0.415135 0.484453 0.905489 -0.212487
C9    C     C_R   0.269561 0.470751 0.950994 -0.233384
C10   C     C_R   0.223264 0.483514 0.043201 0.166636
C11   C     C_R   0.324802 0.513696 0.091130 0.099419
C12   C     C_R   0.918227 0.501543 0.671943 0.802423
C13   C     C_R   0.075929 0.465254 0.088172 -0.206828
C14   C     C_R   0.027831 0.474391 0.180762 -0.191205
C15   C     C_R   0.273805 0.519179 0.184843 -0.215495
C16   C     C_R   0.280332 0.122755 0.441014 -0.122188
C17   C     C_R   0.404489 0.065098 0.451429 -0.108735
C18   C     C_R   0.392549 0.950400 0.495794 -0.132799
C19   C     C_R   0.259053 0.888087 0.521312 -0.158477
C20   C     C_R   0.134569 0.939761 0.501920 0.111226
C21   C     C_R   0.141670 0.065542 0.474989 0.097281
C22   C     C_R   0.009790 0.129326 0.484492 -0.120518
C23   C     C_R   0.999487 0.737635 0.504777 0.795510
C24   C     C_R   0.879333 0.062977 0.498424 -0.201359
C25   C     C_R   0.877564 0.935797 0.506041 -0.205822
C26   C     C_R   0.003551 0.872375 0.508050 -0.108360
C27   C     C_R   0.698574 0.662358 0.380012 -0.224468
C28   C     C_R   0.652689 0.743165 0.322094 -0.257626
C29   C     C_R   0.508476 0.744919 0.322902 0.251894
C30   C     C_R   0.409737 0.665120 0.381322 -0.211134
C31   C     C_R   0.451634 0.580866 0.441518 0.155824
C32   C     C_R   0.601409 0.580204 0.441200 0.210440
C33   C     C_R   0.548958 0.423213 0.555643 -0.070160
C34   C     C_R   0.081825 0.500333 0.327960 0.788591
C35   C     C_R   0.400994 0.423130 0.555531 -0.071629
C36   C     C_R   0.872650 0.514696 0.769352 -0.050794
C37   C     C_R   0.127168 0.499261 0.229670 -0.046048
C38   C     C_R   0.918298 0.582857 0.905834 -0.210453
C39   C     C_R   0.968915 0.557898 0.815380 -0.200400
C40   C     C_R   0.726550 0.494374 0.814893 -0.238019
Cu1   Cu    Cu3+1 0.140660 0.499990 0.500010 0.924835
Cu2   Cu    Cu3+1 0.859340 0.500010 0.499990 0.934006
H1    H     H_    0.797288 0.625017 0.076843 0.154630
H2    H     H_    0.998112 0.441835 0.051860 0.145311
H3    H     H_    0.777798 0.109306 0.503579 0.160611
H4    H     H_    0.295092 0.210950 0.404629 0.163262
H5    H     H_    0.509321 0.111031 0.427365 0.137458
H6    H     H_    0.487409 0.908259 0.508714 0.133958
H7    H     H_    0.255462 0.801992 0.559013 0.164885
H8    H     H_    0.776027 0.887201 0.511978 0.164763
H9    H     H_    0.583800 0.360276 0.601236 0.133324
H10   H     H_    0.811380 0.668597 0.373796 0.220699
H11   H     H_    0.730142 0.804995 0.276459 0.189026
H12   H     H_    0.346826 0.535086 0.225187 0.155053
H13   H     H_    0.302052 0.674260 0.376564 0.227088
H14   H     H_    0.325154 0.360115 0.600983 0.140745
H15   H     H_    0.913922 0.458577 0.214211 0.162216
H16   H     H_    0.192768 0.448487 0.913609 0.148109
H17   H     H_    0.994052 0.617709 0.940137 0.144706
H18   H     H_    0.082225 0.575190 0.781085 0.154034
H19   H     H_    0.658327 0.454863 0.777975 0.143380
H20   H     H_    0.549776 0.598912 0.156546 0.168721
H21   H     H_    0.440251 0.475181 0.834069 0.139776
N1    N     N_R   0.648320 0.501210 0.499140 -0.190170
N2    N     N_R   0.352470 0.501290 0.499110 -0.193407
O1    O     O_R   0.118810 0.319640 0.500010 -0.590188
O2    O     O_R   0.881240 0.319660 0.500000 -0.579577
O3    O     O_R   0.055570 0.499980 0.629840 -0.583809
O4    O     O_R   0.818000 0.500010 0.629830 -0.580581
O5    O     O_R   0.118760 0.680340 0.500000 -0.610436
O6    O     O_R   0.881190 0.680360 0.499990 -0.596672
O7    O     O_R   0.182000 0.499990 0.370170 -0.603265
O8    O     O_R   0.944430 0.500020 0.370160 -0.599646
Br1   Br    Br    0.444783 0.857546 0.244050 -0.549329

loop_
_geom_bond_atom_site_label_1
_geom_bond_atom_site_label_2
_ccdc_geom_bond_type
C12   O4    A    
C16   C21   A    
Cu2   N1    S    
C34   C37   S    
Cu1   Cu2   S    
C19   C20   A    
C4    C8    A    
C12   O3    A    
C24   H3    S    
C28   C29   A    
C5    C11   A    
C3    C7    A    
C38   C39   A    
C16   C17   A    
C35   N2    A    
C9    H16   S    
C23   C26   S    
C25   H8    S    
C15   C37   A    
C1    O2    A    
C11   C15   A    
C3    C38   A    
C8    C9    A    
C7    H1    S    
C12   C36   S    
C9    C10   A    
C27   C32   A    
C1    C22   S    
C21   C22   A    
C23   O5    A    
C17   C18   A    
Cu1   O3    S    
C15   H12   S    
C23   O6    A    
C36   C40   A    
C24   C25   A    
C32   N1    A    
C16   H4    S    
C18   C19   A    
Cu1   N2    S    
C29   Br1   S    
C34   O8    A    
C25   C26   A    
Cu2   O4    S    
C40   H19   S    
C2    C4    A    
C29   C30   A    
C19   H7    S    
C31   C32   A    
C30   C31   A    
C1    O1    A    
Cu1   O1    S    
Cu1   O7    S    
Cu2   O2    S    
C22   C24   A    
C34   O7    A    
C27   H10   S    
C31   N2    A    
C14   H15   S    
Cu2   O8    S    
C35   H14   S    
C36   C39   A    
C17   H5    S    
C4    C5    A    
C10   C13   A    
C18   H6    S    
C28   H11   S    
C6    C7    A    
C33   H9    S    
C30   H13   S    
C6    H20   S    
C2    C3    A    
C14   C37   A    
C5    C6    A    
C20   C26   A    
C33   N1    A    
C39   H18   S    
Cu2   O6    S    
C33   C35   A    
C10   C11   A    
C8    H21   S    
C38   H17   S    
C2    C40   A    
C20   C21   A    
C27   C28   A    
C13   C14   A    
C13   H2    S    
Cu1   O5    S    
