data_mof_unit_63204.cif
_audit_creation_date              2012-12-10T19:09:06-0500
_audit_creation_method            fapswitch 2.2
_symmetry_space_group_name_H-M    P1
_symmetry_Int_Tables_number       1
_space_group_crystal_system       triclinic
_cell_length_a                    30.147758
_cell_length_b                    30.147768
_cell_length_c                    18.249277
_cell_angle_alpha                 90.000094
_cell_angle_beta                  89.999939
_cell_angle_gamma                 89.274934
_cell_volume                      16585.2137307

loop_
_atom_site_label
_atom_site_type_symbol
_atom_type_description
_atom_site_fract_x
_atom_site_fract_y
_atom_site_fract_z
_atom_type_partial_charge
C1    C     C_R   0.226058 0.014109 0.499523 -0.203844
C2    C     C_R   0.986223 0.206173 0.447947 0.393780
C3    C     C_R   0.961208 0.654564 0.543677 -0.210896
C4    C     C_R   0.654564 0.961209 0.456320 -0.210896
C5    C     C_R   0.963220 0.340624 0.501450 -0.196515
C6    C     C_R   0.345436 0.038793 0.456324 -0.210896
C7    C     C_R   0.036780 0.659376 0.501448 -0.196516
C8    C     C_R   0.840624 0.463220 0.998549 -0.196516
C9    C     C_R   0.538793 0.845436 0.043675 -0.210896
C10   C     C_R   0.159376 0.536780 0.998552 -0.196515
C11   C     C_R   0.461206 0.154564 0.043673 -0.210895
C12   C     C_R   0.154563 0.461208 0.956322 -0.210896
C13   C     C_R   0.801029 0.951815 0.470269 0.397006
C14   C     C_R   0.463220 0.840624 0.001449 -0.196515
C15   C     C_R   0.845436 0.538793 0.956325 -0.210896
C16   C     C_R   0.536780 0.159376 0.001452 -0.196516
C17   C     C_R   0.365642 0.001345 0.487774 -0.182930
C18   C     C_R   0.001345 0.365642 0.512226 -0.182930
C19   C     C_R   0.634358 0.998655 0.487774 -0.182927
C20   C     C_R   0.998655 0.634358 0.512226 -0.182929
C21   C     C_R   0.865642 0.501345 0.987773 -0.182931
C22   C     C_R   0.501345 0.865642 0.012226 -0.182932
C23   C     C_R   0.134358 0.498655 0.987774 -0.182929
C24   C     C_R   0.013777 0.793827 0.447947 0.393779
C25   C     C_R   0.498654 0.134358 0.012226 -0.182932
C26   C     C_R   0.273542 0.006705 0.477117 -0.019759
C27   C     C_R   0.006706 0.273543 0.522882 -0.019760
C28   C     C_R   0.726457 0.993295 0.477116 -0.019758
C29   C     C_R   0.993295 0.726457 0.522882 -0.019759
C30   C     C_R   0.773542 0.506706 0.977117 -0.019758
C31   C     C_R   0.506706 0.773543 0.022882 -0.019758
C32   C     C_R   0.226457 0.493295 0.977117 -0.019759
C33   C     C_R   0.493294 0.226458 0.022882 -0.019758
C34   C     C_R   0.793827 0.013776 0.552054 0.393777
C35   C     C_R   0.048186 0.198971 0.529727 0.397007
C36   C     C_R   0.206172 0.986222 0.552052 0.393780
C37   C     C_R   0.951814 0.801029 0.529726 0.397006
C38   C     C_R   0.698971 0.548186 0.970274 0.397007
C39   C     C_R   0.486223 0.706172 0.947947 0.393781
C40   C     C_R   0.301029 0.451815 0.970272 0.397006
C41   C     C_R   0.014110 0.226057 0.500477 -0.203844
C42   C     C_R   0.513779 0.293827 0.947948 0.393781
C43   C     C_R   0.293827 0.513776 0.052054 0.393780
C44   C     C_R   0.548186 0.698971 0.029726 0.397008
C45   C     C_R   0.706172 0.486222 0.052052 0.393780
C46   C     C_R   0.451814 0.301029 0.029724 0.397008
C47   C     C_R   0.153455 0.041080 0.463835 0.310865
C48   C     C_R   0.979695 0.160425 0.450192 0.315717
C49   C     C_R   0.846545 0.958920 0.463832 0.310867
C50   C     C_R   0.020305 0.839575 0.450192 0.315716
C51   C     C_R   0.839575 0.020304 0.549809 0.315718
C52   C     C_R   0.773942 0.985891 0.499521 -0.203846
C53   C     C_R   0.041080 0.153455 0.536166 0.310866
C54   C     C_R   0.160425 0.979695 0.549807 0.315715
C55   C     C_R   0.958920 0.846545 0.536165 0.310865
C56   C     C_R   0.653455 0.541080 0.963835 0.310864
C57   C     C_R   0.479695 0.660425 0.950192 0.315716
C58   C     C_R   0.346545 0.458920 0.963833 0.310867
C59   C     C_R   0.520306 0.339575 0.950193 0.315715
C60   C     C_R   0.339575 0.520304 0.049809 0.315717
C61   C     C_R   0.541080 0.653455 0.036166 0.310866
C62   C     C_R   0.660425 0.479695 0.049807 0.315716
C63   C     C_R   0.985891 0.773942 0.500477 -0.203844
C64   C     C_R   0.458920 0.346545 0.036164 0.310863
C65   C     C_R   0.134354 0.005192 0.501198 -0.352876
C66   C     C_R   0.005193 0.134354 0.498802 -0.352878
C67   C     C_R   0.865646 0.994807 0.501198 -0.352879
C68   C     C_R   0.994807 0.865646 0.498802 -0.352877
C69   C     C_R   0.634354 0.505192 0.001198 -0.352876
C70   C     C_R   0.505192 0.634354 0.998802 -0.352877
C71   C     C_R   0.365646 0.494807 0.001198 -0.352878
C72   C     C_R   0.494808 0.365646 0.998802 -0.352876
C73   C     C_R   0.413556 0.000293 0.497802 0.920209
C74   C     C_R   0.726058 0.514109 0.999523 -0.203843
C75   C     C_R   0.000293 0.413556 0.502198 0.920208
C76   C     C_R   0.586444 0.999707 0.497802 0.920207
C77   C     C_R   0.999707 0.586444 0.502197 0.920208
C78   C     C_R   0.913556 0.500293 0.997802 0.920209
C79   C     C_R   0.500293 0.913556 0.002197 0.920208
C80   C     C_R   0.086444 0.499707 0.997802 0.920207
C81   C     C_R   0.499707 0.086444 0.002198 0.920209
C82   C     C_R   0.500000 1.000000 0.358898 0.913333
C83   C     C_R   1.000000 0.500000 0.358900 0.928595
C84   C     C_R   0.500000 1.000000 0.641100 0.928594
C85   C     C_R   0.514109 0.726058 0.000477 -0.203843
C86   C     C_R   1.000000 0.500000 0.641102 0.913334
C87   C     C_R   1.000000 0.500000 0.858898 0.913333
C88   C     C_R   0.500000 1.000000 0.858900 0.928595
C89   C     C_R   1.000000 0.500000 0.141100 0.928594
C90   C     C_R   0.500000 1.000000 0.141102 0.913334
C91   C     C_R   0.999943 0.913523 0.499888 1.025016
C92   C     C_R   0.086477 0.000057 0.500111 1.025017
C93   C     C_R   0.000057 0.086477 0.499888 1.025016
C94   C     C_R   0.913523 0.999943 0.500112 1.025015
C95   C     C_R   0.499943 0.413523 0.999888 1.025018
C96   C     C_R   0.273942 0.485891 0.999522 -0.203844
C97   C     C_R   0.586477 0.500057 0.000111 1.025018
C98   C     C_R   0.500057 0.586477 0.999888 1.025016
C99   C     C_R   0.413523 0.499943 0.000112 1.025016
C100  C     C_1   0.500000 1.000000 0.282407 -0.134872
C101  C     C_1   1.000000 0.500000 0.282407 -0.135076
C102  C     C_1   0.500000 0.000000 0.717593 -0.135076
C103  C     C_1   1.000000 0.500000 0.717593 -0.134872
C104  C     C_1   1.000000 0.500000 0.782407 -0.134872
C105  C     C_1   0.500000 1.000000 0.782407 -0.135076
C106  C     C_1   1.000000 0.500000 0.217593 -0.135076
C107  C     C_R   0.485891 0.273942 0.000476 -0.203844
C108  C     C_1   0.500000 1.000000 0.217593 -0.134872
C109  C     C_R   0.294825 0.965166 0.489641 0.431713
C110  C     C_R   0.040002 0.299835 0.554946 0.432469
C111  C     C_R   0.705175 0.034834 0.489646 0.431712
C112  C     C_R   0.959999 0.700166 0.554947 0.432471
C113  C     C_R   0.700166 0.960001 0.445049 0.432474
C114  C     C_R   0.965167 0.294825 0.510358 0.431713
C115  C     C_R   0.299834 0.040002 0.445054 0.432470
C116  C     C_R   0.034834 0.705175 0.510357 0.431713
C117  C     C_R   0.794825 0.465166 0.989641 0.431712
C118  C     C_R   0.198971 0.048186 0.470274 0.397006
C119  C     C_R   0.540002 0.799835 0.054945 0.432470
C120  C     C_R   0.205175 0.534834 0.989644 0.431713
C121  C     C_R   0.459997 0.200166 0.054943 0.432468
C122  C     C_R   0.200166 0.459999 0.945052 0.432470
C123  C     C_R   0.465167 0.794825 0.010357 0.431712
C124  C     C_R   0.799834 0.540002 0.945055 0.432470
C125  C     C_R   0.534833 0.205175 0.010361 0.431712
C126  C     C_R   0.340624 0.963220 0.498550 -0.196516
C127  C     C_R   0.038793 0.345436 0.543675 -0.210896
C128  C     C_R   0.659376 0.036780 0.498555 -0.196516
Cl1   Cl    Cl    0.266507 0.914333 0.483869 -0.425717
Cl2   Cl    Cl    0.571049 0.782015 0.131584 -0.426242
Cl3   Cl    Cl    0.233493 0.585667 0.983875 -0.425717
Cl4   Cl    Cl    0.428948 0.217985 0.131580 -0.426239
Cl5   Cl    Cl    0.217985 0.428953 0.868411 -0.426241
Cl6   Cl    Cl    0.414334 0.766507 0.016128 -0.425719
Cl7   Cl    Cl    0.782015 0.571049 0.868416 -0.426241
Cl8   Cl    Cl    0.585666 0.233493 0.016136 -0.425717
Cl9   Cl    Cl    0.215234 0.104115 0.478578 -0.321336
Cl10  Cl    Cl    0.965433 0.236839 0.372231 -0.389875
Cl11  Cl    Cl    0.784764 0.895886 0.478562 -0.321339
Cl12  Cl    Cl    0.071050 0.282015 0.631584 -0.426240
Cl13  Cl    Cl    0.034568 0.763161 0.372230 -0.389874
Cl14  Cl    Cl    0.763161 0.034564 0.627772 -0.389875
Cl15  Cl    Cl    0.104115 0.215233 0.521422 -0.321333
Cl16  Cl    Cl    0.236839 0.965431 0.627768 -0.389875
Cl17  Cl    Cl    0.895885 0.784765 0.521425 -0.321338
Cl18  Cl    Cl    0.715234 0.604115 0.978580 -0.321335
Cl19  Cl    Cl    0.465433 0.736839 0.872231 -0.389875
Cl20  Cl    Cl    0.284766 0.395885 0.978572 -0.321334
Cl21  Cl    Cl    0.534571 0.263161 0.872234 -0.389875
Cl22  Cl    Cl    0.263161 0.534566 0.127771 -0.389875
Cl23  Cl    Cl    0.733492 0.085668 0.483879 -0.425714
Cl24  Cl    Cl    0.604115 0.715233 0.021422 -0.321334
Cl25  Cl    Cl    0.736839 0.465431 0.127768 -0.389875
Cl26  Cl    Cl    0.395885 0.284766 0.021415 -0.321336
Cl27  Cl    Cl    0.120389 0.080409 0.415919 -0.401746
Cl28  Cl    Cl    0.938504 0.136713 0.393848 -0.383092
Cl29  Cl    Cl    0.879611 0.919592 0.415914 -0.401743
Cl30  Cl    Cl    0.061497 0.863287 0.393848 -0.383090
Cl31  Cl    Cl    0.863286 0.061494 0.606156 -0.383088
Cl32  Cl    Cl    0.080408 0.120389 0.584083 -0.401745
Cl33  Cl    Cl    0.136713 0.938503 0.606150 -0.383091
Cl34  Cl    Cl    0.928953 0.717985 0.631588 -0.426241
Cl35  Cl    Cl    0.919591 0.879611 0.584081 -0.401749
Cl36  Cl    Cl    0.620389 0.580409 0.915919 -0.401746
Cl37  Cl    Cl    0.438504 0.636713 0.893848 -0.383092
Cl38  Cl    Cl    0.379611 0.419592 0.915915 -0.401742
Cl39  Cl    Cl    0.561499 0.363287 0.893852 -0.383092
Cl40  Cl    Cl    0.363286 0.561495 0.106154 -0.383090
Cl41  Cl    Cl    0.580408 0.620390 0.084084 -0.401745
Cl42  Cl    Cl    0.636713 0.438503 0.106150 -0.383090
Cl43  Cl    Cl    0.419590 0.379611 0.084079 -0.401749
Cl44  Cl    Cl    0.717984 0.928959 0.368403 -0.426243
Cl45  Cl    Cl    0.914333 0.266507 0.516129 -0.425719
Cl46  Cl    Cl    0.282015 0.071049 0.368414 -0.426241
Cl47  Cl    Cl    0.085667 0.733493 0.516127 -0.425716
Cl48  Cl    Cl    0.766507 0.414333 0.983868 -0.425716
H1    H     H_    0.356537 0.931935 0.512571 0.214691
H2    H     H_    0.565341 0.865493 0.065345 0.210453
H3    H     H_    0.143463 0.568064 0.012576 0.214691
H4    H     H_    0.434657 0.134507 0.065340 0.210454
H5    H     H_    0.134507 0.434660 0.934652 0.210452
H6    H     H_    0.431936 0.856537 0.987427 0.214691
H7    H     H_    0.865493 0.565341 0.934656 0.210453
H8    H     H_    0.568065 0.143463 0.987433 0.214692
H9    H     H_    0.065341 0.365493 0.565345 0.210453
H10   H     H_    0.643463 0.068064 0.512580 0.214691
H11   H     H_    0.934659 0.634507 0.565347 0.210452
H12   H     H_    0.634507 0.934661 0.434647 0.210450
H13   H     H_    0.931935 0.356537 0.487428 0.214691
H14   H     H_    0.365493 0.065341 0.434655 0.210452
H15   H     H_    0.068065 0.643463 0.487425 0.214691
H16   H     H_    0.856537 0.431935 0.012571 0.214692
O1    O     O_R   0.434530 0.036970 0.500000 -0.612662
O2    O     O_R   0.463030 0.934530 0.000000 -0.613637
O3    O     O_R   0.065470 0.463030 0.000000 -0.612661
O4    O     O_R   0.536970 0.065470 0.000000 -0.613637
O5    O     O_R   0.065470 0.536970 0.000000 -0.613638
O6    O     O_R   0.536970 0.934530 0.000000 -0.612662
O7    O     O_R   0.934530 0.463030 0.000000 -0.613637
O8    O     O_R   0.463030 0.065470 0.000000 -0.612664
O9    O     O_R   0.500010 0.036970 0.392670 -0.608154
O10   O     O_R   0.963030 0.500010 0.392670 -0.603098
O11   O     O_R   0.499990 0.963030 0.392670 -0.608155
O12   O     O_R   0.963030 0.434530 0.500000 -0.613637
O13   O     O_R   0.036970 0.499990 0.392670 -0.603098
O14   O     O_R   0.499990 0.036970 0.607330 -0.603098
O15   O     O_R   0.036970 0.500010 0.607330 -0.608154
O16   O     O_R   0.500010 0.963030 0.607330 -0.603097
O17   O     O_R   0.963030 0.499990 0.607330 -0.608155
O18   O     O_R   0.000010 0.536970 0.892670 -0.608154
O19   O     O_R   0.463030 0.000010 0.892670 -0.603098
O20   O     O_R   0.999990 0.463030 0.892670 -0.608155
O21   O     O_R   0.536970 0.999990 0.892670 -0.603098
O22   O     O_R   0.999990 0.536970 0.107330 -0.603098
O23   O     O_R   0.565470 0.963030 0.500000 -0.612661
O24   O     O_R   0.536970 0.000010 0.107330 -0.608154
O25   O     O_R   0.000010 0.463030 0.107330 -0.603097
O26   O     O_R   0.463030 0.999990 0.107330 -0.608155
O27   O     O_R   0.999990 0.934550 0.439420 -0.575563
O28   O     O_R   0.065450 0.999990 0.439420 -0.584122
O29   O     O_R   0.000010 0.065450 0.439420 -0.575562
O30   O     O_R   0.934550 0.000010 0.439420 -0.584121
O31   O     O_R   0.000010 0.934550 0.560580 -0.584121
O32   O     O_R   0.934550 0.999990 0.560580 -0.575562
O33   O     O_R   0.999990 0.065450 0.560580 -0.584121
O34   O     O_R   0.036970 0.565470 0.500000 -0.613638
O35   O     O_R   0.065450 0.000010 0.560580 -0.575563
O36   O     O_R   0.499990 0.434550 0.939420 -0.575564
O37   O     O_R   0.565450 0.499990 0.939420 -0.584122
O38   O     O_R   0.500010 0.565450 0.939420 -0.575563
O39   O     O_R   0.434550 0.500010 0.939420 -0.584121
O40   O     O_R   0.500010 0.434550 0.060580 -0.584122
O41   O     O_R   0.434550 0.499990 0.060580 -0.575563
O42   O     O_R   0.499990 0.565450 0.060580 -0.584121
O43   O     O_R   0.565450 0.500010 0.060580 -0.575563
O44   O     O_R   0.565470 0.036970 0.500000 -0.613638
O45   O     O_R   0.036970 0.434530 0.500000 -0.612663
O46   O     O_R   0.434530 0.963030 0.500000 -0.613638
O47   O     O_R   0.963030 0.565470 0.500000 -0.612662
O48   O     O_R   0.934530 0.536970 0.000000 -0.612663
Zn1   Zn    Zn3+2 0.500000 0.049360 0.500000 1.074217
Zn2   Zn    Zn3+2 0.000000 1.000000 0.580910 1.199870
Zn3   Zn    Zn3+2 0.500000 0.500000 0.919090 1.199869
Zn4   Zn    Zn3+2 0.500000 0.500000 0.080910 1.199869
Zn5   Zn    Zn3+2 0.950640 0.500000 0.500000 1.074218
Zn6   Zn    Zn3+2 0.500000 0.950640 0.500000 1.074218
Zn7   Zn    Zn3+2 0.049360 0.500000 0.500000 1.074218
Zn8   Zn    Zn3+2 1.000000 0.549360 0.000000 1.074218
Zn9   Zn    Zn3+2 0.450640 0.000000 0.000000 1.074218
Zn10  Zn    Zn3+2 1.000000 0.450640 0.000000 1.074218
Zn11  Zn    Zn3+2 0.549360 0.000000 0.000000 1.074220
Zn12  Zn    Zn3+2 0.000000 1.000000 0.419090 1.199870

loop_
_geom_bond_atom_site_label_1
_geom_bond_atom_site_label_2
_ccdc_geom_bond_type
C61   C70   A    
C7    C116  A    
C65   C92   S    
C94   O32   A    
C29   C63   S    
C18   C75   S    
C31   C85   S    
C73   O1    A    
C5    C114  A    
C35   C53   A    
C120  Cl3   S    
C84   C102  S    
C87   O20   A    
C45   C62   A    
C29   C112  A    
C50   C68   A    
C33   C107  S    
C86   O17   A    
O18   Zn8   S    
C7    H15   S    
C68   C91   S    
O35   Zn2   S    
C90   O24   A    
C55   C68   A    
O34   Zn7   S    
C54   C65   A    
C50   Cl30  S    
O36   Zn3   S    
C12   C23   A    
C34   C51   A    
C60   Cl40  S    
C79   O2    A    
C20   C77   S    
C102  C105  T    
C128  H10   S    
C10   H3    S    
C13   Cl11  S    
C19   C76   S    
C40   C96   A    
C22   C79   S    
C115  Cl46  S    
O10   Zn5   S    
C82   O11   A    
O37   Zn3   S    
C17   C126  A    
C57   Cl37  S    
C11   C25   A    
C2    C41   A    
C39   C57   A    
O3    Zn10  S    
C19   C128  A    
C101  C106  T    
C119  Cl2   S    
O9    Zn1   S    
O45   Zn7   S    
C126  H1    S    
C92   O28   A    
C42   Cl21  S    
C84   O16   A    
C95   O36   A    
C38   Cl18  S    
O38   Zn3   S    
O41   Zn4   S    
C37   C63   A    
C98   O38   A    
C4    C19   A    
O6    Zn11  S    
C47   C118  A    
C97   O37   A    
C92   O35   A    
C30   C74   S    
C88   O19   A    
C15   H7    S    
C89   C106  S    
C67   C94   S    
C70   C98   S    
C69   C97   S    
C57   C70   A    
C118  Cl9   S    
C83   C101  S    
C42   C107  A    
C24   Cl13  S    
O12   Zn5   S    
C25   C81   S    
C110  C127  A    
C81   O8    A    
C48   Cl28  S    
C77   O34   A    
C16   C125  A    
C79   O6    A    
C33   C121  A    
C72   C95   S    
C49   Cl29  S    
C11   C121  A    
C45   Cl25  S    
C82   C100  S    
C32   C120  A    
C83   O10   A    
C58   Cl38  S    
C86   C103  S    
C125  Cl8   S    
C14   H6    S    
C8    C117  A    
C43   C96   A    
C113  Cl44  S    
C114  Cl45  S    
C28   C111  A    
C24   C50   A    
C62   Cl42  S    
C44   C61   A    
C100  C108  T    
C40   C58   A    
C15   C124  A    
C40   Cl20  S    
C123  Cl6   S    
C2    Cl10  S    
C32   C122  A    
C4    C113  A    
C26   C115  A    
C36   C54   A    
C95   O40   A    
C27   C110  A    
C88   O21   A    
C17   C73   S    
C9    C22   A    
C5    C18   A    
C60   C71   A    
C2    C48   A    
O33   Zn2   S    
C71   C99   S    
C7    C20   A    
C62   C69   A    
C46   C64   A    
C45   C74   A    
C87   O18   A    
C4    H12   S    
O22   Zn8   S    
O44   Zn1   S    
C21   C78   S    
O39   Zn3   S    
C122  Cl5   S    
C93   O33   A    
C18   C127  A    
C13   C52   A    
C23   C80   S    
C27   C41   S    
O7    Zn10  S    
C12   H5    S    
C98   O42   A    
O29   Zn12  S    
C3    C112  A    
C75   O12   A    
C46   C107  A    
C6    H14   S    
C33   C125  A    
C8    C21   A    
O2    Zn9   S    
C38   C56   A    
C3    C20   A    
C76   O44   A    
C51   C67   A    
O19   Zn9   S    
C53   C66   A    
C55   Cl35  S    
C26   C109  A    
C31   C119  A    
C43   Cl22  S    
C43   C60   A    
C66   C93   S    
C13   C49   A    
C46   Cl26  S    
C32   C96   S    
C29   C116  A    
C30   C124  A    
C111  Cl23  S    
C24   C63   A    
C90   C108  S    
O27   Zn12  S    
O28   Zn12  S    
O8    Zn9   S    
C1    C26   S    
C9    C119  A    
O26   Zn9   S    
C75   O45   A    
O14   Zn1   S    
C61   Cl41  S    
C78   O7    A    
C39   C85   A    
C121  Cl4   S    
C91   O31   A    
C44   C85   A    
C6    C17   A    
O17   Zn5   S    
C103  C104  T    
O20   Zn10  S    
C59   Cl39  S    
C117  Cl48  S    
O48   Zn8   S    
C38   C74   A    
C16   C25   A    
C80   O3    A    
C56   Cl36  S    
C34   Cl14  S    
C53   Cl32  S    
C78   O48   A    
C14   C123  A    
C49   C67   A    
C116  Cl47  S    
O40   Zn4   S    
O1    Zn1   S    
C124  Cl7   S    
O13   Zn7   S    
O15   Zn7   S    
C86   O15   A    
C82   O9    A    
C99   O39   A    
C5    H13   S    
C16   H8    S    
C30   C117  A    
C10   C23   A    
C112  Cl34  S    
C59   C72   A    
O5    Zn8   S    
C34   C52   A    
C44   Cl24  S    
O47   Zn5   S    
C37   Cl17  S    
C6    C115  A    
C14   C22   A    
C64   Cl43  S    
C110  Cl12  S    
C36   Cl16  S    
C31   C123  A    
C73   O46   A    
C83   O13   A    
C81   O4    A    
C109  Cl1   S    
C88   C105  S    
C28   C52   S    
C76   O23   A    
O32   Zn2   S    
O11   Zn6   S    
C47   Cl27  S    
C8    H16   S    
O24   Zn11  S    
C99   O41   A    
C80   O5    A    
O4    Zn11  S    
C51   Cl31  S    
C127  H9    S    
O21   Zn11  S    
C1    C118  A    
C64   C72   A    
C54   Cl33  S    
C91   O27   A    
C35   C41   A    
O16   Zn6   S    
O43   Zn4   S    
C90   O26   A    
C10   C120  A    
C28   C113  A    
O46   Zn6   S    
C89   O25   A    
C87   C104  S    
C37   C55   A    
C27   C114  A    
C84   O14   A    
C109  C126  A    
C15   C21   A    
C12   C122  A    
O23   Zn6   S    
C56   C69   A    
O25   Zn10  S    
C42   C59   A    
C39   Cl19  S    
C111  C128  A    
C94   O30   A    
C58   C71   A    
C89   O22   A    
C93   O29   A    
C11   H4    S    
O31   Zn2   S    
C48   C66   A    
C3    H11   S    
C47   C65   A    
C9    H2    S    
C77   O47   A    
C1    C36   A    
C35   Cl15  S    
O42   Zn4   S    
C97   O43   A    
O30   Zn12  S    
