data_mof_unit_14598.cif
_audit_creation_date              2012-10-26T20:22:31-0400
_audit_creation_method            fapswitch 2.2
_symmetry_space_group_name_H-M    P1
_symmetry_Int_Tables_number       1
_space_group_crystal_system       triclinic
_cell_length_a                    9.520395
_cell_length_b                    10.795526
_cell_length_c                    17.243469
_cell_angle_alpha                 90.158508
_cell_angle_beta                  85.171291
_cell_angle_gamma                 89.867027
_cell_volume                      1765.94100328

loop_
_atom_site_label
_atom_site_type_symbol
_atom_type_description
_atom_site_fract_x
_atom_site_fract_y
_atom_site_fract_z
_atom_type_partial_charge
C1    C     C_R   0.499719 0.737633 0.500690 0.577139
C2    C     C_R   0.082240 0.427272 0.449047 0.019659
C3    C     C_R   0.066433 0.571960 0.551347 0.017166
C4    C     C_R   0.933458 0.427425 0.448981 0.017417
C5    C     C_R   0.480624 0.499121 0.650021 0.572911
C6    C     C_R   0.519502 0.499267 0.350078 0.551690
C7    C     C_R   0.467697 0.500647 0.734809 0.059264
C8    C     C_R   0.534427 0.503330 0.265531 0.031987
C9    C     C_R   0.559647 0.430331 0.776817 0.083551
C10   C     C_R   0.467400 0.415917 0.220319 0.084097
C11   C     C_R   0.550594 0.439793 0.857720 -0.090780
C12   C     C_R   0.500166 0.262498 0.499868 0.616127
C13   C     C_R   0.485262 0.423906 0.139540 -0.052612
C14   C     C_R   0.454523 0.522203 0.896965 0.069396
C15   C     C_R   0.566088 0.519457 0.103558 -0.000078
C16   C     C_R   0.357614 0.586037 0.855001 -0.122401
C17   C     C_R   0.634896 0.604154 0.148643 -0.160990
C18   C     C_R   0.364118 0.575237 0.774333 -0.177356
C19   C     C_R   0.620232 0.595311 0.229296 -0.162857
C20   C     C_2   0.451417 0.537624 0.982177 0.262140
C21   C     C_2   0.573037 0.533881 0.018112 0.236621
C22   C     C_3   0.808843 0.478026 0.997417 -0.025087
C23   C     C_R   0.588257 0.934467 0.444814 0.070619
C24   C     C_3   0.928462 0.474658 0.933056 -0.367118
C25   C     C_3   0.292528 0.661319 0.053333 -0.016076
C26   C     C_3   0.139074 0.669998 0.085381 -0.373359
C27   C     C_R   0.412681 0.066116 0.556510 0.091304
C28   C     C_R   0.588975 0.064287 0.444628 0.051181
C29   C     C_R   0.411889 0.936982 0.557061 0.052014
C30   C     C_R   0.500576 0.128775 0.500267 0.050695
C31   C     C_R   0.499392 0.871618 0.500813 0.030792
C32   C     C_R   0.917652 0.572194 0.551270 0.024124
Cu1   Cu    Cu3+1 0.359340 0.499980 0.500000 0.947539
Cu2   Cu    Cu3+1 0.640660 0.500020 0.500000 0.982603
H1    H     H_    0.673093 0.662158 0.263631 0.137014
H2    H     H_    0.883681 0.369100 0.408210 0.123060
H3    H     H_    0.760709 0.373882 0.751637 0.227473
H4    H     H_    0.640702 0.258440 0.759283 0.220595
H5    H     H_    0.443665 0.268640 0.292743 0.234949
H6    H     H_    0.296153 0.355565 0.286729 0.241514
H7    H     H_    0.771200 0.381208 0.007715 0.117856
H8    H     H_    0.851365 0.514405 0.051003 0.144968
H9    H     H_    0.967232 0.569894 0.919962 0.162740
H10   H     H_    0.016899 0.417744 0.951660 0.129144
H11   H     H_    0.891028 0.433517 0.879438 0.142836
H12   H     H_    0.291175 0.628253 0.742545 0.115861
H13   H     H_    0.311483 0.732761 0.007136 0.117616
H14   H     H_    0.358937 0.683006 0.101536 0.147390
H15   H     H_    0.116116 0.599033 0.131200 0.165386
H16   H     H_    0.117260 0.763270 0.110980 0.099354
H17   H     H_    0.069249 0.654970 0.037898 0.149143
H18   H     H_    0.646486 0.889714 0.332147 0.217016
H19   H     H_    0.779947 0.888626 0.391751 0.232703
H20   H     H_    0.355560 0.109264 0.669230 0.248104
H21   H     H_    0.221612 0.109808 0.610366 0.251633
H22   H     H_    0.648105 0.107034 0.331926 0.221954
H23   H     H_    0.278844 0.646298 0.884113 0.126752
H24   H     H_    0.781251 0.107471 0.391747 0.229822
H25   H     H_    0.387407 0.812238 0.645254 0.225635
H26   H     H_    0.246841 0.825390 0.590839 0.243729
H27   H     H_    0.697299 0.678414 0.121411 0.133702
H28   H     H_    0.434203 0.356633 0.104625 0.151999
H29   H     H_    0.618865 0.382353 0.889682 0.120794
H30   H     H_    0.855274 0.630189 0.592288 0.113842
H31   H     H_    0.144442 0.368437 0.408555 0.103473
H32   H     H_    0.116021 0.629247 0.592663 0.097697
N1    N     N_R   0.147930 0.499970 0.499980 -0.223632
N2    N     N_R   0.852070 0.500030 0.500020 -0.226895
N3    N     N_3   0.660237 0.347676 0.737620 -0.605076
N4    N     N_3   0.383670 0.317157 0.254744 -0.643855
N5    N     N_3   0.674382 0.865403 0.387435 -0.619544
N6    N     N_3   0.326880 0.134664 0.614245 -0.593747
N7    N     N_3   0.675924 0.131720 0.387226 -0.637666
N8    N     N_3   0.325062 0.874366 0.616719 -0.649636
O1    O     O_R   0.381260 0.680340 0.500000 -0.517721
O2    O     O_3   0.320307 0.540241 0.024268 -0.591264
O3    O     O_R   0.618740 0.319660 0.500000 -0.475518
O4    O     O_R   0.618830 0.680370 0.500010 -0.482549
O5    O     O_R   0.381170 0.319630 0.499990 -0.488904
O6    O     O_R   0.367440 0.500000 0.613600 -0.513539
O7    O     O_R   0.632560 0.500000 0.386400 -0.498465
O8    O     O_R   0.605010 0.500030 0.613600 -0.480925
O9    O     O_R   0.394990 0.499970 0.386400 -0.512373
O10   O     O_3   0.700564 0.556341 0.974459 -0.585764

loop_
_geom_bond_atom_site_label_1
_geom_bond_atom_site_label_2
_ccdc_geom_bond_type
C4    H2    S    
H3    N3    S    
C27   C29   A    
C2    H31   S    
H6    N4    S    
C24   H11   S    
C9    N3    S    
C11   H29   S    
C26   H16   S    
Cu2   O3    S    
C11   C14   A    
C22   H7    S    
C12   O5    A    
C1    C31   S    
C20   O2    S    
C7    C9    A    
C17   H27   S    
Cu1   O1    S    
C13   H28   S    
C6    O9    A    
Cu2   O7    S    
C25   H13   S    
H21   N6    S    
C32   N2    A    
H4    N3    S    
C6    O7    A    
C27   C30   A    
C1    O4    A    
C28   N7    S    
C18   H12   S    
C8    C19   A    
C1    O1    A    
C23   N5    S    
C32   H30   S    
C2    N1    A    
C26   H15   S    
Cu2   N2    S    
C5    C7    S    
Cu1   O5    S    
C6    C8    S    
C29   N8    S    
C25   C26   S    
C22   O10   S    
C2    C4    A    
C14   C20   S    
C9    C11   A    
H25   N8    S    
C21   O10   S    
C7    C18   A    
C12   O3    A    
Cu1   Cu2   S    
C23   C28   A    
C5    O6    A    
Cu1   O9    S    
C25   H14   S    
C10   N4    S    
C16   C18   A    
C13   C15   A    
C24   H10   S    
C14   C16   A    
C3    H32   S    
H19   N5    S    
Cu1   N1    S    
C4    N2    A    
C15   C17   A    
H22   N7    S    
C12   C30   S    
C3    N1    A    
C10   C13   A    
Cu1   O6    S    
C25   O2    S    
C28   C30   A    
C29   C31   A    
H18   N5    S    
C19   H1    S    
C26   H17   S    
Cu2   O4    S    
C5    O8    A    
C22   H8    S    
H26   N8    S    
C17   C19   A    
H5    N4    S    
C22   C24   S    
C16   H23   S    
C3    C32   A    
C15   C21   S    
H20   N6    S    
C20   C21   D    
C8    C10   A    
C24   H9    S    
Cu2   O8    S    
C27   N6    S    
H24   N7    S    
C23   C31   A    
