data_mof_unit_5079.cif
_audit_creation_date              2012-12-10T17:39:19-0500
_audit_creation_method            fapswitch 2.2
_symmetry_space_group_name_H-M    P1
_symmetry_Int_Tables_number       1
_space_group_crystal_system       triclinic
_cell_length_a                    12.306716
_cell_length_b                    13.148984
_cell_length_c                    27.791445
_cell_angle_alpha                 77.716578
_cell_angle_beta                  101.147222
_cell_angle_gamma                 116.535214
_cell_volume                      3906.45867283

loop_
_atom_site_label
_atom_site_type_symbol
_atom_type_description
_atom_site_fract_x
_atom_site_fract_y
_atom_site_fract_z
_atom_type_partial_charge
C1    C     C_R   0.854880 0.286508 0.503885 0.776584
C2    C     C_R   0.881430 0.471036 0.712075 0.332823
C3    C     C_R   0.988424 0.500085 0.745355 0.243428
C4    C     C_R   0.986271 0.499288 0.896957 -0.041674
C5    C     C_R   0.952145 0.395803 0.878761 -0.029544
C6    C     C_R   0.919940 0.293022 0.911453 -0.130279
C7    C     C_R   0.018759 0.602675 0.863726 -0.030768
C8    C     C_R   0.999635 0.502750 0.645117 -0.151997
C9    C     C_R   0.001047 0.500651 0.354612 -0.085257
C10   C     C_R   0.949931 0.393902 0.032024 0.042490
C11   C     C_R   0.035686 0.605942 0.017885 0.043674
C12   C     C_R   0.000793 0.501810 0.592319 0.853401
C13   C     C_R   0.994338 0.500096 0.050323 0.073991
C14   C     C_R   0.904158 0.290924 0.065587 -0.192182
C15   C     C_R   0.905998 0.292378 0.115560 -0.130850
C16   C     C_R   0.953089 0.396311 0.134149 -0.024995
C17   C     C_R   0.997391 0.500465 0.101696 -0.040932
C18   C     C_R   0.044669 0.604997 0.120745 -0.023032
C19   C     C_R   0.046437 0.603427 0.171538 0.586414
C20   C     C_R   0.955716 0.398603 0.184636 0.578601
C21   C     C_R   0.909037 0.518253 0.269372 0.309858
C22   C     C_R   0.909566 0.517979 0.319615 -0.251576
C23   C     C_R   0.145100 0.713604 0.492692 0.812234
C24   C     C_R   0.092375 0.483724 0.338508 -0.198895
C25   C     C_R   0.092089 0.484153 0.288282 -0.145745
C26   C     C_R   0.000802 0.501465 0.253595 0.302593
C27   C     C_R   0.952057 0.393951 0.981050 0.043378
C28   C     C_R   0.988457 0.499471 0.948281 0.074936
C29   C     C_R   0.027397 0.605234 0.966223 0.041640
C30   C     C_R   0.919932 0.291857 0.961537 -0.193245
C31   C     C_R   0.052013 0.705493 0.881403 -0.126798
C32   C     C_R   0.085211 0.709308 0.038538 -0.194484
C33   C     C_R   0.089310 0.708574 0.088887 -0.132398
C34   C     C_R   0.000561 0.500266 0.407573 0.809360
C35   C     C_R   0.056069 0.706977 0.931537 -0.191969
C36   C     C_R   0.272493 0.023712 0.435578 -0.130155
C37   C     C_R   0.227752 0.835105 0.482318 -0.047294
C38   C     C_R   0.815675 0.083419 0.532873 -0.174488
C39   C     C_R   0.737056 0.967822 0.540839 -0.121009
C40   C     C_R   0.613508 0.931017 0.523835 -0.141185
C41   C     C_R   0.566292 0.009649 0.496615 0.080377
C42   C     C_R   0.649660 0.124721 0.483153 0.028134
C43   C     C_R   0.439352 0.977486 0.481897 0.031288
C44   C     C_R   0.398523 0.056583 0.449776 0.092573
C45   C     C_R   0.952545 0.397814 0.828090 0.595216
C46   C     C_R   0.484642 0.165580 0.431862 0.225394
C47   C     C_R   0.608059 0.197367 0.447602 -0.211932
C48   C     C_R   0.351439 0.869070 0.499075 -0.208678
C49   C     C_R   0.187898 0.913365 0.451342 -0.204176
C50   C     C_R   0.772946 0.163398 0.505195 -0.082954
C51   C     C_R   0.347401 0.329528 0.579307 -0.261337
C52   C     C_R   0.759260 0.643986 0.432520 -0.044720
C53   C     C_R   0.659890 0.672857 0.415923 0.419742
C54   C     C_R   0.558015 0.619663 0.442355 -0.227833
C55   C     C_R   0.550910 0.533689 0.483444 -0.065737
C56   C     C_R   0.017107 0.600740 0.813288 0.583259
C57   C     C_R   0.652807 0.505003 0.497417 0.289258
C58   C     C_R   0.446837 0.474882 0.511088 0.002549
C59   C     C_R   0.447107 0.388617 0.551571 0.171965
C60   C     C_R   0.546905 0.361707 0.564313 -0.252946
C61   C     C_R   0.647340 0.418712 0.537957 -0.158512
C62   C     C_R   0.341667 0.497361 0.500620 0.035006
C63   C     C_R   0.247251 0.355839 0.567102 0.114953
C64   C     C_R   0.100644 0.531561 0.728512 -0.175760
C65   C     C_R   0.107532 0.533637 0.678757 0.247355
C66   C     C_R   0.887452 0.472551 0.662335 -0.292852
Cu1   Cu    Cu3+1 0.098270 0.475420 0.511360 0.973513
Cu2   Cu    Cu3+1 0.901730 0.524580 0.488640 0.938623
H1    H     H_    0.803824 0.449067 0.637216 0.184756
H2    H     H_    0.183105 0.555466 0.754340 0.183379
H3    H     H_    0.075457 0.785902 0.856479 0.193099
H4    H     H_    0.124109 0.793005 0.016997 0.143955
H5    H     H_    0.164043 0.470301 0.364630 0.176923
H6    H     H_    0.127787 0.790135 0.102741 0.189761
H7    H     H_    0.162880 0.471073 0.276207 0.164068
H8    H     H_    0.080105 0.789632 0.941658 0.145356
H9    H     H_    0.092037 0.888152 0.437925 0.151006
H10   H     H_    0.238272 0.081504 0.411263 0.187926
H11   H     H_    0.376622 0.808344 0.525582 0.164370
H12   H     H_    0.909818 0.110461 0.549291 0.156956
H13   H     H_    0.558276 0.840013 0.531584 0.136755
H14   H     H_    0.771371 0.906603 0.561678 0.157129
H15   H     H_    0.670886 0.279121 0.430322 0.203689
H16   H     H_    0.169877 0.310625 0.588329 0.134159
H17   H     H_    0.547794 0.295921 0.595266 0.168617
H18   H     H_    0.347043 0.263475 0.610271 0.159060
H19   H     H_    0.333387 0.561401 0.470630 0.121241
H20   H     H_    0.841095 0.687077 0.414035 0.133850
H21   H     H_    0.894775 0.212465 0.898483 0.190356
H22   H     H_    0.485181 0.646573 0.429459 0.157097
H23   H     H_    0.718976 0.392035 0.551000 0.198876
H24   H     H_    0.837986 0.530882 0.331148 0.182202
H25   H     H_    0.869851 0.211084 0.139637 0.189105
H26   H     H_    0.863756 0.206967 0.054408 0.144504
H27   H     H_    0.896568 0.209174 0.984098 0.143619
N1    N     N_R   0.984694 0.499327 0.796629 -0.449934
N2    N     N_R   0.001389 0.501178 0.202139 -0.456833
N3    N     N_R   0.246290 0.438210 0.528570 -0.183743
N4    N     N_R   0.754320 0.561170 0.471730 -0.224527
O1    O     O_R   0.972510 0.318140 0.514280 -0.583955
O2    O     O_2   0.912367 0.299280 0.215972 -0.523232
O3    O     O_2   0.047892 0.699304 0.781116 -0.514574
O4    O     O_2   0.092314 0.703100 0.190242 -0.521667
O5    O     O_R   0.806530 0.359640 0.495100 -0.603218
O6    O     O_R   0.082990 0.479270 0.579320 -0.538738
O7    O     O_R   0.917010 0.520770 0.560140 -0.601263
O8    O     O_R   0.193470 0.640360 0.504900 -0.577596
O9    O     O_R   0.027490 0.681860 0.485720 -0.585673
O10   O     O_R   0.082990 0.479230 0.439860 -0.586988
O11   O     O_R   0.917010 0.520730 0.420680 -0.591452
O12   O     O_2   0.921710 0.299377 0.810377 -0.512114
Br1   Br    Br    0.440643 0.276998 0.386168 -0.534631
Br2   Br    Br    0.726306 0.430344 0.733379 -0.439599
O13   O     O_3   0.662706 0.758994 0.376607 -0.603338
C67   C     C_3   0.701490 0.746683 0.334179 0.071772
H28   H     H_    0.632602 0.749604 0.302171 0.186887
H29   H     H_    0.706336 0.662976 0.336360 0.138395
C68   C     C_3   0.824377 0.847369 0.323448 -0.383457
H30   H     H_    0.812805 0.928722 0.314677 0.250886
H31   H     H_    0.892645 0.853769 0.356612 0.209772
C69   C     C_3   0.873058 0.833333 0.279941 -0.799255
H32   H     H_    0.890083 0.754887 0.288837 0.266921
H33   H     H_    0.960543 0.908862 0.272386 0.265831
H34   H     H_    0.806559 0.827026 0.246148 0.271615
Br3   Br    Br    0.780870 0.539803 0.223275 -0.480088
Br4   Br    Br    0.267852 0.586429 0.659278 -0.464438

loop_
_geom_bond_atom_site_label_1
_geom_bond_atom_site_label_2
_ccdc_geom_bond_type
C10   C27   A    
C58   C62   A    
C21   C26   A    
C8    C66   A    
C46   Br1   S    
C41   C42   A    
C54   C55   A    
O13   C67   S    
C19   N2    A    
C32   H4    S    
C53   C54   A    
C52   C53   A    
C48   H11   S    
C28   C29   A    
C54   H22   S    
C63   N3    A    
C5    C6    A    
C2    Br2   S    
C9    C22   A    
C66   H1    S    
C15   C16   A    
C57   N4    A    
C51   H18   S    
C18   C19   A    
C68   H30   S    
C69   H34   S    
Cu1   N3    S    
C62   N3    A    
C19   O4    S    
Cu1   O10   S    
C20   N2    A    
C16   C17   A    
C67   H29   S    
C3    N1    S    
C47   H15   S    
C43   C48   A    
C16   C20   A    
C31   H3    S    
C59   C60   A    
C21   C22   A    
C27   C30   A    
C41   C43   A    
Cu2   O7    S    
C7    C56   A    
C4    C7    A    
C1    O1    A    
C4    C28   A    
C44   C46   A    
C38   C39   A    
C35   H8    S    
C7    C31   A    
Cu1   Cu2   S    
C52   H20   S    
C51   C63   A    
C24   C25   A    
C10   C14   A    
C39   C40   A    
Cu1   O6    S    
C20   O2    S    
C58   C59   A    
C23   C37   S    
C5    C45   A    
C60   C61   A    
C25   H7    S    
C68   C69   S    
C43   C44   A    
C30   H27   S    
C37   C49   A    
C8    C12   S    
C67   C68   S    
C23   O8    A    
C17   C18   A    
Cu2   O11   S    
C37   C48   A    
C1    O5    A    
C69   H32   S    
Cu1   O1    S    
C42   C50   A    
C40   C41   A    
C6    C30   A    
C11   C32   A    
C64   H2    S    
C55   C57   A    
C9    C34   S    
C34   O11   A    
C31   C35   A    
C36   C44   A    
C51   C59   A    
C21   Br3   S    
C53   O13   S    
C1    C50   S    
C56   N1    A    
C46   C47   A    
C40   H13   S    
Cu2   O5    S    
C39   H14   S    
C4    C5    A    
C2    C66   A    
C10   C13   A    
C15   H25   S    
C60   H17   S    
C45   O12   S    
C9    C24   A    
C57   C61   A    
C38   C50   A    
C6    H21   S    
C62   H19   S    
C29   C35   A    
C52   N4    A    
C13   C17   A    
C63   H16   S    
C65   Br4   S    
C2    C3    A    
C25   C26   A    
Cu2   N4    S    
C56   O3    S    
C36   H10   S    
C32   C33   A    
C12   O7    A    
C11   C13   A    
Cu1   O8    S    
C12   O6    A    
C38   H12   S    
C23   O9    A    
C64   C65   A    
C49   H9    S    
C42   C47   A    
C3    C64   A    
C24   H5    S    
C18   C33   A    
C68   H31   S    
C69   H33   S    
C26   N2    S    
C61   H23   S    
C33   H6    S    
C8    C65   A    
C11   C29   A    
C55   C58   A    
C27   C28   A    
C34   O10   A    
C22   H24   S    
C14   C15   A    
Cu2   O9    S    
C45   N1    A    
C14   H26   S    
C36   C49   A    
C67   H28   S    
