data_mof_unit_11951.cif
_audit_creation_date              2012-12-10T18:47:03-0500
_audit_creation_method            fapswitch 2.2
_symmetry_space_group_name_H-M    P1
_symmetry_Int_Tables_number       1
_space_group_crystal_system       triclinic
_cell_length_a                    10.881673
_cell_length_b                    9.797392
_cell_length_c                    15.006198
_cell_angle_alpha                 90.005294
_cell_angle_beta                  89.729205
_cell_angle_gamma                 90.000614
_cell_volume                      1599.82314606

loop_
_atom_site_label
_atom_site_type_symbol
_atom_type_description
_atom_site_fract_x
_atom_site_fract_y
_atom_site_fract_z
_atom_type_partial_charge
C1    C     C_R   0.259602 0.501874 0.494365 0.885770
C2    C     C_R   0.740325 0.501916 0.505862 0.885769
C3    C     C_R   0.496473 0.749102 0.046306 -0.222055
C4    C     C_R   0.505910 0.250617 0.953662 -0.223049
C5    C     C_R   0.059250 0.387779 0.484154 0.052984
C6    C     C_R   0.935580 0.639626 0.505637 0.044614
C7    C     C_R   0.940455 0.388136 0.518014 0.053378
C8    C     C_R   0.064291 0.639546 0.495200 0.044497
C9    C     C_R   0.873455 0.510628 0.512814 -0.157568
C10   C     C_R   0.126349 0.510428 0.488193 -0.157763
C11   C     C_R   0.524658 0.072041 0.576200 -0.108118
C12   C     C_R   0.474575 0.927989 0.423907 -0.093988
C13   C     C_R   0.475237 0.072022 0.423819 -0.108180
C14   C     C_R   0.525313 0.928006 0.576115 -0.094521
C15   C     C_R   0.499623 0.499974 0.326457 0.887006
C16   C     C_R   0.500540 0.499989 0.673539 0.886281
C17   C     C_R   0.504844 0.375581 0.815123 -0.265141
C18   C     C_R   0.497506 0.624194 0.184822 -0.270413
C19   C     C_R   0.501799 0.499929 0.769390 -0.075402
C20   C     C_R   0.499057 0.499874 0.230595 -0.075829
C21   C     C_R   0.499585 0.624239 0.815188 -0.270539
C22   C     C_R   0.500603 0.375492 0.184826 -0.264554
C23   C     C_R   0.499523 0.625163 0.907328 0.122310
C24   C     C_R   0.501683 0.374534 0.092668 0.120494
C25   C     C_R   0.501469 0.499858 0.953645 0.059486
C26   C     C_R   0.500408 0.499835 0.046334 0.059264
C27   C     C_R   0.504273 0.374589 0.907279 0.120636
C28   C     C_R   0.498038 0.625130 0.092681 0.122364
C29   C     C_R   0.497101 0.749116 0.953734 -0.222131
C30   C     C_R   0.504375 0.250585 0.046252 -0.222315
H1    H     H_    0.507104 0.279517 0.779231 0.155204
H2    H     H_    0.496095 0.720303 0.220682 0.151210
H3    H     H_    0.497442 0.720334 0.779350 0.151412
H4    H     H_    0.501541 0.279397 0.220694 0.154969
H5    H     H_    0.495660 0.845684 0.918497 0.138220
H6    H     H_    0.505425 0.154015 0.081495 0.138211
H7    H     H_    0.494663 0.845662 0.081566 0.138137
H8    H     H_    0.508066 0.154073 0.918392 0.138233
H9    H     H_    0.543909 0.126450 0.637135 0.135916
H10   H     H_    0.453800 0.873705 0.363146 0.125846
H11   H     H_    0.455895 0.126417 0.362891 0.136388
H12   H     H_    0.546029 0.873737 0.636888 0.126157
N1    N     N_R   0.500000 0.857200 0.500000 -0.069115
N2    N     N_R   0.500000 0.142800 0.500000 -0.075148
O1    O     O_R   0.316770 0.614620 0.499990 -0.631717
O2    O     O_R   0.683230 0.385380 0.500010 -0.612821
O3    O     O_R   0.683230 0.614620 0.500010 -0.631772
O4    O     O_R   0.316770 0.385380 0.499990 -0.613051
O5    O     O_R   0.499980 0.614680 0.367850 -0.641099
O6    O     O_R   0.500020 0.385320 0.632150 -0.630952
O7    O     O_R   0.500020 0.614680 0.632150 -0.641456
O8    O     O_R   0.499980 0.385320 0.367850 -0.631154
Zn1   Zn    Zn3+2 0.500000 0.653120 0.500000 0.920074
Zn2   Zn    Zn3+2 0.500000 0.346880 0.500000 0.938163
C31   C     C_3   0.106078 0.260596 0.435643 -0.412967
C32   C     C_3   0.145503 0.292132 0.339294 -0.310444
C33   C     C_3   0.171763 0.161226 0.287351 -0.904932
H13   H     H_    0.241583 0.098624 0.322209 0.252433
H14   H     H_    0.086265 0.100303 0.280184 0.261694
H15   H     H_    0.207041 0.187191 0.219890 0.253737
H16   H     H_    0.071111 0.349121 0.304953 0.218586
H17   H     H_    0.229537 0.356299 0.338431 0.223721
H18   H     H_    0.180917 0.209858 0.472494 0.232102
H19   H     H_    0.032058 0.183911 0.431149 0.189994
C34   C     C_3   0.868604 0.778684 0.509742 -0.350369
C35   C     C_3   0.832047 0.826226 0.415190 -0.307117
C36   C     C_3   0.796138 0.976120 0.413718 -0.908647
H20   H     H_    0.728954 0.998635 0.467234 0.279830
H21   H     H_    0.878732 0.039341 0.423832 0.242343
H22   H     H_    0.755317 0.002596 0.348283 0.252870
H23   H     H_    0.909782 0.811311 0.367895 0.200367
H24   H     H_    0.754249 0.765755 0.388882 0.253742
H25   H     H_    0.791235 0.781053 0.557840 0.207806
H26   H     H_    0.923696 0.858424 0.542939 0.184562
C37   C     C_3   0.893360 0.262112 0.567685 -0.413571
C38   C     C_3   0.852518 0.296172 0.663379 -0.310694
C39   C     C_3   0.825587 0.166693 0.716629 -0.904530
H27   H     H_    0.756252 0.103122 0.682003 0.251969
H28   H     H_    0.910992 0.106034 0.725114 0.261868
H29   H     H_    0.789376 0.194479 0.783528 0.253858
H30   H     H_    0.926349 0.354199 0.697627 0.218625
H31   H     H_    0.768422 0.360213 0.662887 0.223232
H32   H     H_    0.819084 0.210167 0.530883 0.231550
H33   H     H_    0.967663 0.185919 0.573651 0.190416
C40   C     C_3   0.131311 0.778586 0.491186 -0.350074
C41   C     C_3   0.168214 0.825678 0.585758 -0.306803
C42   C     C_3   0.203366 0.975767 0.587573 -0.910359
H34   H     H_    0.270565 0.998878 0.534152 0.279957
H35   H     H_    0.120381 0.038484 0.577573 0.242242
H36   H     H_    0.243993 0.002170 0.653089 0.253020
H37   H     H_    0.090785 0.810010 0.633219 0.200712
H38   H     H_    0.246466 0.765493 0.611635 0.253590
H39   H     H_    0.208428 0.781224 0.442887 0.207686
H40   H     H_    0.076153 0.858542 0.458305 0.184856

loop_
_geom_bond_atom_site_label_1
_geom_bond_atom_site_label_2
_ccdc_geom_bond_type
C42   H34   S    
C16   O7    A    
C31   C32   S    
C37   H32   S    
C6    C9    A    
C13   H11   S    
C40   C41   S    
C2    O2    A    
O4    Zn2   S    
O6    Zn2   S    
C23   C29   A    
C3    C28   A    
C19   C21   A    
C24   C26   A    
C12   N1    A    
C41   H37   S    
C11   C14   A    
C37   H33   S    
C33   H14   S    
C21   H3    S    
C34   H25   S    
C32   C33   S    
C8    C40   S    
C3    C29   A    
C40   H39   S    
N1    Zn1   S    
C6    C34   S    
C35   H24   S    
C31   H18   S    
C18   C20   A    
C14   H12   S    
C15   O5    A    
C35   C36   S    
O1    Zn1   S    
O8    Zn2   S    
C39   H28   S    
C15   C20   S    
C22   H4    S    
C36   H20   S    
C17   C27   A    
C18   C28   A    
C38   C39   S    
C38   H31   S    
C5    C7    A    
C41   C42   S    
C33   H15   S    
C6    C8    A    
C25   C26   A    
C39   H27   S    
C34   H26   S    
C36   H21   S    
C12   H10   S    
C37   C38   S    
C40   H40   S    
C35   H23   S    
C31   H19   S    
O2    Zn2   S    
C11   N2    A    
C15   O8    A    
C11   H9    S    
C20   C22   A    
C21   C23   A    
C17   H1    S    
C22   C24   A    
C18   H2    S    
C4    C27   A    
C39   H29   S    
C7    C9    A    
C5    C31   S    
C1    C10   S    
C4    H8    S    
C38   H30   S    
C7    C37   S    
C1    O4    A    
C2    O3    A    
C25   C27   A    
C29   H5    S    
C26   C28   A    
C30   H6    S    
C36   H22   S    
C42   H35   S    
C5    C10   A    
C41   H38   S    
C1    O1    A    
C33   H13   S    
C16   C19   S    
O5    Zn1   S    
O3    Zn1   S    
C17   C19   A    
C32   H17   S    
C23   C25   A    
C16   O6    A    
C24   C30   A    
N2    Zn2   S    
C12   C13   A    
C3    H7    S    
C8    C10   A    
C34   C35   S    
C42   H36   S    
C32   H16   S    
O7    Zn1   S    
C2    C9    S    
C13   N2    A    
C4    C30   A    
C14   N1    A    
