data_mof_unit_60156.cif
_audit_creation_date              2012-12-10T17:40:37-0500
_audit_creation_method            fapswitch 2.2
_symmetry_space_group_name_H-M    P1
_symmetry_Int_Tables_number       1
_space_group_crystal_system       triclinic
_cell_length_a                    30.260937
_cell_length_b                    30.260937
_cell_length_c                    38.578292
_cell_angle_alpha                 89.806169
_cell_angle_beta                  89.806169
_cell_angle_gamma                 89.9044
_cell_volume                      35326.6269431

loop_
_atom_site_label
_atom_site_type_symbol
_atom_type_description
_atom_site_fract_x
_atom_site_fract_y
_atom_site_fract_z
_atom_type_partial_charge
C1    C     C_R   0.499837 0.913186 0.999778 0.955063
C2    C     C_R   0.086814 0.500163 0.000222 0.955063
C3    C     C_R   0.500108 0.086750 0.999723 0.948569
C4    C     C_R   0.913249 0.499892 0.000277 0.948569
C5    C     C_R   0.999837 0.413186 0.499778 0.955064
C6    C     C_R   0.586814 0.000163 0.500222 0.955063
C7    C     C_R   0.000108 0.586750 0.499723 0.948569
C8    C     C_R   0.413249 0.999892 0.500277 0.948569
C9    C     C_R   0.500207 0.634097 0.000227 -0.149336
C10   C     C_R   0.365903 0.499793 0.999773 -0.149335
C11   C     C_R   0.500492 0.365816 0.999975 -0.146478
C12   C     C_R   0.634184 0.499508 0.000025 -0.146478
C13   C     C_R   0.000207 0.134097 0.500227 -0.149335
C14   C     C_R   0.865903 0.999793 0.499773 -0.149335
C15   C     C_R   0.000492 0.865816 0.499975 -0.146478
C16   C     C_R   0.134184 0.999508 0.500025 -0.146478
C17   C     C_R   0.524114 0.702563 0.025776 0.034685
C18   C     C_R   0.297142 0.524259 0.024341 0.035544
C19   C     C_R   0.474999 0.297164 0.024352 0.035519
C20   C     C_R   0.702881 0.473709 0.024216 0.035727
C21   C     C_R   0.526291 0.297119 0.975784 0.035727
C22   C     C_R   0.297437 0.475886 0.974224 0.034685
C23   C     C_R   0.475741 0.702858 0.975659 0.035544
C24   C     C_R   0.702836 0.525001 0.975648 0.035519
C25   C     C_R   0.024114 0.202563 0.525776 0.034684
C26   C     C_R   0.797142 0.024259 0.524341 0.035544
C27   C     C_R   0.974999 0.797164 0.524352 0.035519
C28   C     C_R   0.202880 0.973709 0.524215 0.035727
C29   C     C_R   0.026291 0.797119 0.475784 0.035727
C30   C     C_R   0.797437 0.975886 0.474224 0.034685
C31   C     C_R   0.975741 0.202858 0.475659 0.035544
C32   C     C_R   0.202836 0.025001 0.475648 0.035519
C33   C     C_R   0.500489 0.726258 0.000373 0.024605
C34   C     C_R   0.273742 0.499511 0.999627 0.024605
C35   C     C_R   0.500551 0.273550 0.000145 0.025387
C36   C     C_R   0.726450 0.499448 0.999855 0.025387
C37   C     C_R   0.000489 0.226258 0.500373 0.024605
C38   C     C_R   0.773742 0.999511 0.499627 0.024605
C39   C     C_R   0.000552 0.773550 0.500145 0.025387
C40   C     C_R   0.226450 0.999448 0.499855 0.025387
C41   C     C_R   0.542912 0.724672 0.053381 -0.162107
C42   C     C_R   0.274774 0.544209 0.051482 -0.159212
C43   C     C_R   0.454091 0.275039 0.051119 -0.163610
C44   C     C_R   0.725235 0.452648 0.050866 -0.160734
C45   C     C_R   0.547352 0.274765 0.949134 -0.160734
C46   C     C_R   0.275328 0.457088 0.946619 -0.162107
C47   C     C_R   0.455791 0.725226 0.948518 -0.159212
C48   C     C_R   0.724961 0.545909 0.948880 -0.163610
C49   C     C_R   0.042912 0.224672 0.553381 -0.162107
C50   C     C_R   0.774773 0.044209 0.551482 -0.159212
C51   C     C_R   0.954091 0.775039 0.551119 -0.163610
C52   C     C_R   0.225235 0.952648 0.550866 -0.160734
C53   C     C_R   0.047352 0.774765 0.449134 -0.160734
C54   C     C_R   0.775328 0.957088 0.446619 -0.162107
C55   C     C_R   0.955791 0.225226 0.448518 -0.159212
C56   C     C_R   0.224961 0.045909 0.448881 -0.163610
C57   C     C_R   0.541603 0.770501 0.055825 0.183728
C58   C     C_R   0.229288 0.540970 0.054856 0.182222
C59   C     C_R   0.456243 0.229456 0.054544 0.184569
C60   C     C_R   0.770775 0.455789 0.054051 0.184608
C61   C     C_R   0.544211 0.229225 0.945949 0.184608
C62   C     C_R   0.229499 0.458397 0.944175 0.183728
C63   C     C_R   0.459030 0.770712 0.945144 0.182222
C64   C     C_R   0.770544 0.543757 0.945456 0.184569
C65   C     C_R   0.041603 0.270501 0.555825 0.183728
C66   C     C_R   0.729288 0.040970 0.554856 0.182222
C67   C     C_R   0.956243 0.729456 0.554544 0.184569
C68   C     C_R   0.270775 0.955789 0.554051 0.184608
C69   C     C_R   0.044211 0.729225 0.445949 0.184608
C70   C     C_R   0.729499 0.958397 0.444175 0.183728
C71   C     C_R   0.959030 0.270712 0.445144 0.182222
C72   C     C_R   0.270544 0.043757 0.445456 0.184569
C73   C     C_R   0.520215 0.795828 0.028921 0.069401
C74   C     C_R   0.203991 0.521517 0.027479 0.067096
C75   C     C_R   0.477653 0.203790 0.027808 0.064507
C76   C     C_R   0.796141 0.476166 0.026753 0.064263
C77   C     C_R   0.523834 0.203859 0.973247 0.064264
C78   C     C_R   0.204172 0.479785 0.971079 0.069401
C79   C     C_R   0.478483 0.796009 0.972521 0.067096
C80   C     C_R   0.796210 0.522347 0.972191 0.064506
C81   C     C_R   0.020215 0.295828 0.528921 0.069401
C82   C     C_R   0.703991 0.021517 0.527479 0.067096
C83   C     C_R   0.977653 0.703790 0.527809 0.064507
C84   C     C_R   0.296141 0.976166 0.526753 0.064264
C85   C     C_R   0.023834 0.703859 0.473247 0.064264
C86   C     C_R   0.704172 0.979785 0.471079 0.069401
C87   C     C_R   0.978483 0.296009 0.472521 0.067096
C88   C     C_R   0.296210 0.022347 0.472191 0.064506
C89   C     C_R   0.500301 0.772925 0.000430 -0.052504
C90   C     C_R   0.227075 0.499699 0.999570 -0.052504
C91   C     C_R   0.500605 0.226807 0.000377 -0.053309
C92   C     C_R   0.773193 0.499395 0.999623 -0.053309
C93   C     C_R   0.000301 0.272924 0.500430 -0.052504
C94   C     C_R   0.727075 0.999699 0.499570 -0.052504
C95   C     C_R   0.000605 0.726807 0.500377 -0.053309
C96   C     C_R   0.273193 0.999395 0.499623 -0.053309
C97   C     C_R   0.516840 0.842680 0.029334 0.075558
C98   C     C_R   0.157239 0.522933 0.026527 0.070719
C99   C     C_R   0.477282 0.156856 0.026864 0.078372
C100  C     C_R   0.842831 0.474355 0.025295 0.074714
C101  C     C_R   0.525645 0.157169 0.974705 0.074714
C102  C     C_R   0.157320 0.483160 0.970666 0.075558
C103  C     C_R   0.477067 0.842761 0.973473 0.070719
C104  C     C_R   0.843144 0.522718 0.973136 0.078372
C105  C     C_R   0.016840 0.342680 0.529334 0.075558
C106  C     C_R   0.657239 0.022933 0.526527 0.070719
C107  C     C_R   0.977282 0.656856 0.526864 0.078372
C108  C     C_R   0.342831 0.974355 0.525295 0.074714
C109  C     C_R   0.025645 0.657169 0.474705 0.074714
C110  C     C_R   0.657320 0.983160 0.470666 0.075558
C111  C     C_R   0.977067 0.342760 0.473473 0.070719
C112  C     C_R   0.343144 0.022718 0.473136 0.078372
C113  C     C_R   0.499083 0.865047 0.000378 -0.168612
C114  C     C_R   0.134953 0.500917 0.999622 -0.168612
C115  C     C_R   0.500665 0.134748 0.000247 -0.176179
C116  C     C_R   0.865252 0.499334 0.999753 -0.176179
C117  C     C_R   0.999083 0.365047 0.500378 -0.168612
C118  C     C_R   0.634953 0.000916 0.499622 -0.168612
C119  C     C_R   0.000666 0.634748 0.500247 -0.176179
C120  C     C_R   0.365252 0.999334 0.499753 -0.176179
C121  C     C_R   0.499976 0.000333 0.067220 0.896503
C122  C     C_R   0.999931 0.499965 0.067227 0.874411
C123  C     C_R   0.500035 0.000069 0.932773 0.874411
C124  C     C_R   0.999667 0.500024 0.932780 0.896503
C125  C     C_R   0.999975 0.500333 0.567220 0.896503
C126  C     C_R   0.499931 0.999965 0.567227 0.874411
C127  C     C_R   0.000035 0.500069 0.432773 0.874411
C128  C     C_R   0.499667 0.000024 0.432780 0.896504
C129  C     C_R   0.413302 0.499792 0.000004 0.966232
C130  C     C_R   0.500293 0.413278 0.999998 0.964066
C131  C     C_R   0.586722 0.499707 0.000002 0.964066
C132  C     C_R   0.500208 0.586697 0.999996 0.966232
C133  C     C_R   0.913302 0.999792 0.500004 0.966232
C134  C     C_R   0.000293 0.913277 0.499998 0.964066
C135  C     C_R   0.086722 0.999707 0.500002 0.964066
C136  C     C_R   0.000208 0.086697 0.499996 0.966232
C137  C     C_R   0.465887 0.979313 0.123037 -0.142623
C138  C     C_R   0.020931 0.465880 0.122941 -0.163573
C139  C     C_R   0.534755 0.020365 0.122749 -0.161426
C140  C     C_R   0.979106 0.534427 0.122812 -0.162991
C141  C     C_R   0.465573 0.020894 0.877188 -0.162991
C142  C     C_R   0.020687 0.534113 0.876963 -0.142623
C143  C     C_R   0.534120 0.979069 0.877059 -0.163573
C144  C     C_R   0.979635 0.465245 0.877251 -0.161426
C145  C     C_R   0.965887 0.479313 0.623037 -0.142623
C146  C     C_R   0.520930 0.965880 0.622941 -0.163573
C147  C     C_R   0.034755 0.520365 0.622749 -0.161426
C148  C     C_R   0.479106 0.034427 0.622811 -0.162991
C149  C     C_R   0.965573 0.520894 0.377188 -0.162991
C150  C     C_R   0.520687 0.034113 0.376963 -0.142623
C151  C     C_R   0.034120 0.479069 0.377059 -0.163573
C152  C     C_R   0.479635 0.965245 0.377251 -0.161426
C153  C     C_R   0.466304 0.978540 0.159036 -0.139791
C154  C     C_R   0.021262 0.466118 0.158936 -0.145671
C155  C     C_R   0.534832 0.020264 0.158750 -0.143848
C156  C     C_R   0.978818 0.534349 0.158818 -0.146287
C157  C     C_R   0.465651 0.021182 0.841182 -0.146287
C158  C     C_R   0.021460 0.533696 0.840964 -0.139791
C159  C     C_R   0.533882 0.978738 0.841064 -0.145671
C160  C     C_R   0.979736 0.465168 0.841250 -0.143848
C161  C     C_R   0.966304 0.478540 0.659036 -0.139791
C162  C     C_R   0.521262 0.966118 0.658936 -0.145671
C163  C     C_R   0.034832 0.520264 0.658750 -0.143848
C164  C     C_R   0.478818 0.034349 0.658818 -0.146287
C165  C     C_R   0.965651 0.521182 0.341182 -0.146287
C166  C     C_R   0.521460 0.033696 0.340964 -0.139791
C167  C     C_R   0.033882 0.478738 0.341064 -0.145671
C168  C     C_R   0.479736 0.965168 0.341250 -0.143848
C169  C     C_R   0.500631 0.999296 0.177134 0.075738
C170  C     C_R   0.000012 0.500240 0.177093 0.077852
C171  C     C_R   0.499760 0.999988 0.822907 0.077852
C172  C     C_R   0.000704 0.499369 0.822866 0.075738
C173  C     C_R   0.000631 0.499295 0.677134 0.075738
C174  C     C_R   0.500012 0.000240 0.677093 0.077852
C175  C     C_R   0.999760 0.499988 0.322907 0.077852
C176  C     C_R   0.500704 0.999369 0.322866 0.075738
C177  C     C_R   0.500098 0.000179 0.104835 -0.006678
C178  C     C_R   0.999934 0.500040 0.104840 -0.008634
C179  C     C_R   0.499959 0.000065 0.895160 -0.008633
C180  C     C_R   0.999821 0.499902 0.895165 -0.006678
C181  C     C_R   0.000098 0.500179 0.604835 -0.006678
C182  C     C_R   0.499934 0.000040 0.604840 -0.008634
C183  C     C_R   0.999959 0.500065 0.395160 -0.008634
C184  C     C_R   0.499821 0.999902 0.395164 -0.006678
C185  C     C_R   0.500799 0.999252 0.284976 0.296928
C186  C     C_R   0.999783 0.500064 0.284996 0.296475
C187  C     C_R   0.499936 0.000217 0.715004 0.296475
C188  C     C_R   0.000748 0.499201 0.715024 0.296928
C189  C     C_R   0.000799 0.499252 0.784976 0.296928
C190  C     C_R   0.499783 0.000064 0.784996 0.296475
C191  C     C_R   0.999936 0.500217 0.215004 0.296474
C192  C     C_R   0.500748 0.999201 0.215024 0.296928
C193  C     C_R   0.471908 0.656963 0.977821 0.086906
C194  C     C_R   0.343422 0.472092 0.976695 0.090468
C195  C     C_R   0.529468 0.343184 0.977798 0.087526
C196  C     C_R   0.656867 0.528477 0.977970 0.085725
C197  C     C_R   0.471523 0.343133 0.022030 0.085725
C198  C     C_R   0.343037 0.528092 0.022179 0.086906
C199  C     C_R   0.527908 0.656578 0.023305 0.090468
C200  C     C_R   0.656816 0.470532 0.022202 0.087526
C201  C     C_R   0.971908 0.156963 0.477821 0.086906
C202  C     C_R   0.843422 0.972092 0.476695 0.090468
C203  C     C_R   0.029468 0.843184 0.477798 0.087526
C204  C     C_R   0.156867 0.028477 0.477970 0.085725
C205  C     C_R   0.971523 0.843133 0.522030 0.085725
C206  C     C_R   0.843037 0.028092 0.522179 0.086906
C207  C     C_R   0.027908 0.156578 0.523305 0.090468
C208  C     C_R   0.156816 0.970532 0.522202 0.087526
H1    H     H_    0.439338 0.962993 0.109368 0.166906
H2    H     H_    0.037572 0.439387 0.109260 0.158541
H3    H     H_    0.561389 0.036701 0.108989 0.160087
H4    H     H_    0.962527 0.560967 0.109068 0.158975
H5    H     H_    0.439033 0.037473 0.890932 0.158975
H6    H     H_    0.037007 0.560662 0.890632 0.166906
H7    H     H_    0.560613 0.962428 0.890740 0.158541
H8    H     H_    0.963299 0.438611 0.891010 0.160087
H9    H     H_    0.939338 0.462993 0.609368 0.166906
H10   H     H_    0.537572 0.939387 0.609260 0.158541
H11   H     H_    0.061389 0.536701 0.608989 0.160087
H12   H     H_    0.462527 0.060967 0.609068 0.158975
H13   H     H_    0.939033 0.537473 0.390932 0.158975
H14   H     H_    0.537007 0.060662 0.390632 0.166906
H15   H     H_    0.060613 0.462428 0.390740 0.158541
H16   H     H_    0.463299 0.938611 0.391010 0.160087
H17   H     H_    0.439622 0.962027 0.172554 0.158116
H18   H     H_    0.037870 0.439433 0.172423 0.156907
H19   H     H_    0.561721 0.036357 0.172161 0.157509
H20   H     H_    0.962235 0.561084 0.172240 0.156990
H21   H     H_    0.438915 0.037765 0.827759 0.156990
H22   H     H_    0.037973 0.560378 0.827446 0.158116
H23   H     H_    0.560567 0.962130 0.827577 0.156907
H24   H     H_    0.963643 0.438278 0.827839 0.157509
H25   H     H_    0.939622 0.462027 0.672554 0.158116
H26   H     H_    0.537870 0.939433 0.672423 0.156907
H27   H     H_    0.061721 0.536357 0.672161 0.157509
H28   H     H_    0.462235 0.061084 0.672241 0.156990
H29   H     H_    0.938915 0.537765 0.327759 0.156990
H30   H     H_    0.537973 0.060378 0.327446 0.158116
H31   H     H_    0.060567 0.462130 0.327577 0.156907
H32   H     H_    0.463643 0.938278 0.327839 0.157509
H33   H     H_    0.557727 0.705945 0.074386 0.182999
H34   H     H_    0.293042 0.560199 0.071971 0.183769
H35   H     H_    0.437203 0.293761 0.070974 0.183971
H36   H     H_    0.706900 0.435802 0.071123 0.184097
H37   H     H_    0.564198 0.293100 0.928877 0.184097
H38   H     H_    0.294055 0.442273 0.925613 0.182999
H39   H     H_    0.439801 0.706958 0.928029 0.183769
H40   H     H_    0.706239 0.562797 0.929025 0.183971
H41   H     H_    0.057727 0.205945 0.574386 0.182999
H42   H     H_    0.793042 0.060199 0.571971 0.183769
H43   H     H_    0.937203 0.793761 0.570974 0.183971
H44   H     H_    0.206900 0.935802 0.571123 0.184097
H45   H     H_    0.064198 0.793100 0.428877 0.184097
H46   H     H_    0.794054 0.942273 0.425613 0.182999
H47   H     H_    0.939801 0.206958 0.428029 0.183769
H48   H     H_    0.206239 0.062797 0.429026 0.183971
N1    N     N_R   0.528068 0.026453 0.232564 -0.168227
N2    N     N_R   0.972597 0.527524 0.232755 -0.168953
N3    N     N_R   0.473479 0.971964 0.232934 -0.166890
N4    N     N_R   0.027186 0.472839 0.232757 -0.169058
N5    N     N_R   0.527161 0.972814 0.767243 -0.169058
N6    N     N_R   0.973547 0.471932 0.767436 -0.168227
N7    N     N_R   0.472476 0.027403 0.767245 -0.168953
N8    N     N_R   0.028036 0.526521 0.767065 -0.166890
N9    N     N_R   0.028068 0.526453 0.732564 -0.168227
N10   N     N_R   0.472597 0.027524 0.732755 -0.168953
N11   N     N_R   0.973479 0.471964 0.732935 -0.166890
N12   N     N_R   0.527186 0.972839 0.732757 -0.169058
N13   N     N_R   0.027161 0.472814 0.267243 -0.169058
N14   N     N_R   0.473547 0.971932 0.267436 -0.168227
N15   N     N_R   0.972476 0.527403 0.267245 -0.168953
N16   N     N_R   0.528036 0.026521 0.267065 -0.166890
O1    O     O_R   0.537270 0.933900 0.000070 -0.606213
O2    O     O_R   0.066100 0.537270 0.000070 -0.584404
O3    O     O_R   0.462730 0.066100 0.000070 -0.596343
O4    O     O_R   0.933900 0.462730 0.000070 -0.591504
O5    O     O_R   0.537270 0.066100 0.999930 -0.591505
O6    O     O_R   0.066100 0.462730 0.999930 -0.606213
O7    O     O_R   0.462730 0.933900 0.999930 -0.584404
O8    O     O_R   0.933900 0.537270 0.999930 -0.596343
O9    O     O_R   0.037270 0.433900 0.500070 -0.606213
O10   O     O_R   0.566100 0.037270 0.500070 -0.584404
O11   O     O_R   0.962730 0.566100 0.500070 -0.596343
O12   O     O_R   0.433900 0.962730 0.500070 -0.591504
O13   O     O_R   0.037270 0.566100 0.499930 -0.591505
O14   O     O_R   0.566100 0.962730 0.499930 -0.606213
O15   O     O_R   0.962730 0.433900 0.499930 -0.584404
O16   O     O_R   0.433900 0.037270 0.499930 -0.596343
O17   O     O_R   0.433830 0.500000 0.028800 -0.596349
O18   O     O_R   0.500000 0.433830 0.028800 -0.596305
O19   O     O_R   0.566170 0.500000 0.028800 -0.596704
O20   O     O_R   0.500000 0.566170 0.028800 -0.596153
O21   O     O_R   0.433830 0.500000 0.971200 -0.596153
O22   O     O_R   0.500000 0.566170 0.971200 -0.596349
O23   O     O_R   0.566170 0.500000 0.971200 -0.596304
O24   O     O_R   0.500000 0.433830 0.971200 -0.596704
O25   O     O_R   0.933830 1.000000 0.528800 -0.596349
O26   O     O_R   0.000000 0.933830 0.528800 -0.596305
O27   O     O_R   0.066170 1.000000 0.528800 -0.596704
O28   O     O_R   0.000000 0.066170 0.528800 -0.596153
O29   O     O_R   0.933830 1.000000 0.471200 -0.596153
O30   O     O_R   0.000000 0.066170 0.471200 -0.596349
O31   O     O_R   0.066170 1.000000 0.471200 -0.596304
O32   O     O_R   0.000000 0.933830 0.471200 -0.596705
O33   O     O_R   0.537260 0.999970 0.050990 -0.612629
O34   O     O_R   0.000030 0.537260 0.050990 -0.609505
O35   O     O_R   0.462740 0.000030 0.050990 -0.604523
O36   O     O_R   0.999970 0.462740 0.050990 -0.610027
O37   O     O_R   0.537260 0.000030 0.949010 -0.610027
O38   O     O_R   0.000030 0.462740 0.949010 -0.612629
O39   O     O_R   0.462740 0.999970 0.949010 -0.609505
O40   O     O_R   0.999970 0.537260 0.949010 -0.604523
O41   O     O_R   0.037260 0.499970 0.550990 -0.612629
O42   O     O_R   0.500030 0.037260 0.550990 -0.609505
O43   O     O_R   0.962740 0.500030 0.550990 -0.604523
O44   O     O_R   0.499970 0.962740 0.550990 -0.610027
O45   O     O_R   0.037260 0.500030 0.449010 -0.610027
O46   O     O_R   0.500030 0.962740 0.449010 -0.612629
O47   O     O_R   0.962740 0.499970 0.449010 -0.609505
O48   O     O_R   0.499970 0.037260 0.449010 -0.604523
Zn1   Zn    Zn3+2 0.549780 0.000000 0.000000 1.034427
Zn2   Zn    Zn3+2 0.000000 0.549780 0.000000 1.047669
Zn3   Zn    Zn3+2 0.450220 0.000000 0.000000 1.047668
Zn4   Zn    Zn3+2 0.000000 0.450220 0.000000 1.034427
Zn5   Zn    Zn3+2 0.049780 0.500000 0.500000 1.034427
Zn6   Zn    Zn3+2 0.500000 0.049780 0.500000 1.047669
Zn7   Zn    Zn3+2 0.950220 0.500000 0.500000 1.047669
Zn8   Zn    Zn3+2 0.500000 0.950220 0.500000 1.034427
Zn9   Zn    Zn3+2 0.500000 0.500000 0.038450 1.085827
Zn10  Zn    Zn3+2 0.500000 0.500000 0.961550 1.085827
Zn11  Zn    Zn3+2 0.000000 0.000000 0.538450 1.085827
Zn12  Zn    Zn3+2 0.000000 0.000000 0.461550 1.085827
I1    I     I_    0.420337 0.622534 0.950220 -0.301337
I2    I     I_    0.378280 0.420998 0.948617 -0.306276
I3    I     I_    0.580847 0.378425 0.950239 -0.305788
I4    I     I_    0.621742 0.580570 0.951072 -0.309901
I5    I     I_    0.419430 0.378257 0.048928 -0.309901
I6    I     I_    0.377466 0.579663 0.049780 -0.301337
I7    I     I_    0.579002 0.621720 0.051383 -0.306276
I8    I     I_    0.621575 0.419153 0.049761 -0.305788
I9    I     I_    0.920337 0.122534 0.450220 -0.301337
I10   I     I_    0.878280 0.920998 0.448617 -0.306276
I11   I     I_    0.080847 0.878425 0.450238 -0.305788
I12   I     I_    0.121743 0.080570 0.451072 -0.309901
I13   I     I_    0.919430 0.878257 0.548928 -0.309901
I14   I     I_    0.877466 0.079663 0.549780 -0.301337
I15   I     I_    0.079002 0.121720 0.551383 -0.306276
I16   I     I_    0.121575 0.919153 0.549761 -0.305788
C209  C     C_3   0.565703 0.789145 0.086852 -0.800414
H49   H     H_    0.588800 0.815494 0.078877 0.263938
H50   H     H_    0.541842 0.800338 0.107047 0.264265
H51   H     H_    0.586746 0.764016 0.100356 0.225122
C210  C     C_3   0.211637 0.555866 0.089589 -0.807176
H52   H     H_    0.189070 0.530480 0.100597 0.257275
H53   H     H_    0.238030 0.559891 0.109293 0.225859
H54   H     H_    0.196257 0.589056 0.087407 0.270695
C211  C     C_3   0.435363 0.212380 0.087868 -0.798706
H55   H     H_    0.458288 0.190649 0.102329 0.261387
H56   H     H_    0.427862 0.239270 0.106803 0.222031
H57   H     H_    0.402926 0.196691 0.082479 0.266261
C212  C     C_3   0.788374 0.440284 0.088701 -0.807013
H58   H     H_    0.811572 0.465039 0.099596 0.256992
H59   H     H_    0.762005 0.436592 0.108656 0.225902
H60   H     H_    0.803157 0.406825 0.086425 0.269643
C213  C     C_3   0.559716 0.211625 0.911299 -0.807012
H61   H     H_    0.534961 0.188427 0.900404 0.256992
H62   H     H_    0.563407 0.237995 0.891344 0.225902
H63   H     H_    0.593175 0.196843 0.913575 0.269643
C214  C     C_3   0.210855 0.434297 0.913148 -0.800414
H64   H     H_    0.184505 0.411199 0.921123 0.263938
H65   H     H_    0.199662 0.458158 0.892953 0.264265
H66   H     H_    0.235984 0.413253 0.899644 0.225122
C215  C     C_3   0.444134 0.788363 0.910411 -0.807176
H67   H     H_    0.469520 0.810930 0.899402 0.257275
H68   H     H_    0.440109 0.761970 0.890706 0.225859
H69   H     H_    0.410944 0.803743 0.912592 0.270695
C216  C     C_3   0.787620 0.564636 0.912132 -0.798706
H70   H     H_    0.809351 0.541712 0.897671 0.261387
H71   H     H_    0.760730 0.572138 0.893196 0.222031
H72   H     H_    0.803309 0.597074 0.917521 0.266261
C217  C     C_3   0.065703 0.289145 0.586852 -0.800414
H73   H     H_    0.088801 0.315494 0.578877 0.263938
H74   H     H_    0.041842 0.300338 0.607047 0.264265
H75   H     H_    0.086746 0.264016 0.600356 0.225122
C218  C     C_3   0.711637 0.055866 0.589588 -0.807176
H76   H     H_    0.689070 0.030480 0.600597 0.257275
H77   H     H_    0.738030 0.059891 0.609294 0.225859
H78   H     H_    0.696257 0.089056 0.587407 0.270695
C219  C     C_3   0.935363 0.712380 0.587868 -0.798706
H79   H     H_    0.958288 0.690649 0.602329 0.261387
H80   H     H_    0.927862 0.739270 0.606803 0.222031
H81   H     H_    0.902926 0.696691 0.582479 0.266261
C220  C     C_3   0.288374 0.940284 0.588701 -0.807012
H82   H     H_    0.311572 0.965039 0.599596 0.256992
H83   H     H_    0.262005 0.936593 0.608656 0.225902
H84   H     H_    0.303157 0.906825 0.586425 0.269643
C221  C     C_3   0.059716 0.711625 0.411299 -0.807013
H85   H     H_    0.034961 0.688428 0.400404 0.256992
H86   H     H_    0.063407 0.737995 0.391344 0.225902
H87   H     H_    0.093175 0.696843 0.413575 0.269643
C222  C     C_3   0.710855 0.934297 0.413148 -0.800414
H88   H     H_    0.684506 0.911199 0.421123 0.263938
H89   H     H_    0.699662 0.958158 0.392952 0.264265
H90   H     H_    0.735984 0.913254 0.399644 0.225122
C223  C     C_3   0.944134 0.288362 0.410411 -0.807176
H91   H     H_    0.969520 0.310930 0.399402 0.257275
H92   H     H_    0.940109 0.261970 0.390706 0.225859
H93   H     H_    0.910944 0.303743 0.412592 0.270695
C224  C     C_3   0.287620 0.064636 0.412132 -0.798706
H94   H     H_    0.309351 0.041712 0.397671 0.261387
H95   H     H_    0.260730 0.072138 0.393197 0.222031
H96   H     H_    0.303309 0.097074 0.417521 0.266261
I17   I     I_    0.524094 0.882825 0.075042 -0.386851
I18   I     I_    0.116677 0.563520 0.060927 -0.352431
I19   I     I_    0.443614 0.114981 0.064623 -0.365145
I20   I     I_    0.882661 0.431033 0.058338 -0.351417
I21   I     I_    0.568967 0.117338 0.941662 -0.351417
I22   I     I_    0.117175 0.475906 0.924958 -0.386851
I23   I     I_    0.436480 0.883323 0.939073 -0.352431
I24   I     I_    0.885019 0.556385 0.935377 -0.365145
I25   I     I_    0.024094 0.382825 0.575042 -0.386851
I26   I     I_    0.616677 0.063520 0.560927 -0.352431
I27   I     I_    0.943614 0.614981 0.564623 -0.365145
I28   I     I_    0.382661 0.931033 0.558338 -0.351417
I29   I     I_    0.068967 0.617339 0.441662 -0.351417
I30   I     I_    0.617175 0.975906 0.424958 -0.386851
I31   I     I_    0.936480 0.383323 0.439073 -0.352431
I32   I     I_    0.385019 0.056385 0.435377 -0.365145

loop_
_geom_bond_atom_site_label_1
_geom_bond_atom_site_label_2
_ccdc_geom_bond_type
C173  C188  S    
C211  H55   S    
C82   C94   A    
C108  C120  A    
C77   C101  A    
C192  N3    A    
O4    Zn4   S    
C102  I22   S    
C53   C69   A    
C110  C118  A    
O30   Zn12  S    
C195  I3    S    
C71   C223  S    
C109  C119  A    
O33   Zn1   S    
C46   C62   A    
O29   Zn12  S    
C110  I30   S    
C153  H17   S    
C86   C110  A    
C11   C195  A    
C26   C50   A    
C198  I6    S    
C9    C193  A    
C98   C114  A    
C78   C102  A    
C28   C40   A    
C130  O24   A    
C154  C170  A    
N4    N13   A    
C216  H72   S    
C222  H89   S    
C104  C116  A    
C105  I25   S    
C56   C72   A    
C140  C178  A    
O3    Zn3   S    
O48   Zn6   S    
C144  C160  A    
O13   Zn5   S    
C125  O43   A    
C214  H66   S    
C156  H20   S    
C106  C118  A    
C12   C196  A    
C42   C58   A    
O12   Zn8   S    
C1    C113  S    
C142  C158  A    
C126  O44   A    
C210  H53   S    
C30   C202  A    
C212  H60   S    
C7    C119  S    
C215  H69   S    
C112  C120  A    
C26   C38   A    
C60   C76   A    
C31   C37   A    
C27   C205  A    
C159  H23   S    
C80   C92   A    
C102  C114  A    
C66   C82   A    
C146  C162  A    
C155  C169  A    
O39   Zn3   S    
C54   C70   A    
C129  O21   A    
C61   C213  S    
C160  C172  A    
O46   Zn8   S    
N1    N16   A    
C191  N4    A    
N2    N15   A    
N3    N14   A    
C159  C171  A    
C185  N14   A    
C140  C156  A    
C141  C157  A    
C67   C219  S    
C80   C104  A    
C211  H57   S    
C199  I7    S    
C14   C206  A    
C217  H73   S    
C4    O8    A    
C223  H93   S    
C193  I1    S    
C141  H5    S    
C64   C216  S    
C126  O42   A    
C7    O11   A    
C143  H7    S    
C77   C91   A    
C121  O33   A    
C98   I18   S    
C161  H25   S    
C121  C177  S    
C21   C35   A    
C76   C100  A    
C220  H82   S    
C131  O19   A    
C66   C218  S    
C74   C90   A    
C221  H86   S    
C10   C129  S    
C48   H40   S    
C19   C35   A    
C213  H61   S    
C157  C171  A    
C175  C186  S    
C47   C63   A    
C2    C114  S    
C158  C172  A    
C58   C210  S    
C145  C161  A    
C151  C167  A    
C156  C170  A    
O24   Zn10  S    
C189  N6    A    
C17   C199  A    
C73   C89   A    
C146  H10   S    
C87   C111  A    
C189  N8    A    
C62   C214  S    
O44   Zn8   S    
C47   H39   S    
C15   C203  A    
O41   Zn5   S    
C224  H94   S    
C16   C204  A    
C55   C71   A    
C218  H77   S    
C67   C83   A    
C209  H49   S    
C149  C183  A    
C100  I20   S    
C11   C197  A    
C222  H88   S    
C157  H21   S    
C74   C98   A    
C70   C222  S    
C30   C54   A    
C155  H19   S    
C24   C36   A    
O31   Zn12  S    
C1    O7    A    
C33   C89   A    
C18   C42   A    
C3    O5    A    
C150  C166  A    
C145  C181  A    
C134  O26   A    
O23   Zn10  S    
C57   C73   A    
C20   C200  A    
C72   C224  S    
C185  N16   A    
C186  N15   A    
C142  C180  A    
C144  C180  A    
C61   C77   A    
N8    N9    A    
C217  H75   S    
C160  H24   S    
C143  C179  A    
C103  I23   S    
O36   Zn4   S    
C43   C59   A    
C101  I21   S    
C121  O35   A    
C206  I14   S    
C122  O36   A    
C54   H46   S    
C29   C39   A    
C112  I32   S    
C20   C44   A    
C27   C51   A    
C21   C45   A    
C18   C34   A    
C22   C34   A    
C220  H84   S    
C81   C105  A    
C23   C47   A    
C24   C48   A    
C166  H30   S    
C149  C165  A    
C46   H38   S    
N5    N12   A    
C123  C179  S    
C213  H63   S    
N6    N11   A    
C144  H8    S    
C150  C184  A    
C170  C191  S    
C138  H2    S    
C60   C212  S    
C171  C190  S    
C41   H33   S    
C8    O16   A    
C190  N7    A    
O28   Zn11  S    
C165  C175  A    
C139  C177  A    
C135  O27   A    
C174  C187  S    
O34   Zn2   S    
C139  C155  A    
C75   C99   A    
C12   C200  A    
C37   C93   A    
C51   C67   A    
C224  H96   S    
C164  C174  A    
C52   H44   S    
C39   C95   A    
O47   Zn7   S    
C209  H51   S    
C128  O46   A    
C56   H48   S    
C163  C173  A    
C222  H90   S    
C69   C85   A    
C58   C74   A    
C167  C175  A    
O45   Zn5   S    
C168  C176  A    
O19   Zn9   S    
C133  O29   A    
C62   C78   A    
C101  C115  A    
C2    O6    A    
C3    O3    A    
C14   C133  S    
O8    Zn2   S    
O1    Zn1   S    
C188  N9    A    
C111  C117  A    
C57   C209  S    
C221  H85   S    
C88   C112  A    
C85   C95   A    
C186  N13   A    
C147  C181  A    
C187  N12   A    
O40   Zn2   S    
C87   C93   A    
C203  I11   S    
C151  H15   S    
C82   C106  A    
C216  H71   S    
C163  H27   S    
C122  O34   A    
C123  O39   A    
C138  C154  A    
C69   C221  S    
C9    C199  A    
O43   Zn7   S    
C214  H65   S    
C65   C217  S    
C88   C96   A    
C164  H28   S    
C150  H14   S    
O32   Zn12  S    
C100  C116  A    
C210  H52   S    
C176  C185  S    
C168  H32   S    
C15   C134  S    
C26   C206  A    
C78   C90   A    
C212  H59   S    
C44   H36   S    
O26   Zn11  S    
C17   C33   A    
C154  H18   S    
C29   C203  A    
C190  N5    A    
C85   C109  A    
C10   C194  A    
C99   C115  A    
C8    O12   A    
C136  O30   A    
C48   C64   A    
C197  I5    S    
C24   C196  A    
O7    Zn3   S    
C127  O47   A    
C128  O48   A    
C18   C198  A    
C124  O38   A    
C49   H41   S    
C36   C92   A    
O15   Zn7   S    
C211  H56   S    
C64   C80   A    
C105  C117  A    
C53   H45   S    
C40   C96   A    
C107  C119  A    
C152  C168  A    
C19   C43   A    
O27   Zn11  S    
C217  H74   S    
C19   C197  A    
C146  C182  A    
C188  N11   A    
C125  C181  S    
C68   C84   A    
C142  H6    S    
C221  H87   S    
C45   H37   S    
O42   Zn6   S    
O38   Zn4   S    
O16   Zn6   S    
C187  N10   A    
C43   H35   S    
C137  H1    S    
C5    O15   A    
C32   C204  A    
C7    O13   A    
C161  C173  A    
C65   C81   A    
C23   C193  A    
C123  O37   A    
C21   C195  A    
C151  C183  A    
C148  H12   S    
C15   C205  A    
C71   C87   A    
C106  I26   S    
O17   Zn9   S    
C22   C46   A    
C200  I8    S    
C152  H16   S    
C194  I2    S    
O9    Zn5   S    
C11   C130  S    
C210  H54   S    
O11   Zn7   S    
C140  H4    S    
C218  H76   S    
O22   Zn10  S    
C9    C132  S    
C122  C178  S    
C103  C113  A    
C141  C179  A    
C4    C116  S    
C135  O31   A    
O14   Zn8   S    
C143  C159  A    
C172  C189  S    
C165  H29   S    
C223  H92   S    
C41   C57   A    
C3    C115  S    
C127  O45   A    
C44   C60   A    
C45   C61   A    
C84   C108  A    
C109  I29   S    
C124  O40   A    
C25   C49   A    
O20   Zn9   S    
O18   Zn9   S    
C162  H26   S    
C145  H9    S    
C63   C215  S    
C148  C182  A    
C153  C169  A    
C219  H80   S    
C133  O25   A    
C147  C163  A    
C31   C55   A    
C25   C207  A    
C32   C56   A    
N7    N10   A    
O21   Zn10  S    
C6    O10   A    
C12   C131  S    
C127  C183  S    
C128  C184  S    
C201  I9    S    
C158  H22   S    
C63   C79   A    
C73   C97   A    
C220  H83   S    
C49   C65   A    
C5    O9    A    
C6    O14   A    
C42   H34   S    
C213  H62   S    
C191  N2    A    
C2    O2    A    
C14   C202  A    
C84   C96   A    
C132  O22   A    
C86   C94   A    
C25   C37   A    
C207  I15   S    
C83   C107  A    
C23   C33   A    
C196  I4    S    
C13   C207  A    
C152  C184  A    
C51   H43   S    
C1    O1    A    
C52   C68   A    
C218  H78   S    
C79   C103  A    
C129  O17   A    
C209  H50   S    
C205  I13   S    
C149  H13   S    
C10   C198  A    
C72   C88   A    
C111  I31   S    
C124  C180  S    
C148  C164  A    
C137  C153  A    
C4    O4    A    
C219  H81   S    
C192  N1    A    
C125  O41   A    
C27   C39   A    
C20   C36   A    
C139  H3    S    
C134  O32   A    
C55   H47   S    
C5    C117  S    
C107  I27   S    
C34   C90   A    
C104  I24   S    
C99   I19   S    
O25   Zn11  S    
C81   C93   A    
C204  I12   S    
C83   C95   A    
C38   C94   A    
C132  O20   A    
C131  O23   A    
O35   Zn3   S    
C50   C66   A    
O6    Zn4   S    
C216  H70   S    
C76   C92   A    
C70   C86   A    
C13   C136  S    
C126  C182  S    
C224  H95   S    
C97   C113  A    
C138  C178  A    
C59   C75   A    
O37   Zn1   S    
C8    C120  S    
C214  H64   S    
O5    Zn1   S    
C16   C208  A    
C50   H42   S    
C208  I16   S    
C162  C174  A    
C75   C91   A    
O2    Zn2   S    
C212  H58   S    
C166  C176  A    
C169  C192  S    
C108  I28   S    
C215  H67   S    
C202  I10   S    
C28   C52   A    
C68   C220  S    
C219  H79   S    
C29   C53   A    
C28   C208  A    
C167  H31   S    
C215  H68   S    
C13   C201  A    
C223  H91   S    
C32   C40   A    
C17   C41   A    
C31   C201  A    
C147  H11   S    
C59   C211  S    
C137  C177  A    
O10   Zn6   S    
C130  O18   A    
C22   C194  A    
C79   C89   A    
C30   C38   A    
C16   C135  S    
C6    C118  S    
C136  O28   A    
C97   I17   S    
C35   C91   A    
