data_mof_unit_51468.cif
_audit_creation_date              2012-12-11T15:21:42-0500
_audit_creation_method            fapswitch 2.2
_symmetry_space_group_name_H-M    P1
_symmetry_Int_Tables_number       1
_space_group_crystal_system       triclinic
_cell_length_a                    19.06117
_cell_length_b                    7.253002
_cell_length_c                    18.03295
_cell_angle_alpha                 90.000559
_cell_angle_beta                  108.564456
_cell_angle_gamma                 89.998541
_cell_volume                      2363.34397442

loop_
_atom_site_label
_atom_site_type_symbol
_atom_type_description
_atom_site_fract_x
_atom_site_fract_y
_atom_site_fract_z
_atom_type_partial_charge
O1    O     O_R   0.562310 0.505770 0.439670 -0.533555
O2    O     O_R   0.437690 0.005770 0.560330 -0.533573
O3    O     O_R   0.411650 0.169150 0.405330 -0.490802
O4    O     O_R   0.588350 0.669150 0.594670 -0.490795
C1    C     C_R   0.384661 0.345654 0.383469 0.912924
C2    C     C_R   0.615339 0.845653 0.616533 0.912940
O5    O     O_R   0.560140 0.175610 0.430010 -0.519006
O6    O     O_R   0.439860 0.675610 0.569990 -0.518996
O7    O     O_R   0.587240 0.012100 0.585200 -0.522742
O8    O     O_R   0.412760 0.512100 0.414800 -0.522740
C3    C     C_R   0.580130 0.344484 0.414330 0.799407
C4    C     C_R   0.419873 0.844489 0.585671 0.799403
O9    O     O_3   0.508720 0.341420 0.550890 -0.366244
O10   O     O_3   0.491280 0.841420 0.449110 -0.366241
V1    V     V_3+5 0.498380 0.063930 0.490560 1.855472
V2    V     V_3+5 0.501620 0.563930 0.509440 1.855488
C5    C     C_R   0.193013 0.798731 0.888757 0.402839
C6    C     C_R   0.807031 0.298709 0.111308 0.402913
C7    C     C_R   0.131835 0.918500 0.867003 -0.234437
C8    C     C_R   0.868191 0.418519 0.133025 -0.234456
C9    C     C_R   0.121405 0.033459 0.801367 0.401061
C10   C     C_R   0.878649 0.533464 0.198678 0.401109
C11   C     C_R   0.175987 0.041306 0.762925 -0.059437
C12   C     C_R   0.824089 0.541299 0.237157 -0.059317
C13   C     C_R   0.230400 0.900078 0.777972 -0.059723
C14   C     C_R   0.769673 0.400072 0.222109 -0.059734
C15   C     C_R   0.236402 0.771254 0.838868 -0.099278
C16   C     C_R   0.763685 0.271210 0.161230 -0.099368
C17   C     C_R   0.179555 0.187029 0.711764 0.389661
C18   C     C_R   0.820553 0.686957 0.288371 0.389615
C19   C     C_R   0.228433 0.176476 0.667610 0.411083
C20   C     C_R   0.771645 0.676420 0.332494 0.411209
C21   C     C_R   0.273376 0.018193 0.672224 -0.057682
C22   C     C_R   0.726675 0.518180 0.327843 -0.057553
C23   C     C_R   0.278746 0.887594 0.732098 -0.090142
C24   C     C_R   0.721327 0.387569 0.267979 -0.090166
C25   C     C_R   0.331969 0.743767 0.745768 -0.113805
C26   C     C_R   0.668136 0.243672 0.254325 -0.113816
C27   C     C_R   0.332878 0.608822 0.802484 0.668837
C28   C     C_R   0.667309 0.108586 0.197695 0.669031
C29   C     C_R   0.285574 0.620265 0.847621 0.369738
C30   C     C_R   0.714606 0.120082 0.152552 0.369863
C31   C     C_R   0.313887 0.987338 0.619706 0.399714
C32   C     C_R   0.686137 0.487332 0.380337 0.399700
C33   C     C_R   0.371287 0.855587 0.636519 -0.241894
C34   C     C_R   0.628740 0.355572 0.363508 -0.241892
C35   C     C_R   0.381670 0.736785 0.701324 0.422182
C36   C     C_R   0.618404 0.236714 0.298728 0.422234
C37   C     C_3   0.786735 0.701156 0.800331 0.740001
C38   C     C_3   0.213262 0.201152 0.199680 0.740016
C39   C     C_3   0.714235 0.677106 0.728804 0.807746
C40   C     C_3   0.285764 0.177103 0.271205 0.807738
C41   C     C_3   0.825214 0.977763 0.734668 0.740104
C42   C     C_3   0.174789 0.477793 0.265332 0.740137
C43   C     C_3   0.746273 0.021754 0.824525 0.999783
C44   C     C_3   0.253730 0.521721 0.175471 0.999808
C45   C     C_3   0.811874 0.910889 0.812316 -0.730032
C46   C     C_3   0.188127 0.410886 0.187686 -0.730025
C47   C     C_3   0.687313 0.866687 0.687520 -0.719937
C48   C     C_3   0.312686 0.366686 0.312483 -0.719960
C49   C     C_3   0.754306 0.943739 0.661225 0.719550
C50   C     C_3   0.245694 0.443754 0.338777 0.719536
C51   C     C_3   0.673431 0.998256 0.752787 0.435216
C52   C     C_3   0.326570 0.498237 0.247213 0.435220
O11   O     O_R   0.087220 0.271820 0.085230 -0.519203
O12   O     O_R   0.912780 0.771820 0.914770 -0.519191
O13   O     O_R   0.939860 0.595540 0.069990 -0.531320
O14   O     O_R   0.060140 0.095540 0.930010 -0.531342
C53   C     C_R   0.919330 0.426949 0.085019 0.801594
C54   C     C_R   0.080672 0.926944 0.914983 0.801601
O15   O     O_R   0.088340 0.601930 0.094680 -0.499455
O16   O     O_R   0.911660 0.101930 0.905320 -0.499461
O17   O     O_R   0.062310 0.765410 0.939660 -0.531035
O18   O     O_R   0.937690 0.265410 0.060340 -0.531040
C55   C     C_R   0.116267 0.431606 0.116882 0.949591
C56   C     C_R   0.883733 0.931608 0.883118 0.949606
O19   O     O_3   0.991270 0.429630 0.949130 -0.370359
O20   O     O_3   0.008730 0.929630 0.050870 -0.370356
V3    V     V_3+5 0.001620 0.707150 0.009440 1.869146
V4    V     V_3+5 0.998380 0.207150 0.990560 1.869110
Cl1   Cl    Cl    0.223594 0.719906 0.986026 -0.330491
Cl2   Cl    Cl    0.776404 0.219748 0.014050 -0.330367
Cl3   Cl    Cl    0.773595 0.599998 0.886761 -0.277167
Cl4   Cl    Cl    0.226397 0.099961 0.113255 -0.277209
F1    F     F_    0.658568 0.600834 0.752809 -0.518386
F2    F     F_    0.341430 0.100820 0.247197 -0.518405
Cl5   Cl    Cl    0.729799 0.512691 0.662484 -0.238242
Cl6   Cl    Cl    0.270207 0.012701 0.337533 -0.238262
F3    F     F_    0.883797 0.877229 0.725240 -0.496695
F4    F     F_    0.116199 0.377301 0.274761 -0.496698
F5    F     F_    0.774084 0.816952 0.614443 -0.482671
F6    F     F_    0.225911 0.316971 0.385556 -0.482673
F7    F     F_    0.765833 0.205600 0.836876 -0.526531
F8    F     F_    0.234172 0.705566 0.163108 -0.526512
F9    F     F_    0.734169 0.961777 0.892173 -0.523270
F10   F     F_    0.265836 0.461711 0.107828 -0.523285
Cl7   Cl    Cl    0.598850 0.914875 0.785062 -0.281862
Cl8   Cl    Cl    0.401157 0.414839 0.214948 -0.281840
Cl9   Cl    Cl    0.638248 0.219973 0.717153 -0.303136
Cl10  Cl    Cl    0.361744 0.719962 0.282842 -0.303141
Cl11  Cl    Cl    0.856863 0.212010 0.741484 -0.236545
Cl12  Cl    Cl    0.143158 0.712057 0.258509 -0.236541
Cl13  Cl    Cl    0.034145 0.140140 0.761056 -0.345473
Cl14  Cl    Cl    0.965923 0.640107 0.238947 -0.345479
Cl15  Cl    Cl    0.729849 0.132325 0.593973 -0.347277
Cl16  Cl    Cl    0.270151 0.632333 0.406033 -0.347241
Cl17  Cl    Cl    0.133143 0.399608 0.711024 -0.414035
Cl18  Cl    Cl    0.867116 0.899411 0.289311 -0.413369
Cl19  Cl    Cl    0.241101 0.378536 0.617637 -0.401218
Cl20  Cl    Cl    0.759001 0.878452 0.382498 -0.401009
Cl21  Cl    Cl    0.282307 0.079603 0.524170 -0.334348
Cl22  Cl    Cl    0.717685 0.579581 0.475876 -0.334403
Cl23  Cl    Cl    0.459334 0.586675 0.728160 -0.325334
Cl24  Cl    Cl    0.540750 0.086600 0.271840 -0.325372
F11   F     F_    0.375996 0.456093 0.811501 -0.551986
F12   F     F_    0.624338 0.955681 0.188842 -0.552330
Cl25  Cl    Cl    0.282582 0.423170 0.904535 -0.355307
Cl26  Cl    Cl    0.717839 0.922905 0.095847 -0.356325
F13   F     F_    0.843894 0.600304 0.788014 -0.515688
F14   F     F_    0.156103 0.100329 0.212005 -0.515693

loop_
_geom_bond_atom_site_label_1
_geom_bond_atom_site_label_2
_ccdc_geom_bond_type
O14   V4    S    
O15   C55   A    
O1    C3    A    
C43   F7    S    
O2    C4    A    
C39   F1    S    
C2    O7    A    
O15   V3    S    
C38   Cl4   S    
C27   C29   A    
C28   F12   S    
C44   F8    S    
O12   V3    S    
C20   Cl20  S    
C38   F14   S    
C11   C17   A    
C45   C56   S    
C23   C25   A    
C12   C14   A    
C42   F4    S    
C37   C45   S    
C6    C8    A    
C48   C50   S    
C16   C30   A    
C51   Cl9   S    
C40   C48   S    
C6    Cl2   S    
C41   C49   S    
C41   Cl11  S    
C37   C39   S    
C43   C51   S    
C38   C40   S    
C44   C52   S    
C25   C35   A    
C49   Cl15  S    
C26   C36   A    
O16   C56   A    
C52   Cl8   S    
O6    V2    S    
O11   V4    S    
O18   V4    S    
C17   C19   A    
C31   Cl21  S    
C32   C34   A    
C46   C55   S    
C33   C35   A    
O17   V3    S    
C34   C36   A    
C47   C49   S    
C5    C15   A    
C40   Cl6   S    
C6    C16   A    
C43   F9    S    
O4    C2    A    
C39   Cl5   S    
C41   C45   S    
O20   V3    S    
C30   Cl26  S    
C42   C50   S    
C50   F6    S    
O13   C53   A    
C38   C46   S    
O4    V2    S    
O5    C3    A    
C43   C45   S    
C18   C20   A    
C15   C29   A    
C28   C30   A    
O6    C4    A    
O12   C56   A    
C54   O17   A    
C19   C21   A    
C19   Cl19  S    
C22   C32   A    
C53   O18   A    
O1    V2    S    
O2    V1    S    
C31   C33   A    
C13   C23   A    
C32   Cl22  S    
C14   C24   A    
C8    C10   A    
C27   F11   S    
C9    C11   A    
C41   F3    S    
C10   C12   A    
C8    C53   S    
C39   C47   S    
C5    C7    A    
C24   C26   A    
O3    V1    S    
C36   Cl24  S    
C42   C46   S    
O19   V4    S    
C35   Cl23  S    
C1    C48   S    
C18   Cl18  S    
C14   C16   A    
C2    C47   S    
C42   Cl12  S    
C51   Cl7   S    
C4    C33   S    
O3    C1    A    
C50   Cl16  S    
C13   C15   A    
C47   C51   S    
O11   C55   A    
C48   C52   S    
C37   Cl3   S    
C40   F2    S    
O7    V1    S    
C10   Cl14  S    
C1    O8    A    
C25   C27   A    
O8    V2    S    
C26   C28   A    
C37   F13   S    
O5    V1    S    
C21   C23   A    
C22   C24   A    
C44   C46   S    
C5    Cl1   S    
C11   C13   A    
C44   F10   S    
C12   C18   A    
C9    Cl13  S    
C52   Cl10  S    
O16   V4    S    
O9    V2    S    
O14   C54   A    
O10   V1    S    
C17   Cl17  S    
C3    C34   S    
C29   Cl25  S    
C7    C54   S    
C21   C31   A    
O13   V3    S    
C49   F5    S    
C20   C22   A    
C7    C9    A    
