data_mof_unit_53552.cif
_audit_creation_date              2012-12-10T17:57:26-0500
_audit_creation_method            fapswitch 2.2
_symmetry_space_group_name_H-M    P1
_symmetry_Int_Tables_number       1
_space_group_crystal_system       triclinic
_cell_length_a                    9.544635
_cell_length_b                    10.81568
_cell_length_c                    13.415842
_cell_angle_alpha                 90.809516
_cell_angle_beta                  72.126106
_cell_angle_gamma                 90.339255
_cell_volume                      1317.96197891

loop_
_atom_site_label
_atom_site_type_symbol
_atom_type_description
_atom_site_fract_x
_atom_site_fract_y
_atom_site_fract_z
_atom_type_partial_charge
C1    C     C_R   0.502140 0.737617 0.495397 0.822828
C2    C     C_R   0.437718 0.490966 0.978034 0.017125
C3    C     C_R   0.467524 0.450208 0.872294 0.028403
C4    C     C_R   0.546548 0.474809 0.029256 0.065479
C5    C     C_R   0.679823 0.413123 0.976449 0.108958
C6    C     C_R   0.700677 0.362628 0.876999 -0.313527
C7    C     C_R   0.592995 0.374847 0.826586 0.412748
C8    C     C_R   0.525057 0.514390 0.133073 -0.194692
C9    C     C_R   0.760101 0.430398 0.131029 -0.208982
C10   C     C_R   0.367271 0.481708 0.816811 -0.151680
C11   C     C_R   0.598793 0.936444 0.533754 -0.185497
C12   C     C_R   0.419826 0.491624 0.700548 0.863870
C13   C     C_R   0.597760 0.064225 0.536727 -0.133986
C14   C     C_R   0.500690 0.128573 0.496939 -0.048308
C15   C     C_R   0.407979 0.065119 0.450899 -0.210852
C16   C     C_R   0.411969 0.936666 0.443220 -0.012532
C17   C     C_R   0.505071 0.871657 0.488890 -0.097661
C18   C     C_R   0.903707 0.589519 0.552980 -0.038232
C19   C     C_R   0.052295 0.589406 0.553091 -0.042556
C20   C     C_R   0.093475 0.409187 0.447406 0.508235
C21   C     C_R   0.945352 0.409797 0.448753 -0.011475
C22   C     C_R   0.499810 0.262275 0.499757 0.823240
C23   C     C_R   0.579317 0.499253 0.299730 0.812548
C24   C     C_R   0.787366 0.395074 0.026591 -0.131490
C25   C     C_R   0.625972 0.485868 0.185528 -0.047746
C26   C     C_R   0.222344 0.520552 0.874710 -0.024522
C27   C     C_R   0.191239 0.551880 0.980089 -0.189582
C28   C     C_R   0.297838 0.542296 0.029922 -0.170194
Cu1   Cu    Cu3+1 0.359340 0.499980 0.500000 1.005569
Cu2   Cu    Cu3+1 0.640660 0.500020 0.500000 0.968664
H1    H     H_    0.840118 0.408358 0.170443 0.153722
H2    H     H_    0.670812 0.112595 0.571872 0.165574
H3    H     H_    0.337447 0.116137 0.416479 0.209976
H4    H     H_    0.830168 0.661231 0.595712 0.135668
H5    H     H_    0.090083 0.660853 0.595973 0.152042
H6    H     H_    0.905716 0.338106 0.407081 0.149103
H7    H     H_    0.798294 0.308024 0.840374 0.178351
H8    H     H_    0.889502 0.347980 0.986647 0.155880
H9    H     H_    0.428208 0.564090 0.177238 0.171194
H10   H     H_    0.262923 0.570293 0.111030 0.145610
H11   H     H_    0.082388 0.583972 0.024906 0.174692
H12   H     H_    0.671148 0.888202 0.568460 0.155387
N1    N     N_R   0.147940 0.499970 0.499970 -0.199627
N2    N     N_R   0.852060 0.500060 0.499990 -0.197521
O1    O     O_R   0.381250 0.680340 0.500010 -0.571124
O2    O     O_R   0.618820 0.680370 0.500010 -0.592941
O3    O     O_R   0.323240 0.499950 0.650980 -0.559716
O4    O     O_R   0.560810 0.499980 0.650980 -0.541566
O5    O     O_R   0.381180 0.319630 0.499990 -0.571029
O6    O     O_R   0.618750 0.319660 0.499990 -0.580087
O7    O     O_R   0.439190 0.500020 0.349020 -0.598775
O8    O     O_R   0.676760 0.500050 0.349020 -0.587663
C29   C     C_2   0.323894 0.875924 0.382314 0.846819
O9    O     O_2   0.374682 0.788783 0.323470 -0.604857
O10   O     O_R   0.184766 0.922187 0.388953 -0.754810
H13   H     H_    0.135832 0.873975 0.343338 0.333778
O11   O     O_3   0.177414 0.312849 0.393298 -0.752278
H14   H     H_    0.278638 0.342173 0.362846 0.356386
C30   C     C_2   0.097536 0.525775 0.830931 0.838807
O12   O     O_2   0.071108 0.437444 0.781610 -0.593154
O13   O     O_R   0.004371 0.628547 0.851994 -0.766529
H15   H     H_    0.921087 0.619928 0.820213 0.326527
O14   O     O_3   0.601363 0.303884 0.738377 -0.722864
H16   H     H_    0.695087 0.256988 0.716999 0.320872

loop_
_geom_bond_atom_site_label_1
_geom_bond_atom_site_label_2
_ccdc_geom_bond_type
C24   H8    S    
O10   H13   S    
C4    C8    A    
C9    C24   A    
C6    C7    A    
C8    H9    S    
C18   N2    A    
C21   N2    A    
C11   C13   A    
C26   C30   S    
C27   H11   S    
C13   H2    S    
C1    C17   S    
C22   O6    A    
C12   O4    A    
C1    O1    A    
C10   C26   A    
C29   O10   S    
C2    C3    A    
C23   O8    A    
C6    H7    S    
C9    C25   A    
C30   O12   D    
C3    C10   A    
Cu1   O5    S    
C29   O9    D    
Cu1   N1    S    
C8    C25   A    
C18   H4    S    
C7    O14   S    
C26   C27   A    
C5    C6    A    
C5    C24   A    
C10   C12   S    
Cu1   O3    S    
C12   O3    A    
C2    C4    A    
Cu2   O4    S    
C19   N1    A    
C19   H5    S    
C3    C7    A    
Cu2   N2    S    
C23   C25   S    
Cu2   O6    S    
O13   H15   S    
C1    O2    A    
C30   O13   S    
C9    H1    S    
Cu1   Cu2   S    
C15   C16   A    
Cu2   O8    S    
C20   N1    A    
C20   C21   A    
C11   H12   S    
C14   C22   S    
C18   C19   A    
Cu1   O7    S    
C22   O5    A    
C27   C28   A    
C21   H6    S    
C28   H10   S    
C14   C15   A    
C11   C17   A    
C2    C28   A    
O11   H14   S    
C13   C14   A    
C4    C5    A    
C20   O11   S    
Cu2   O2    S    
Cu1   O1    S    
C23   O7    A    
O14   H16   S    
C15   H3    S    
C16   C17   A    
C16   C29   S    
