data_mof_unit_67095.cif
_audit_creation_date              2013-03-05T15:58:17-0500
_audit_creation_method            fapswitch 2.2
_symmetry_space_group_name_H-M    P1
_symmetry_Int_Tables_number       1
_space_group_crystal_system       triclinic
_cell_length_a                    8.288266
_cell_length_b                    12.706075
_cell_length_c                    14.399784
_cell_angle_alpha                 93.789415
_cell_angle_beta                  91.072406
_cell_angle_gamma                 98.279795
_cell_volume                      1496.76065796

loop_
_atom_site_label
_atom_site_type_symbol
_atom_site_description
_atom_site_fract_x
_atom_site_fract_y
_atom_site_fract_z
_atom_type_partial_charge
P1    P     P_3+3 0.054400 0.427280 0.286870 0.455920
O1    O     O_2   0.887370 0.460630 0.272300 -0.367480
O2    O     O_3   0.129410 0.451380 0.388510 -0.393869
O3    O     O_3   0.670210 0.653170 0.329170 -0.390510
O4    O     O_2   0.775449 0.586019 0.164670 -0.367936
O5    O     O_3   0.019295 0.289119 0.261479 -0.583789
O6    O     O_3   0.708688 0.780931 0.174570 -0.528475
H1    H     H_    0.731576 0.871817 0.299218 0.130429
C1    C     C_3   0.633037 0.955629 0.190561 -1.041305
H2    H     H_    0.619860 0.021136 0.243893 0.253832
H3    H     H_    0.744092 0.979113 0.150451 0.265807
P2    P     P_3+3 0.668300 0.742890 0.573060 0.437139
P3    P     P_3+3 0.135874 0.842827 0.382412 0.443422
O7    O     O_2   0.845380 0.761330 0.544970 -0.368640
O8    O     O_3   0.088930 0.704860 0.376040 -0.393106
O9    O     O_2   0.015859 0.889314 0.448434 -0.381127
O10   O     O_3   0.683090 0.766345 0.694352 -0.590568
O11   O     O_3   0.092960 0.887607 0.274165 -0.548182
C2    C     C_3   0.110129 0.804869 0.206461 0.355628
H4    H     H_    0.015480 0.734346 0.215976 0.162882
H5    H     H_    0.234680 0.780150 0.211519 0.001871
C3    C     C_3   0.087868 0.844559 0.110176 -0.426880
H6    H     H_    0.009453 0.908629 0.114331 0.229515
C4    C     C_3   0.173093 0.782317 0.695994 0.616820
H7    H     H_    0.126944 0.751888 0.624684 0.094589
C5    C     C_3   0.075437 0.868925 0.732210 -0.923221
H8    H     H_    0.131265 0.908758 0.798213 0.248324
H9    H     H_    0.075595 0.928837 0.680419 0.254625
H10   H     H_    0.949263 0.835625 0.746409 0.263710
Ba1   Ba    Ba6+2 0.855630 0.555280 0.454520 1.535191
C6    C     C_3   0.961921 0.236654 0.339435 0.357025
H11   H     H_    0.832414 0.245668 0.347773 0.083836
H12   H     H_    0.033136 0.266583 0.404453 0.143239
C7    C     C_3   0.976739 0.119136 0.322266 -0.885663
H13   H     H_    0.926820 0.088954 0.251970 0.252183
H14   H     H_    0.908811 0.071954 0.374836 0.231529
H15   H     H_    0.107392 0.108447 0.326427 0.273916
C8    C     C_3   0.690356 0.671134 0.737627 0.408111
H16   H     H_    0.816264 0.651726 0.734793 0.068500
H17   H     H_    0.604554 0.602463 0.706103 0.157603
C9    C     C_3   0.644078 0.687456 0.838627 -0.997910
H18   H     H_    0.718225 0.759999 0.872427 0.266087
H19   H     H_    0.663226 0.617071 0.876903 0.242439
H20   H     H_    0.514334 0.698983 0.841615 0.268641
P4    P     P_3+3 0.135310 0.572810 0.713130 0.441583
O12   O     O_2   0.302330 0.539400 0.727760 -0.363564
O13   O     O_3   0.060300 0.548700 0.611500 -0.404425
O14   O     O_3   0.519500 0.346920 0.670840 -0.343390
O15   O     O_3   0.156851 0.704681 0.760303 -0.621154
P5    P     P_3+3 0.062379 0.156503 0.622602 0.482569
O16   O     O_3   0.614310 0.373510 0.452640 -0.396574
O17   O     O_3   0.100780 0.295230 0.623970 -0.356679
O18   O     O_2   0.200210 0.113233 0.567684 -0.365408
O19   O     O_3   0.094483 0.123538 0.737031 -0.493268
Ba2   Ba    Ba6+2 0.334200 0.444810 0.545490 1.549639
P6    P     P_3+3 0.649253 0.651642 0.208094 0.462334
C10   C     C_3   0.646416 0.853261 0.237709 0.467731
H21   H     H_    0.522395 0.822163 0.261283 0.024436
H22   H     H_    0.524708 0.943326 0.141980 0.255380
O20   O     O_3   0.575400 0.626570 0.547370 -0.408605
C11   C     C_3   0.502052 0.299471 0.256482 0.256000
H23   H     H_    0.372164 0.310172 0.247721 0.083604
H24   H     H_    0.571724 0.373783 0.290116 0.136324
C12   C     C_3   0.576165 0.280693 0.162576 0.080180
H25   H     H_    0.522048 0.201445 0.128926 0.084308
H26   H     H_    0.707591 0.275715 0.174124 0.134479
P7    P     P_3+3 0.525533 0.240461 0.424444 0.422295
O21   O     O_2   0.344320 0.238700 0.455090 -0.348550
O22   O     O_3   0.511054 0.208551 0.304838 -0.637336
H27   H     H_    0.210657 0.878119 0.086255 0.164366
C13   C     C_3   0.966216 0.153201 0.790569 0.384424
H28   H     H_    0.978144 0.241334 0.800746 0.067381
H29   H     H_    0.846853 0.121294 0.756056 -0.050084
C14   C     C_3   0.968051 0.105678 0.885280 -0.417278
H30   H     H_    0.857049 0.117908 0.923934 0.135834
H31   H     H_    0.965912 0.018319 0.873571 0.191814
P8    P     P_3+3 0.539416 0.351067 0.791897 0.459825
C15   C     C_3   0.551718 0.157784 0.829099 0.436861
H32   H     H_    0.672507 0.194634 0.857018 -0.004365
O23   O     O_2   0.435403 0.433770 0.830986 -0.396304
O24   O     O_3   0.440874 0.231340 0.830661 -0.473688
H33   H     H_    0.563728 0.125842 0.756475 0.080667
H34   H     H_    0.568678 0.001928 0.878129 0.238920
C16   C     C_3   0.495225 0.067705 0.891313 -1.010728
H35   H     H_    0.364871 0.036144 0.877694 0.293178
H36   H     H_    0.512821 0.097202 0.965705 0.241789
C17   C     C_R   0.988171 0.440700 0.057481 -0.142684
C18   C     C_R   0.178877 0.498360 0.195560 0.244458
C19   C     C_R   0.332534 0.549653 0.226149 -0.480665
C20   C     C_R   0.442404 0.598373 0.164776 0.322983
C21   C     C_R   0.396222 0.604944 0.071797 -0.297100
C22   C     C_R   0.243572 0.553916 0.036699 0.022221
C23   C     C_R   0.134280 0.497231 0.097645 -0.057361
H37   H     H_    0.369913 0.548119 0.298350 0.168765
C24   C     C_R   0.059057 0.497101 0.899802 -0.010446
C25   C     C_R   0.949563 0.441700 0.960935 0.078855
C26   C     C_R   0.015491 0.493922 0.801372 0.299629
C27   C     C_R   0.862057 0.442083 0.770650 -0.488794
C28   C     C_R   0.751369 0.395576 0.832668 0.177949
C29   C     C_R   0.797923 0.390781 0.925664 -0.325962
C30   C     C_R   0.204704 0.554323 0.940153 -0.144231
H38   H     H_    0.482533 0.645653 0.025929 0.165967
H39   H     H_    0.714796 0.347560 0.970481 0.193638
H40   H     H_    0.823862 0.444297 0.698647 0.168523
H41   H     H_    0.902660 0.395832 0.100817 0.186723
H42   H     H_    0.289844 0.599535 0.897092 0.178265
C31   C     C_R   0.767684 0.175983 0.532510 -0.492341
C32   C     C_R   0.432766 0.811916 0.461572 -0.502989
C33   C     C_R   0.411658 0.992492 0.426117 -0.220387
C34   C     C_R   0.345858 0.885539 0.423885 0.223052
C35   C     C_R   0.581544 0.845164 0.509018 0.303855
C36   C     C_R   0.648919 0.955778 0.514643 -0.059445
C37   C     C_R   0.561461 0.029981 0.472798 -0.064137
C38   C     C_R   0.621370 0.140319 0.483526 0.291324
C39   C     C_R   0.858897 0.104306 0.569509 0.186357
C40   C     C_R   0.796085 0.995715 0.564308 -0.205351
H43   H     H_    0.339591 0.045837 0.395239 0.191699
H44   H     H_    0.862391 0.943556 0.599387 0.180146
H45   H     H_    0.814585 0.260213 0.538114 0.162969
H46   H     H_    0.378399 0.729146 0.459862 0.180419
O25   O     O_3   0.563278 0.367595 0.108303 -0.613751
C41   C     C_3   0.426159 0.342830 0.047289 -0.223967
H47   H     H_    0.310551 0.334466 0.085923 0.132495
H48   H     H_    0.433357 0.269992 0.001769 0.178971
H49   H     H_    0.427567 0.407811 0.000353 0.222227
N1    N     N_2   0.109687 0.153931 0.941213 -0.037920
H50   H     H_    0.106730 0.233254 0.961184 0.197130
C42   C     C_3   0.144775 0.093234 0.018680 -0.875955
H51   H     H_    0.043651 0.089707 0.068526 0.244885
H52   H     H_    0.258714 0.130349 0.056137 0.235183
H53   H     H_    0.162872 0.012118 0.992568 0.252148
N2    N     N_2   0.010128 0.759546 0.044979 -0.068673
H54   H     H_    0.016809 0.682292 0.061884 0.215948
C43   C     C_3   0.038465 0.776645 0.948125 -0.824240
H55   H     H_    0.972436 0.708817 0.904420 0.259030
H56   H     H_    0.170950 0.782631 0.934129 0.260408
H57   H     H_    0.991584 0.850261 0.930011 0.238799
N3    N     N_2   0.344692 0.822176 0.695140 -0.098737
H58   H     H_    0.402943 0.767122 0.659859 0.180046
C44   C     C_3   0.400378 0.931726 0.676565 -0.920464
H59   H     H_    0.535323 0.946361 0.684095 0.255566
H60   H     H_    0.352863 0.987438 0.726835 0.291600
H61   H     H_    0.356589 0.947799 0.607031 0.264689

loop_
_geom_bond_atom_site_label_1
_geom_bond_atom_site_label_2
_geom_bond_distance
_ccdc_geom_bond_type
O14   Ba2   2.811938 S    
Ba1   O16   2.827479 S    
N1    H50   1.033533 S    
C11   C12   1.514409 S    
C7    H15   1.111620 S    
C9    H18   1.109287 S    
C32   H46   1.081372 S    
O4    P6    1.544987 D    
C35   C36   1.432116 A    
C44   H61   1.100345 S    
C42   H51   1.111599 S    
C43   H57   1.107737 S    
Ba2   O21   2.859489 S    
C20   C21   1.396742 A    
C33   H43   1.077221 S    
P4    O12   1.520214 D    
C5    H8    1.107284 S    
P5    O19   1.751647 S    
C14   H31   1.109189 S    
P3    O11   1.742027 S    
C2    H5    1.123931 S    
P7    C38   1.839206 S    
C16   H36   1.111130 S    
O11   C2    1.410225 S    
C8    H16   1.107195 S    
C7    H13   1.109149 S    
C12   O25   1.409369 S    
C25   C29   1.398092 A    
C4    O15   1.391372 S    
P1    O1    1.519853 D    
C19   H37   1.081511 S    
C11   H24   1.109784 S    
P1    Ba1   3.404235 S    
O2    Ba2   2.814227 S    
O19   C13   1.405090 S    
C28   C29   1.394296 A    
C32   C34   1.391039 A    
N2    H54   1.035660 S    
Ba1   O20   2.926568 S    
O12   Ba2   2.846658 S    
C24   C30   1.410177 A    
P5    O17   1.744218 S    
C6    H12   1.112275 S    
P4    O15   1.749188 S    
C1    H2    1.113254 S    
C7    H14   1.108210 S    
O17   Ba2   2.817602 S    
C33   C37   1.405855 A    
P2    Ba1   3.410891 S    
P1    C18   1.883684 S    
P6    C20   1.832042 S    
O5    C6    1.399373 S    
Ba2   O20   2.826803 S    
O3    P6    1.747410 S    
C9    H19   1.109737 S    
O6    P6    1.747859 S    
O7    Ba1   2.859280 S    
C31   H45   1.081950 S    
C36   C37   1.425840 A    
C26   C27   1.394970 A    
P4    O13   1.572856 S    
C44   H59   1.109136 S    
P5    O18   1.545929 D    
C14   H30   1.108738 S    
P7    O21   1.570830 D    
Ba1   O13   2.813659 S    
C2    C3    1.523262 S    
C4    H7    1.113748 S    
C8    C9    1.519627 S    
C21   C22   1.404644 A    
C13   H29   1.108848 S    
C15   H32   1.099173 S    
C43   H56   1.112848 S    
O16   Ba2   2.925776 S    
C4    N3    1.439960 S    
C29   H39   1.071102 S    
P1    O5    1.750469 S    
P1    O2    1.572978 S    
C12   H26   1.110254 S    
O14   P8    1.744510 S    
P2    O10   1.751298 S    
O2    Ba1   2.927983 S    
C31   C38   1.393179 A    
P3    C34   1.823839 S    
H1    C10   1.113253 S    
C15   H33   1.108006 S    
H34   C16   1.111339 S    
C17   H41   1.078856 S    
P8    O24   1.750524 S    
C17   C25   1.422036 A    
C6    C7    1.520195 S    
O16   P7    1.761819 S    
C16   H35   1.106090 S    
C1    H3    1.110599 S    
C31   C39   1.390034 A    
O25   C41   1.409115 S    
N3    C44   1.445998 S    
C22   C30   1.421714 A    
P2    O7    1.519316 D    
P3    O8    1.736046 S    
C9    H20   1.107224 S    
C21   H38   1.082500 S    
C41   H48   1.107666 S    
C42   H53   1.105245 S    
C36   C40   1.413454 A    
C3    H27   1.115246 S    
O8    Ba1   2.817008 S    
O13   Ba2   2.928757 S    
C37   C38   1.415599 A    
P8    O23   1.537910 D    
C11   O22   1.397917 S    
C30   H42   1.076635 S    
C18   C23   1.449514 A    
N1    C42   1.445650 S    
C3    N2    1.451273 S    
C6    H11   1.103678 S    
C4    C5    1.527928 S    
C42   H52   1.106422 S    
C13   C14   1.528259 S    
C24   C26   1.452598 A    
C43   H55   1.103587 S    
C44   H60   1.097008 S    
Ba1   Ba2   4.590369 S    
C5    H9    1.100216 S    
C32   C35   1.395015 A    
O1    Ba1   2.846117 S    
C12   H25   1.116762 S    
C2    H4    1.120223 S    
C19   C20   1.390529 A    
C13   H28   1.109565 S    
P4    C26   1.880008 S    
C33   C34   1.387560 A    
P5    C39   1.852359 S    
C8    H17   1.109039 S    
C15   O24   1.401189 S    
C10   H21   1.114357 S    
C14   N1    1.447313 S    
C41   H49   1.099967 S    
C27   H40   1.081743 S    
C17   C23   1.408993 A    
C22   C23   1.426495 A    
C40   H44   1.065438 S    
P8    C28   1.839012 S    
C1    C10   1.523313 S    
O10   C8    1.405231 S    
C11   H23   1.110267 S    
N3    H58   1.019800 S    
P2    O20   1.582221 S    
C15   C16   1.526006 S    
C18   C19   1.393811 A    
P4    Ba2   3.404700 S    
C5    H10   1.098391 S    
N2    C43   1.443995 S    
C27   C28   1.390186 A    
P3    O9    1.540312 D    
C24   C25   1.421918 A    
C3    H6    1.111801 S    
P7    O22   1.740996 S    
C41   H47   1.112359 S    
C1    H22   1.114256 S    
O6    C10   1.407608 S    
P2    C35   1.859808 S    
O3    Ba1   2.812533 S    
C39   C40   1.399428 A    
