data_mof_unit_48983.cif
_audit_creation_date              2012-12-11T15:18:11-0500
_audit_creation_method            fapswitch 2.2
_symmetry_space_group_name_H-M    P1
_symmetry_Int_Tables_number       1
_space_group_crystal_system       triclinic
_cell_length_a                    15.653411
_cell_length_b                    15.653533
_cell_length_c                    34.458711
_cell_angle_alpha                 89.804477
_cell_angle_beta                  89.808679
_cell_angle_gamma                 119.509214
_cell_volume                      7347.97870971

loop_
_atom_site_label
_atom_site_type_symbol
_atom_type_description
_atom_site_fract_x
_atom_site_fract_y
_atom_site_fract_z
_atom_type_partial_charge
C1    C     C_R   0.576768 0.441968 0.554440 0.576129
C2    C     C_R   0.506421 0.997012 0.210759 0.352786
C3    C     C_3   0.626271 0.650296 0.581226 -0.239680
C4    C     C_3   0.570517 0.708288 0.580649 -0.320063
C5    C     C_3   0.622592 0.799733 0.555024 -0.442604
C6    C     C_3   0.353283 0.973109 0.570410 -0.236541
C7    C     C_3   0.258018 0.875720 0.577856 -0.316780
C8    C     C_3   0.185027 0.852515 0.544887 -0.439344
C9    C     C_3   0.365818 0.018359 0.083195 -0.240287
C10   C     C_3   0.418359 0.131220 0.082945 -0.321496
C11   C     C_3   0.363667 0.169467 0.058104 -0.438625
C12   C     C_3   0.650300 0.626299 0.081224 -0.239656
C13   C     C_R   0.492702 0.490725 0.210184 0.351224
C14   C     C_3   0.708382 0.570636 0.080691 -0.320109
C15   C     C_3   0.799742 0.622643 0.055017 -0.442613
C16   C     C_3   0.973055 0.353306 0.070397 -0.236517
C17   C     C_3   0.875630 0.258070 0.077833 -0.316770
C18   C     C_3   0.852388 0.185100 0.044854 -0.439468
C19   C     C_R   0.922178 0.475839 0.199420 0.346018
C20   C     C_R   0.019000 0.437842 0.851948 -0.116786
C21   C     C_R   0.562029 0.585570 0.850575 -0.120762
C22   C     C_R   0.342415 0.833219 0.835228 -0.113751
C23   C     C_R   0.438077 0.019514 0.351858 -0.116779
C24   C     C_R   0.585549 0.562047 0.350579 -0.120758
C25   C     C_R   0.833192 0.342407 0.335228 -0.113747
C26   C     C_R   0.047600 0.448473 0.890563 -0.127748
C27   C     C_R   0.558423 0.136192 0.555037 0.588678
C28   C     C_R   0.551767 0.602796 0.889373 -0.134087
C29   C     C_R   0.331925 0.823420 0.875448 -0.127133
C30   C     C_R   0.448597 0.047907 0.390496 -0.127717
C31   C     C_R   0.602778 0.551779 0.389377 -0.134081
C32   C     C_R   0.823396 0.331919 0.375449 -0.127113
C33   C     C_R   0.073538 0.614425 0.890248 -0.138640
C34   C     C_R   0.388280 0.461029 0.890487 -0.129825
C35   C     C_R   0.488361 0.827760 0.879960 -0.128470
C36   C     C_R   0.614480 0.073646 0.390238 -0.138656
C37   C     C_R   0.461028 0.388282 0.390486 -0.129828
C38   C     C_R   0.865092 0.422780 0.554486 0.592154
C39   C     C_R   0.827772 0.488370 0.379957 -0.128463
C40   C     C_R   0.044773 0.603762 0.851507 -0.120655
C41   C     C_R   0.398823 0.443400 0.851652 -0.115929
C42   C     C_R   0.499448 0.838720 0.839700 -0.115107
C43   C     C_R   0.603923 0.045079 0.351475 -0.120675
C44   C     C_R   0.443397 0.398830 0.351651 -0.115924
C45   C     C_R   0.838731 0.499456 0.339697 -0.115096
C46   C     C_R   0.021851 0.516948 0.831584 0.036382
C47   C     C_R   0.483942 0.508450 0.830951 0.035827
C48   C     C_R   0.427111 0.842800 0.816977 0.036221
C49   C     C_R   0.441970 0.576766 0.054440 0.576334
C50   C     C_R   0.517207 0.022366 0.331517 0.036408
C51   C     C_R   0.508439 0.483958 0.330953 0.035831
C52   C     C_R   0.842793 0.427111 0.316975 0.036223
C53   C     C_R   0.080046 0.538580 0.909373 0.025254
C54   C     C_R   0.462910 0.543672 0.909026 0.024593
C55   C     C_R   0.405496 0.822355 0.898294 0.021228
C56   C     C_R   0.538624 0.080161 0.409348 0.025266
C57   C     C_R   0.543665 0.462914 0.409027 0.024591
C58   C     C_R   0.822351 0.405498 0.398293 0.021222
C59   C     C_R   0.578273 0.442620 0.445546 0.528006
C60   C     C_R   0.136194 0.558423 0.055038 0.588685
C61   C     C_R   0.557903 0.135434 0.445612 0.529830
C62   C     C_R   0.809246 0.392027 0.440725 0.560558
C63   C     C_R   0.442619 0.578275 0.945545 0.527982
C64   C     C_R   0.135430 0.557904 0.945612 0.529822
C65   C     C_R   0.392025 0.809246 0.940725 0.560557
C66   C     C_R   0.922271 0.460420 0.590698 0.034345
C67   C     C_R   0.537390 0.461385 0.590407 0.031454
C68   C     C_R   0.534590 0.070690 0.589412 0.030720
C69   C     C_R   0.460429 0.922197 0.090708 0.034537
C70   C     C_R   0.461395 0.537385 0.090405 0.031578
C71   C     C_R   0.422774 0.865070 0.054491 0.592220
C72   C     C_R   0.070701 0.534592 0.089414 0.030697
C73   C     C_R   0.979946 0.421809 0.606769 -0.041367
C74   C     C_R   0.572492 0.557327 0.605555 -0.044865
C75   C     C_R   0.436860 0.996850 0.598670 -0.055882
C76   C     C_R   0.422270 0.980348 0.106690 -0.041489
C77   C     C_R   0.557338 0.572511 0.105556 -0.044707
C78   C     C_R   0.996833 0.436870 0.098665 -0.055899
C79   C     C_R   0.004358 0.437697 0.646324 -0.113557
C80   C     C_R   0.555864 0.566905 0.645004 -0.116922
C81   C     C_R   0.419359 0.946701 0.634507 -0.117916
C82   C     C_R   0.996385 0.505976 0.710826 0.352819
C83   C     C_R   0.438360 0.005063 0.146214 -0.113748
C84   C     C_R   0.566919 0.555901 0.145008 -0.116812
C85   C     C_R   0.946689 0.419367 0.134504 -0.117921
C86   C     C_R   0.981416 0.498500 0.668631 -0.038621
C87   C     C_R   0.497564 0.484141 0.668033 -0.040419
C88   C     C_R   0.496345 0.965677 0.660005 -0.044033
C89   C     C_R   0.498856 0.981821 0.168580 -0.038615
C90   C     C_R   0.484156 0.497582 0.168033 -0.040402
C91   C     C_R   0.965694 0.496347 0.160007 -0.044048
C92   C     C_R   0.938646 0.548245 0.650804 -0.080208
C93   C     C_R   0.490702 0.492692 0.710182 0.351210
C94   C     C_R   0.450592 0.391499 0.651029 -0.081261
C95   C     C_R   0.592674 0.032676 0.648951 -0.081907
C96   C     C_R   0.548108 0.938434 0.150844 -0.080143
C97   C     C_R   0.391517 0.450580 0.151026 -0.081192
C98   C     C_R   0.032724 0.592673 0.148959 -0.081890
C99   C     C_R   0.908466 0.529115 0.612544 0.352603
C100  C     C_R   0.470707 0.379632 0.612911 0.353060
C101  C     C_R   0.611772 0.085065 0.614364 0.357193
C102  C     C_R   0.528798 0.908012 0.112619 0.352721
C103  C     C_R   0.379648 0.470684 0.112906 0.353164
C104  C     C_R   0.475837 0.922167 0.699419 0.346027
C105  C     C_R   0.085110 0.611769 0.114373 0.357258
C106  C     C_R   0.009429 0.511506 0.789250 0.346882
C107  C     C_R   0.488085 0.501353 0.788605 0.347044
C108  C     C_R   0.442605 0.863671 0.774913 0.348832
C109  C     C_R   0.511877 0.010086 0.289179 0.346873
C110  C     C_R   0.501347 0.488107 0.288607 0.347046
C111  C     C_R   0.863668 0.442606 0.274911 0.348832
C112  C     C_3   0.017681 0.365026 0.583333 -0.240081
C113  C     C_3   0.130525 0.416687 0.583402 -0.321482
C114  C     C_3   0.168474 0.361905 0.558455 -0.438545
Cr1   Cr    Cr6+3 0.522350 0.263930 0.500020 1.055256
Cr2   Cr    Cr6+3 0.736070 0.258420 0.500020 1.049791
Cr3   Cr    Cr6+3 0.741580 0.477650 0.500020 1.061578
Cr4   Cr    Cr6+3 0.263930 0.522350 0.000020 1.055324
Cr5   Cr    Cr6+3 0.258420 0.736070 0.000020 1.049894
Cr6   Cr    Cr6+3 0.477650 0.741580 0.000020 1.061408
F1    F     F_    0.859487 0.573548 0.598070 -0.620919
F2    F     F_    0.429709 0.286401 0.599296 -0.621009
F3    F     F_    0.706118 0.154016 0.606440 -0.618521
F4    F     F_    0.572716 0.858439 0.098251 -0.620775
F5    F     F_    0.286417 0.429659 0.099286 -0.620968
F6    F     F_    0.154090 0.706108 0.106454 -0.618312
H1    H     H_    0.050441 0.388187 0.904858 0.131026
H2    H     H_    0.403153 0.042290 0.159626 0.148707
H3    H     H_    0.639254 0.589180 0.157860 0.150094
H4    H     H_    0.893576 0.345624 0.143284 0.146476
H5    H     H_    0.922215 0.597407 0.667169 0.170274
H6    H     H_    0.403319 0.326584 0.667972 0.170791
H7    H     H_    0.653524 0.048564 0.668022 0.169521
H8    H     H_    0.596995 0.921711 0.167260 0.170317
H9    H     H_    0.326605 0.403291 0.167966 0.170796
H10   H     H_    0.048635 0.653518 0.168034 0.169556
H11   H     H_    0.999404 0.369251 0.837561 0.139999
H12   H     H_    0.610996 0.666428 0.903146 0.129476
H13   H     H_    0.629309 0.635587 0.835510 0.139192
H14   H     H_    0.285148 0.835761 0.818581 0.141638
H15   H     H_    0.369555 0.000065 0.337440 0.140000
H16   H     H_    0.635560 0.629334 0.335516 0.139197
H17   H     H_    0.835718 0.285134 0.318582 0.141633
H18   H     H_    0.096912 0.684156 0.904332 0.117988
H19   H     H_    0.319247 0.413995 0.905097 0.129747
H20   H     H_    0.545014 0.824311 0.896710 0.135214
H21   H     H_    0.684149 0.096876 0.404353 0.118001
H22   H     H_    0.414002 0.319242 0.405094 0.129735
H23   H     H_    0.266292 0.817182 0.888710 0.124087
H24   H     H_    0.824338 0.545030 0.396706 0.135219
H25   H     H_    0.046344 0.665558 0.836621 0.136249
H26   H     H_    0.337884 0.382577 0.837303 0.141012
H27   H     H_    0.565021 0.844763 0.826426 0.140689
H28   H     H_    0.665731 0.046639 0.336605 0.136227
H29   H     H_    0.382580 0.337890 0.337300 0.141017
H30   H     H_    0.844789 0.565036 0.326421 0.140695
H31   H     H_    0.139736 0.285841 0.569544 0.171065
H32   H     H_    0.145499 0.359313 0.527818 0.156331
H33   H     H_    0.249943 0.400423 0.559451 0.155664
H34   H     H_    0.388303 0.050759 0.404777 0.131047
H35   H     H_    0.160863 0.492683 0.571894 0.166221
H36   H     H_    0.158184 0.421031 0.613378 0.170752
H37   H     H_    0.986996 0.289942 0.595811 0.179647
H38   H     H_    0.995336 0.357879 0.552592 0.177346
H39   H     H_    0.697906 0.848886 0.565914 0.169057
H40   H     H_    0.626897 0.778919 0.524590 0.153388
H41   H     H_    0.581039 0.840310 0.555518 0.152007
H42   H     H_    0.495130 0.660827 0.569372 0.164743
H43   H     H_    0.564437 0.731899 0.610406 0.171563
H44   H     H_    0.700928 0.696644 0.593326 0.181420
H45   H     H_    0.666404 0.611010 0.403153 0.129487
H46   H     H_    0.634462 0.634207 0.550652 0.173276
H47   H     H_    0.166431 0.912116 0.541717 0.163649
H48   H     H_    0.216369 0.844101 0.517133 0.152503
H49   H     H_    0.116640 0.782741 0.551360 0.168361
H50   H     H_    0.274760 0.814651 0.580408 0.164512
H51   H     H_    0.222657 0.880579 0.605150 0.177229
H52   H     H_    0.335786 0.033815 0.571019 0.203138
H53   H     H_    0.379469 0.969379 0.540745 0.147367
H54   H     H_    0.359918 0.145637 0.027532 0.156506
H55   H     H_    0.288056 0.141796 0.069524 0.171218
H56   H     H_    0.817145 0.266280 0.388712 0.124103
H57   H     H_    0.402961 0.250965 0.058794 0.155165
H58   H     H_    0.423691 0.159535 0.112862 0.170725
H59   H     H_    0.493988 0.160682 0.071160 0.166165
H60   H     H_    0.358029 0.995397 0.052521 0.177489
H61   H     H_    0.290972 0.988511 0.095814 0.179206
H62   H     H_    0.778811 0.626689 0.024576 0.153349
H63   H     H_    0.848838 0.698056 0.065823 0.169052
H64   H     H_    0.840428 0.581202 0.055567 0.152036
H65   H     H_    0.732104 0.564752 0.110451 0.171563
H66   H     H_    0.660946 0.495176 0.069480 0.164717
H67   H     H_    0.041121 0.402102 0.659807 0.148757
H68   H     H_    0.634182 0.634388 0.050641 0.173167
H69   H     H_    0.696595 0.700993 0.093297 0.181485
H70   H     H_    0.844002 0.216484 0.017105 0.152507
H71   H     H_    0.911956 0.166460 0.041680 0.163663
H72   H     H_    0.782588 0.116734 0.051320 0.167980
H73   H     H_    0.880458 0.222670 0.105122 0.177188
H74   H     H_    0.814593 0.274859 0.080388 0.164464
H75   H     H_    0.969352 0.379525 0.040735 0.147348
H76   H     H_    0.033731 0.335765 0.071005 0.203101
H77   H     H_    0.589118 0.639243 0.657852 0.150109
H78   H     H_    0.345613 0.893609 0.643292 0.146483
N1    N     N_R   0.014052 0.439746 0.768917 -0.222666
N2    N     N_R   0.437426 0.008305 0.230353 -0.212803
N3    N     N_R   0.573650 0.558416 0.229035 -0.211274
N4    N     N_R   0.883540 0.384472 0.215089 -0.217311
N5    N     N_R   0.992033 0.577921 0.731144 -0.220673
N6    N     N_R   0.421648 0.416263 0.731264 -0.223858
N7    N     N_R   0.549752 0.928764 0.722020 -0.223040
N8    N     N_R   0.578216 0.992439 0.231103 -0.220698
N9    N     N_R   0.416280 0.421654 0.231263 -0.223820
N10   N     N_R   0.928789 0.549757 0.222020 -0.223040
N11   N     N_R   0.999099 0.581053 0.769607 -0.222001
N12   N     N_R   0.556868 0.577991 0.767520 -0.222531
N13   N     N_R   0.419926 0.420742 0.769734 -0.222245
N14   N     N_R   0.533429 0.899877 0.758978 -0.218542
N15   N     N_R   0.581314 0.999521 0.269565 -0.221993
N16   N     N_R   0.420752 0.419931 0.269733 -0.222222
N17   N     N_R   0.899896 0.533434 0.258977 -0.218543
N18   N     N_R   0.368232 0.855042 0.752087 -0.219759
N19   N     N_R   0.440290 0.014972 0.268818 -0.222624
N20   N     N_R   0.577978 0.556908 0.267524 -0.222535
N21   N     N_R   0.855024 0.368230 0.252086 -0.219729
N22   N     N_R   0.007400 0.436846 0.730451 -0.212908
N23   N     N_R   0.558375 0.573655 0.729031 -0.211288
N24   N     N_R   0.384474 0.883552 0.715089 -0.217333
O1    O     O_R   0.498680 0.159540 0.541860 -0.499246
O2    O     O_R   0.358060 0.532760 0.040030 -0.428647
O3    O     O_R   0.174700 0.641940 0.040030 -0.438661
O4    O     O_R   0.467240 0.825300 0.040030 -0.423218
O5    O     O_R   0.498590 0.161190 0.456930 -0.529674
O6    O     O_R   0.838810 0.337400 0.456930 -0.525193
O7    O     O_R   0.662600 0.501410 0.456930 -0.544927
O8    O     O_R   0.161190 0.498590 0.956930 -0.529661
O9    O     O_R   0.337400 0.838810 0.956930 -0.525217
O10   O     O_R   0.501410 0.662600 0.956930 -0.544978
O11   O     O_R   0.532680 0.359580 0.461300 -0.512073
O12   O     O_R   0.840460 0.339140 0.541860 -0.497661
O13   O     O_R   0.640420 0.173100 0.461300 -0.532716
O14   O     O_R   0.826900 0.467320 0.461300 -0.507513
O15   O     O_R   0.359580 0.532680 0.961300 -0.512077
O16   O     O_R   0.173100 0.640420 0.961300 -0.532729
O17   O     O_R   0.467320 0.826900 0.961300 -0.507600
O18   O     O_3   0.666667 0.333333 0.499990 -0.281255
O19   O     O_3   0.333333 0.666667 0.999990 -0.281214
O20   O     O_R   0.660860 0.501320 0.541860 -0.496390
O21   O     O_R   0.159540 0.498680 0.041860 -0.499227
O22   O     O_R   0.339140 0.840460 0.041860 -0.497518
O23   O     O_R   0.501320 0.660860 0.041860 -0.496155
O24   O     O_R   0.532760 0.358060 0.540030 -0.428632
O25   O     O_R   0.641940 0.174700 0.540030 -0.438666
O26   O     O_R   0.825300 0.467240 0.540030 -0.423062

loop_
_geom_bond_atom_site_label_1
_geom_bond_atom_site_label_2
_ccdc_geom_bond_type
C56   C61   S    
C58   C62   S    
C22   C48   A    
C62   O6    A    
C22   C29   A    
C96   C102  A    
C13   C90   S    
C60   O3    A    
C61   O5    A    
C6    C7    S    
C59   O11   A    
C11   H55   S    
Cr6   O23   S    
C32   C58   A    
C83   H2    S    
C110  N20   A    
Cr6   O4    S    
C106  N1    A    
C85   C91   A    
C1    O24   A    
C7    C8    S    
C41   H26   S    
C69   C102  A    
C68   C75   A    
C40   C46   A    
C106  N11   A    
C82   N22   A    
C39   H24   S    
N5    N11   A    
N6    N13   A    
C20   C26   A    
C105  F6    S    
C17   H74   S    
C36   C56   A    
C32   H56   S    
C64   O8    A    
C80   C87   A    
C27   O25   A    
C6    H53   S    
C53   C64   S    
C8    H48   S    
C3    H46   S    
C57   C59   S    
C80   H77   S    
C54   C63   S    
C60   C72   S    
C87   C94   A    
C98   H10   S    
C84   H3    S    
C95   H7    S    
C10   H59   S    
C10   H58   S    
C7    H51   S    
C69   C76   A    
C111  N17   A    
C13   N9    A    
C49   O2    A    
C69   C71   S    
C35   C42   A    
Cr5   O19   S    
C114  H32   S    
C72   C78   A    
C27   C68   S    
C88   C104  S    
C113  H36   S    
C107  N13   A    
C27   O1    A    
C107  N12   A    
C38   C66   S    
C24   H16   S    
C16   C17   S    
C16   H76   S    
C18   H72   S    
C95   C101  A    
C71   O4    A    
C13   N3    A    
C62   O14   A    
C2    N2    A    
C9    C76   S    
C5    H39   S    
C43   H28   S    
C110  N16   A    
C9    C10   S    
C71   O22   A    
C100  F2    S    
C109  N19   A    
Cr5   O3    S    
C99   F1    S    
C82   N5    A    
C14   H66   S    
Cr3   O14   S    
C25   C32   A    
C5    H41   S    
C15   H63   S    
C88   C95   A    
N3    N20   A    
C37   H22   S    
C7    H50   S    
C74   C80   A    
C6    H52   S    
C70   C77   A    
C61   O13   A    
C65   O9    A    
C25   H17   S    
C34   C41   A    
C84   C90   A    
C63   O10   A    
C102  F4    S    
C76   C83   A    
C112  C113  S    
C55   C65   S    
N9    N16   A    
C34   H19   S    
C104  N24   A    
C81   H78   S    
Cr2   O25   S    
C33   H18   S    
C33   C53   A    
C83   C89   A    
C59   O7    A    
C8    H49   S    
N12   N23   A    
Cr1   O1    S    
C4    H43   S    
C35   C55   A    
C33   C40   A    
C23   C30   A    
C6    C75   S    
C92   H5    S    
C11   H57   S    
C68   C101  A    
C9    H60   S    
Cr5   O22   S    
C67   C74   A    
C28   C54   A    
C70   C103  A    
C75   C81   A    
C23   C50   A    
C96   H8    S    
Cr1   O24   S    
C29   C55   A    
C45   C52   A    
C82   C86   S    
C39   C58   A    
C18   H70   S    
C66   C99   A    
C1    O20   A    
C50   C109  S    
C94   H6    S    
C4    H42   S    
C40   H25   S    
C3    C74   S    
C35   H20   S    
C111  N21   A    
C20   H11   S    
C2    C89   S    
C30   H34   S    
C19   N4    A    
C114  H31   S    
Cr3   O18   S    
C109  N15   A    
N10   N17   A    
N4    N21   A    
C108  N18   A    
Cr3   O26   S    
C93   N23   A    
C36   H21   S    
C94   C100  A    
N2    N19   A    
C63   O15   A    
C12   C77   S    
C42   H27   S    
C18   H71   S    
C17   C18   S    
C41   C47   A    
C28   H12   S    
N1    N22   A    
C43   C50   A    
C45   H30   S    
C42   C48   A    
C5    H40   S    
C98   C105  A    
C97   C103  A    
C67   C100  A    
C101  F3    S    
C14   H65   S    
C78   C85   A    
Cr6   O19   S    
C15   H64   S    
C12   C14   S    
C34   C54   A    
C51   C110  S    
C47   C107  S    
C49   C70   S    
C60   O21   A    
C12   H69   S    
C38   O12   A    
Cr6   O17   S    
C21   H13   S    
C3    C4    S    
C26   C53   A    
Cr1   O5    S    
Cr4   O15   S    
C44   C51   A    
C73   C112  S    
C113  C114  S    
Cr5   O16   S    
Cr3   O20   S    
C112  H37   S    
C65   O17   A    
Cr2   O13   S    
C90   C97   A    
C38   O26   A    
Cr4   O19   S    
C44   H29   S    
C12   H68   S    
C21   C28   A    
Cr5   O9    S    
Cr2   O18   S    
C4    C5    S    
C9    H61   S    
Cr4   O21   S    
C79   H67   S    
C3    H44   S    
C30   C56   A    
C16   H75   S    
C64   O16   A    
N8    N15   A    
C23   H15   S    
C73   C79   A    
C29   H23   S    
C15   H62   S    
Cr2   O12   S    
C2    N8    A    
C77   C84   A    
C85   H4    S    
C39   C45   A    
C19   N10   A    
C31   C57   A    
C89   C96   A    
C24   C31   A    
C108  N14   A    
C86   C92   A    
Cr1   O11   S    
Cr1   O18   S    
C66   C73   A    
C48   C108  S    
C31   H45   S    
Cr4   O2    S    
C87   C93   S    
C1    C67   S    
C17   H73   S    
C16   C78   S    
C26   H1    S    
N7    N14   A    
C91   C98   A    
C103  F5    S    
C37   C57   A    
C114  H33   S    
C25   C52   A    
C81   C88   A    
C19   C91   S    
C10   C11   S    
C46   C106  S    
C113  H35   S    
C49   O23   A    
C37   C44   A    
Cr4   O8    S    
C72   C105  A    
C22   H14   S    
N18   N24   A    
Cr2   O6    S    
C93   N6    A    
C97   H9    S    
C14   C15   S    
C24   C51   A    
C36   C43   A    
C11   H54   S    
C8    H47   S    
C104  N7    A    
C52   C111  S    
C79   C86   A    
C20   C46   A    
C112  H38   S    
C92   C99   A    
Cr6   O10   S    
C21   C47   A    
Cr3   O7    S    
