data_mof_unit_31096.cif
_audit_creation_date              2013-03-05T16:06:25-0500
_audit_creation_method            fapswitch 2.2
_symmetry_space_group_name_H-M    P1
_symmetry_Int_Tables_number       1
_space_group_crystal_system       triclinic
_cell_length_a                    25.879767
_cell_length_b                    25.982929
_cell_length_c                    18.338818
_cell_angle_alpha                 90.012161
_cell_angle_beta                  134.652028
_cell_angle_gamma                 90.021955
_cell_volume                      8772.55919918

loop_
_atom_site_label
_atom_site_type_symbol
_atom_site_description
_atom_site_fract_x
_atom_site_fract_y
_atom_site_fract_z
_atom_type_partial_charge
Zn1   Zn    Zn3+2 0.337540 0.293760 0.587540 1.089034
Zn2   Zn    Zn3+2 0.337540 0.706240 0.587540 1.094261
Zn3   Zn    Zn3+2 0.837540 0.793760 0.587540 1.088640
Zn4   Zn    Zn3+2 0.837540 0.206240 0.587540 1.096399
Zn5   Zn    Zn3+2 0.162450 0.293770 0.412470 1.107533
Zn6   Zn    Zn3+2 0.162450 0.706230 0.412470 1.118132
Zn7   Zn    Zn3+2 0.662450 0.793770 0.412470 1.107714
Zn8   Zn    Zn3+2 0.662450 0.206230 0.412470 1.097613
Zn9   Zn    Zn3+2 0.249980 0.206220 0.412450 1.032352
Zn10  Zn    Zn3+2 0.249980 0.793780 0.412450 1.038847
Zn11  Zn    Zn3+2 0.749980 0.706220 0.412450 1.018699
Zn12  Zn    Zn3+2 0.749980 0.293780 0.412450 1.044009
Zn13  Zn    Zn3+2 0.250000 0.206220 0.587540 1.036862
Zn14  Zn    Zn3+2 0.250000 0.793780 0.587540 1.044341
Zn15  Zn    Zn3+2 0.750000 0.706220 0.587540 1.041261
Zn16  Zn    Zn3+2 0.750000 0.293780 0.587540 1.042223
O1    O     O_3   0.249990 0.249990 0.500000 -0.541965
O2    O     O_3   0.249990 0.750010 0.500000 -0.543916
O3    O     O_3   0.749990 0.749990 0.500000 -0.541330
O4    O     O_3   0.749990 0.250010 0.500000 -0.544406
O5    O     O_R   0.163790 0.219360 0.561280 -0.645033
O6    O     O_R   0.163790 0.780640 0.561280 -0.644722
O7    O     O_R   0.663790 0.719360 0.561280 -0.645395
O8    O     O_R   0.663790 0.280640 0.561280 -0.652656
O9    O     O_R   0.397470 0.280620 0.561260 -0.641308
O10   O     O_R   0.397470 0.719380 0.561260 -0.633067
O11   O     O_R   0.897470 0.780620 0.561260 -0.637729
O12   O     O_R   0.897470 0.219380 0.561260 -0.634587
O13   O     O_R   0.188730 0.366850 0.438750 -0.621202
O14   O     O_R   0.188730 0.633150 0.438750 -0.619637
O15   O     O_R   0.688730 0.866850 0.438750 -0.635861
O16   O     O_R   0.688730 0.133150 0.438750 -0.620789
O17   O     O_R   0.249980 0.133140 0.438710 -0.650690
O18   O     O_R   0.249980 0.866860 0.438710 -0.645491
O19   O     O_R   0.749980 0.633140 0.438710 -0.655853
O20   O     O_R   0.749980 0.366860 0.438710 -0.653265
O21   O     O_R   0.102500 0.280640 0.266310 -0.547196
O22   O     O_R   0.102500 0.719360 0.266310 -0.547145
O23   O     O_R   0.602500 0.780640 0.266310 -0.551706
O24   O     O_R   0.602500 0.219360 0.266310 -0.553537
O25   O     O_R   0.336220 0.219350 0.733700 -0.661414
O26   O     O_R   0.336220 0.780650 0.733700 -0.656378
O27   O     O_R   0.836220 0.719350 0.733700 -0.649213
O28   O     O_R   0.836220 0.280650 0.733700 -0.662925
O29   O     O_R   0.163750 0.219360 0.266290 -0.647772
O30   O     O_R   0.163750 0.780640 0.266290 -0.659648
O31   O     O_R   0.663750 0.719360 0.266290 -0.660543
O32   O     O_R   0.663750 0.280640 0.266290 -0.648011
O33   O     O_R   0.397490 0.280620 0.733700 -0.565828
O34   O     O_R   0.397490 0.719380 0.733700 -0.571022
O35   O     O_R   0.897490 0.780620 0.733700 -0.569372
O36   O     O_R   0.897490 0.219380 0.733700 -0.556305
O37   O     O_R   0.311270 0.366840 0.561280 -0.634569
O38   O     O_R   0.311270 0.633160 0.561280 -0.636005
O39   O     O_R   0.811270 0.866840 0.561280 -0.620245
O40   O     O_R   0.811270 0.133160 0.561280 -0.636737
O41   O     O_R   0.249990 0.133140 0.561260 -0.625130
O42   O     O_R   0.249990 0.866860 0.561260 -0.613309
O43   O     O_R   0.749990 0.633140 0.561260 -0.628059
O44   O     O_R   0.749990 0.366860 0.561260 -0.612581
O45   O     O_R   0.102520 0.280640 0.438750 -0.606692
O46   O     O_R   0.102520 0.719360 0.438750 -0.599892
O47   O     O_R   0.602520 0.780640 0.438750 -0.585677
O48   O     O_R   0.602520 0.219360 0.438750 -0.604653
O49   O     O_R   0.336190 0.219350 0.438710 -0.601499
O50   O     O_R   0.336190 0.780650 0.438710 -0.604937
O51   O     O_R   0.836190 0.719350 0.438710 -0.602343
O52   O     O_R   0.836190 0.280650 0.438710 -0.604095
C1    C     C_R   0.108785 0.249546 0.499596 0.813357
C2    C     C_R   0.108625 0.750527 0.499111 0.813350
C3    C     C_R   0.608275 0.749407 0.498443 0.815479
C4    C     C_R   0.608682 0.250669 0.499266 0.814593
C5    C     C_R   0.390557 0.249910 0.499168 0.907060
C6    C     C_R   0.390591 0.750383 0.499279 0.898147
C7    C     C_R   0.890788 0.749559 0.499612 0.903733
C8    C     C_R   0.890120 0.249862 0.498443 0.908338
C9    C     C_R   0.249359 0.390951 0.503282 0.918824
C10   C     C_R   0.249672 0.609040 0.499833 0.969082
C11   C     C_R   0.749280 0.891107 0.499675 0.882723
C12   C     C_R   0.749541 0.109219 0.504063 0.895619
C13   C     C_R   0.244079 0.109262 0.494465 0.915455
C14   C     C_R   0.249012 0.891119 0.499158 0.929629
C15   C     C_R   0.745430 0.609179 0.496207 0.918886
C16   C     C_R   0.748018 0.391069 0.498268 0.961859
C17   C     C_R   0.108788 0.249952 0.217535 0.930145
C18   C     C_R   0.107471 0.751499 0.217646 0.929489
C19   C     C_R   0.607620 0.748587 0.217686 0.919314
C20   C     C_R   0.608006 0.250931 0.217592 0.920900
C21   C     C_R   0.391796 0.249000 0.781728 0.992087
C22   C     C_R   0.391356 0.750398 0.781775 0.988532
C23   C     C_R   0.891397 0.749664 0.781730 0.992403
C24   C     C_R   0.892348 0.251654 0.781666 1.001098
C25   C     C_3   0.486544 0.191931 0.937996 0.151315
C26   C     C_3   0.493415 0.804187 0.938356 0.145839
C27   C     C_3   0.998452 0.698374 0.937905 0.139066
C28   C     C_3   0.970065 0.313435 0.937359 0.160471
C29   C     C_3   0.537223 0.191105 0.061786 0.170090
C30   C     C_3   0.544168 0.806477 0.061900 0.183188
C31   C     C_3   0.049788 0.695218 0.061774 0.194355
C32   C     C_3   0.036649 0.310868 0.062368 0.189303
H1    H     H_    0.386390 0.226161 0.924826 0.182247
H2    H     H_    0.389682 0.781825 0.925181 0.183667
H3    H     H_    0.894189 0.711139 0.926144 0.181940
H4    H     H_    0.875564 0.251670 0.907528 0.178316
C33   C     C_3   0.413534 0.262299 0.937784 -0.020792
C34   C     C_3   0.412168 0.743409 0.938303 -0.012058
C35   C     C_3   0.912152 0.750987 0.938262 -0.003694
C36   C     C_3   0.919585 0.226060 0.935418 -0.077832
C37   C     C_3   0.509587 0.290436 0.937723 0.088988
C38   C     C_3   0.503355 0.703755 0.937313 0.091344
C39   C     C_3   0.999535 0.799186 0.937583 0.086268
C40   C     C_3   0.025101 0.228531 0.941840 0.129832
C41   C     C_3   0.449191 0.248869 0.896705 -0.323939
C42   C     C_3   0.448805 0.749968 0.896828 -0.327983
C43   C     C_3   0.949030 0.750121 0.896674 -0.328369
C44   C     C_3   0.950832 0.253820 0.896640 -0.326195
H5    H     H_    0.531350 0.280376 0.905089 0.199652
H6    H     H_    0.526145 0.709111 0.904837 0.202779
H7    H     H_    0.022940 0.796961 0.905642 0.202581
H8    H     H_    0.049997 0.260209 0.935926 0.169912
C45   C     C_3   0.549816 0.250939 0.101517 -0.247633
C46   C     C_3   0.549307 0.748228 0.101673 -0.247120
C47   C     C_3   0.049334 0.751738 0.101522 -0.249862
C48   C     C_3   0.051088 0.250243 0.101413 -0.251130
C49   C     C_3   0.472985 0.272699 0.058720 0.316143
C50   C     C_3   0.470268 0.733347 0.059368 0.323880
C51   C     C_3   0.968933 0.761092 0.058618 0.306364
C52   C     C_3   0.975434 0.224063 0.057199 0.324499
C53   C     C_3   0.574974 0.288182 0.057620 0.124886
C54   C     C_3   0.569205 0.705453 0.057291 0.138717
C55   C     C_3   0.065215 0.798303 0.057653 0.109066
C56   C     C_3   0.079476 0.216601 0.058747 0.088500
C57   C     C_3   0.525258 0.247450 0.610998 0.092898
C58   C     C_3   0.524415 0.744825 0.608482 0.090218
C59   C     C_3   0.025583 0.749957 0.611077 0.089301
C60   C     C_3   0.024119 0.253597 0.609810 0.096737
H9    H     H_    0.533522 0.285291 0.645774 0.143284
H10   H     H_    0.527562 0.704591 0.631510 0.143107
H11   H     H_    0.031795 0.788681 0.641789 0.144528
H12   H     H_    0.032751 0.216032 0.645547 0.158439
C61   C     C_3   0.585229 0.240408 0.610214 -0.228302
C62   C     C_3   0.584929 0.752462 0.609489 -0.240117
C63   C     C_3   0.085794 0.743045 0.610798 -0.239008
C64   C     C_3   0.084433 0.260585 0.609742 -0.233949
H13   H     H_    0.628866 0.268946 0.664440 0.221421
H14   H     H_    0.624723 0.720682 0.655560 0.229745
H15   H     H_    0.127637 0.773188 0.661603 0.231070
H16   H     H_    0.128163 0.232277 0.664678 0.229486
C65   C     C_3   0.441692 0.300279 0.443028 -0.088784
C66   C     C_3   0.433613 0.704733 0.427502 -0.098499
C67   C     C_3   0.938596 0.797424 0.436375 -0.096408
C68   C     C_3   0.941543 0.199643 0.442500 -0.083953
C69   C     C_3   0.440823 0.201107 0.439063 0.043006
C70   C     C_3   0.446216 0.803238 0.450715 0.031346
C71   C     C_3   0.943621 0.698441 0.445274 0.035807
C72   C     C_3   0.939102 0.298502 0.436256 0.041779
C73   C     C_3   0.447464 0.249727 0.497428 -0.165683
C74   C     C_3   0.446638 0.750847 0.495854 -0.161705
C75   C     C_3   0.947530 0.748918 0.497486 -0.164886
C76   C     C_3   0.946604 0.250281 0.496073 -0.171048
H17   H     H_    0.459659 0.167297 0.489541 0.155579
H18   H     H_    0.468823 0.833051 0.510083 0.155029
H19   H     H_    0.964911 0.666484 0.500397 0.153040
H20   H     H_    0.956894 0.332721 0.485397 0.156634
C77   C     C_3   0.550509 0.251944 0.498422 -0.081857
C78   C     C_3   0.549062 0.748994 0.495470 -0.078438
C79   C     C_3   0.050305 0.751218 0.497894 -0.085012
C80   C     C_3   0.050353 0.248400 0.498473 -0.085282
C81   C     C_3   0.512192 0.307617 0.464555 0.259586
C82   C     C_3   0.502358 0.696609 0.445232 0.229265
C83   C     C_3   0.008710 0.805543 0.457225 0.255815
C84   C     C_3   0.012686 0.192564 0.465654 0.255920
C85   C     C_3   0.494123 0.206714 0.427274 -0.003433
C86   C     C_3   0.499961 0.799389 0.438963 0.007517
C87   C     C_3   0.996542 0.703651 0.432578 0.000489
C88   C     C_3   0.993151 0.293077 0.425696 -0.002640
H21   H     H_    0.525960 0.170294 0.457917 0.124657
H22   H     H_    0.537435 0.832625 0.482740 0.127216
H23   H     H_    0.030744 0.668361 0.467678 0.135313
H24   H     H_    0.024379 0.329774 0.455438 0.128986
H25   H     H_    0.395854 0.293864 0.360021 0.247771
H26   H     H_    0.388345 0.716494 0.346694 0.241308
H27   H     H_    0.893377 0.788215 0.354168 0.249328
H28   H     H_    0.896259 0.205795 0.359175 0.250516
C89   C     C_3   0.229166 0.031015 0.564812 0.321678
C90   C     C_3   0.223163 0.969324 0.557097 0.309075
C91   C     C_3   0.746471 0.530676 0.584140 0.315710
C92   C     C_3   0.739494 0.469043 0.576422 0.312580
C93   C     C_3   0.312412 0.030964 0.528440 -0.106692
C94   C     C_3   0.318766 0.971338 0.542427 -0.104033
C95   C     C_3   0.805832 0.530503 0.510482 -0.099919
C96   C     C_3   0.812206 0.470826 0.522768 -0.133425
C97   C     C_3   0.170958 0.031076 0.372987 0.237076
C98   C     C_3   0.182193 0.968787 0.372600 0.264573
C99   C     C_3   0.663963 0.531947 0.381868 0.248540
C100  C     C_3   0.671083 0.469315 0.376383 0.259805
C101  C     C_3   0.238506 0.051539 0.490171 -0.193518
C102  C     C_3   0.243042 0.948900 0.494040 -0.172888
C103  C     C_3   0.739920 0.551498 0.493395 -0.192081
C104  C     C_3   0.742588 0.448861 0.494566 -0.181993
H29   H     H_    0.320282 0.451881 0.482859 0.101201
H30   H     H_    0.336528 0.534875 0.511096 0.088612
H31   H     H_    0.823435 0.963218 0.490735 0.092574
H32   H     H_    0.813170 0.045336 0.472772 0.088533
H33   H     H_    0.306758 0.037166 0.463601 0.176667
H34   H     H_    0.326075 0.956313 0.493854 0.187505
H35   H     H_    0.789584 0.536853 0.437118 0.179976
H36   H     H_    0.808204 0.456178 0.462491 0.189607
C105  C     C_3   0.247097 0.448789 0.503242 -0.160707
C106  C     C_3   0.247809 0.551446 0.498025 -0.178253
C107  C     C_3   0.746317 0.948948 0.499435 -0.201521
C108  C     C_3   0.747733 0.051679 0.505780 -0.152787
C109  C     C_3   0.265952 0.468258 0.442935 0.041989
C110  C     C_3   0.276712 0.528130 0.452213 0.031822
C111  C     C_3   0.764476 0.971584 0.440441 0.051360
C112  C     C_3   0.758410 0.031390 0.435826 0.050050
H37   H     H_    0.361891 0.461648 0.640773 0.140169
H38   H     H_    0.357851 0.546150 0.652765 0.162573
H39   H     H_    0.861040 0.953399 0.648027 0.165402
H40   H     H_    0.864819 0.037358 0.632235 0.125526
C113  C     C_3   0.173114 0.472631 0.460753 -0.038288
C114  C     C_3   0.168366 0.530685 0.436707 -0.092485
C115  C     C_3   0.670884 0.970086 0.454999 -0.070000
C116  C     C_3   0.677942 0.028931 0.477421 -0.034330
H41   H     H_    0.179094 0.472948 0.526940 0.216832
H42   H     H_    0.148547 0.549606 0.467475 0.211442
H43   H     H_    0.662672 0.950764 0.500449 0.194804
H44   H     H_    0.690959 0.031168 0.549078 0.231214
C117  C     C_3   0.309117 0.470671 0.615429 -0.063858
C118  C     C_3   0.303035 0.531182 0.613244 -0.046739
C119  C     C_3   0.807805 0.968910 0.614074 -0.034766
C120  C     C_3   0.815250 0.029368 0.616110 -0.053506
C121  C     C_3   0.429585 0.146934 0.880925 -0.499938
H45   H     H_    0.379085 0.154190 0.861607 0.258330
H46   H     H_    0.411115 0.138627 0.806064 0.235854
H47   H     H_    0.454651 0.110598 0.925427 0.271343
C122  C     C_3   0.441997 0.851886 0.880245 -0.513295
H48   H     H_    0.390738 0.849827 0.860556 0.260808
H49   H     H_    0.471243 0.887937 0.923539 0.271428
H50   H     H_    0.424666 0.856500 0.805381 0.236455
C123  C     C_3   0.950928 0.649148 0.879141 -0.507281
H51   H     H_    0.900642 0.648249 0.861574 0.264801
H52   H     H_    0.932237 0.646335 0.803022 0.225076
H53   H     H_    0.983061 0.613723 0.921504 0.279075
C124  C     C_3   0.903808 0.345287 0.902147 -0.544762
H54   H     H_    0.873618 0.329004 0.918535 0.230554
H55   H     H_    0.922320 0.384091 0.937893 0.287118
H56   H     H_    0.863447 0.354420 0.819848 0.277815
C125  C     C_3   0.601682 0.344902 0.102066 -0.566638
H57   H     H_    0.608634 0.366772 0.057290 0.226184
H58   H     H_    0.566067 0.369581 0.099021 0.278424
H59   H     H_    0.656567 0.347130 0.180746 0.250677
C126  C     C_3   0.588584 0.648962 0.102098 -0.610384
H60   H     H_    0.642139 0.645674 0.181940 0.250240
H61   H     H_    0.549132 0.628515 0.096635 0.278792
H62   H     H_    0.594109 0.623491 0.059129 0.231211
C127  C     C_3   0.078409 0.854081 0.102846 -0.533564
H63   H     H_    0.086512 0.882069 0.065719 0.216141
H64   H     H_    0.034257 0.871682 0.089858 0.301608
H65   H     H_    0.127875 0.857689 0.185376 0.252063
C128  C     C_3   0.084036 0.156994 0.076126 -0.571816
H66   H     H_    0.106649 0.136838 0.050108 0.241972
H67   H     H_    0.121703 0.147222 0.157891 0.243038
H68   H     H_    0.032484 0.137559 0.033919 0.285800
N1    N     N_R   0.351391 0.298645 0.876114 0.272076
O53   O     O_R   0.332174 0.324779 0.799750 -0.305613
O54   O     O_R   0.306456 0.297813 0.886325 -0.283573
N2    N     N_R   0.345872 0.711119 0.876882 0.274143
O55   O     O_R   0.302244 0.717592 0.888676 -0.289740
O56   O     O_R   0.322645 0.683265 0.799664 -0.325164
N3    N     N_R   0.842464 0.778936 0.876900 0.274598
O57   O     O_R   0.816020 0.808353 0.799842 -0.328392
O58   O     O_R   0.800168 0.767145 0.889297 -0.292448
N4    N     N_R   0.878686 0.178233 0.879618 0.268350
O59   O     O_R   0.808221 0.178302 0.815940 -0.346962
O60   O     O_R   0.910108 0.135239 0.894111 -0.230832
N5    N     N_R   0.479810 0.327634 0.086113 0.220029
O61   O     O_R   0.533634 0.340549 0.181764 -0.343693
O62   O     O_R   0.422662 0.356868 0.033590 -0.187618
N6    N     N_R   0.470692 0.679590 0.087057 0.216931
O63   O     O_R   0.522710 0.666071 0.182853 -0.402315
O64   O     O_R   0.410509 0.653769 0.033753 -0.202166
N7    N     N_R   0.963954 0.813533 0.085202 0.217723
O65   O     O_R   0.014609 0.827849 0.180644 -0.351446
O66   O     O_R   0.901495 0.836153 0.031336 -0.200144
N8    N     N_R   0.984882 0.170840 0.093972 0.213118
O67   O     O_R   0.043477 0.159317 0.187913 -0.387163
O68   O     O_R   0.927142 0.144645 0.054359 -0.209661
N9    N     N_R   0.533124 0.209744 0.678484 0.236975
O69   O     O_R   0.587909 0.214158 0.777227 -0.285382
O70   O     O_R   0.486006 0.173275 0.643225 -0.409028
N10   N     N_R   0.537643 0.776677 0.686865 0.241365
O71   O     O_R   0.591321 0.764649 0.783001 -0.279416
O72   O     O_R   0.497953 0.816552 0.663499 -0.390181
N11   N     N_R   0.036039 0.713964 0.682819 0.241135
O73   O     O_R   0.093075 0.719355 0.780608 -0.264190
O74   O     O_R   0.989645 0.677763 0.652352 -0.406902
N12   N     N_R   0.030714 0.291806 0.675738 0.233994
O75   O     O_R   0.082801 0.286691 0.774813 -0.279330
O76   O     O_R   0.983907 0.328748 0.638574 -0.408291
C129  C     C_3   0.625556 0.187984 0.654476 -0.665202
H69   H     H_    0.659461 0.181272 0.639040 0.235236
H70   H     H_    0.662930 0.187710 0.739042 0.309987
H71   H     H_    0.587581 0.155144 0.623041 0.239722
C130  C     C_3   0.631827 0.801513 0.668210 -0.629162
H72   H     H_    0.667092 0.809595 0.655533 0.241174
H73   H     H_    0.598380 0.836044 0.646462 0.236194
H74   H     H_    0.668043 0.796012 0.751713 0.320794
C131  C     C_3   0.129256 0.691951 0.660633 -0.624712
H75   H     H_    0.166370 0.693747 0.744895 0.318748
H76   H     H_    0.093365 0.658137 0.632942 0.235840
H77   H     H_    0.163836 0.685123 0.646367 0.243051
C132  C     C_3   0.124265 0.313179 0.653392 -0.652845
H78   H     H_    0.159271 0.314444 0.737328 0.314904
H79   H     H_    0.160446 0.318995 0.641600 0.239486
H80   H     H_    0.085935 0.345965 0.618892 0.235816
C133  C     C_3   0.417395 0.349652 0.459673 -0.812969
H81   H     H_    0.453641 0.358605 0.542254 0.261667
H82   H     H_    0.416321 0.382927 0.420653 0.268610
H83   H     H_    0.361021 0.345358 0.424439 0.252112
C134  C     C_3   0.404147 0.654605 0.433320 -0.793156
H84   H     H_    0.440625 0.640221 0.513093 0.254509
H85   H     H_    0.349462 0.661156 0.402843 0.253268
H86   H     H_    0.397110 0.624287 0.384274 0.272045
C135  C     C_3   0.911166 0.847072 0.446919 -0.793439
H87   H     H_    0.946879 0.858644 0.528226 0.257769
H88   H     H_    0.907560 0.879094 0.403440 0.272889
H89   H     H_    0.855390 0.841181 0.412966 0.255253
C136  C     C_3   0.916889 0.150296 0.458706 -0.819078
H90   H     H_    0.952308 0.141714 0.541218 0.266320
H91   H     H_    0.860113 0.154432 0.422050 0.245412
H92   H     H_    0.916845 0.116839 0.420998 0.266015
C137  C     C_3   0.563352 0.349844 0.549641 -0.828859
H93   H     H_    0.573543 0.345390 0.618576 0.228161
H94   H     H_    0.616741 0.351478 0.575724 0.259804
H95   H     H_    0.539817 0.388968 0.520176 0.247418
C138  C     C_3   0.548171 0.648716 0.515378 -0.794549
H96   H     H_    0.563421 0.648496 0.588617 0.219233
H97   H     H_    0.518590 0.611980 0.477245 0.252713
H98   H     H_    0.598063 0.645369 0.532286 0.261054
C139  C     C_3   0.056986 0.850453 0.536528 -0.816943
H99   H     H_    0.067235 0.848266 0.605793 0.231544
H100  H     H_    0.110346 0.852890 0.562399 0.263468
H101  H     H_    0.030850 0.888447 0.501502 0.246962
C140  C     C_3   0.063608 0.150814 0.551829 -0.821212
H102  H     H_    0.071337 0.154972 0.618732 0.235070
H103  H     H_    0.041324 0.111434 0.521919 0.245391
H104  H     H_    0.118240 0.150316 0.581788 0.264822
N13   N     N_R   0.367074 0.187673 0.341188 0.276345
O77   O     O_R   0.320538 0.222727 0.276058 -0.387587
O78   O     O_R   0.346311 0.139787 0.321591 -0.351681
N14   N     N_R   0.374588 0.823463 0.357398 0.281293
O79   O     O_R   0.321688 0.793500 0.284458 -0.364945
O80   O     O_R   0.362907 0.872810 0.348891 -0.348483
N15   N     N_R   0.870657 0.681332 0.349587 0.280494
O81   O     O_R   0.820380 0.713641 0.280059 -0.362461
O82   O     O_R   0.854660 0.632568 0.336289 -0.351149
N16   N     N_R   0.865196 0.311172 0.337359 0.277836
O83   O     O_R   0.816681 0.275918 0.276354 -0.380276
O84   O     O_R   0.847691 0.359171 0.310012 -0.343478
N17   N     N_R   0.528539 0.180750 0.911600 0.188907
O85   O     O_R   0.560990 0.136430 0.937068 -0.332949
O86   O     O_R   0.509563 0.202276 0.831646 -0.360742
N18   N     N_R   0.536734 0.808515 0.912578 0.190376
O87   O     O_R   0.574501 0.850126 0.938093 -0.331814
O88   O     O_R   0.515142 0.784584 0.832823 -0.346754
N19   N     N_R   0.041873 0.698986 0.912050 0.195850
O89   O     O_R   0.082720 0.659543 0.936877 -0.317521
O90   O     O_R   0.018651 0.724825 0.833033 -0.350909
N20   N     N_R   0.990753 0.343766 0.891477 0.214146
O91   O     O_R   0.004380 0.392823 0.910955 -0.296105
O92   O     O_R   0.981260 0.326004 0.816327 -0.358742
N21   N     N_R   0.457499 0.208434 0.319313 0.277343
O93   O     O_R   0.407580 0.242154 0.254844 -0.290587
O94   O     O_R   0.466935 0.170434 0.283349 -0.257938
N22   N     N_R   0.466470 0.808478 0.333426 0.280326
O95   O     O_R   0.404728 0.788165 0.253672 -0.278994
O96   O     O_R   0.490354 0.846573 0.317631 -0.291658
N23   N     N_R   0.959265 0.701532 0.324437 0.275426
O97   O     O_R   0.905938 0.732306 0.255509 -0.291630
O98   O     O_R   0.970063 0.661729 0.293369 -0.271419
N24   N     N_R   0.956769 0.290491 0.317894 0.271563
O99   O     O_R   0.905196 0.257587 0.253361 -0.293755
O100  O     O_R   0.966704 0.327921 0.281598 -0.257241
C141  C     C_3   0.491889 0.329337 0.367115 -0.613743
H105  H     H_    0.520835 0.365628 0.382516 0.254688
H106  H     H_    0.506874 0.302967 0.337340 0.271845
H107  H     H_    0.433379 0.338852 0.303791 0.257147
C142  C     C_3   0.478069 0.682107 0.342150 -0.602127
H108  H     H_    0.457143 0.642007 0.319185 0.253459
H109  H     H_    0.432748 0.704738 0.276079 0.277956
H110  H     H_    0.523803 0.684446 0.348318 0.263068
C143  C     C_3   0.987750 0.823999 0.357676 -0.637592
H111  H     H_    0.021928 0.856575 0.372370 0.242915
H112  H     H_    0.996596 0.794371 0.324411 0.278417
H113  H     H_    0.930700 0.837622 0.297814 0.259144
C144  C     C_3   0.993803 0.170465 0.369567 -0.633876
H114  H     H_    0.029342 0.137785 0.389503 0.251803
H115  H     H_    0.937400 0.155489 0.310429 0.257937
H116  H     H_    0.002219 0.198449 0.333458 0.272166
N25   N     N_R   0.293233 0.048136 0.673240 0.257119
O101  O     O_R   0.286114 0.082573 0.717457 -0.354036
O102  O     O_R   0.356080 0.025912 0.731343 -0.365310
N26   N     N_R   0.269461 0.948819 0.663241 0.294478
O103  O     O_R   0.252600 0.959253 0.713972 -0.317581
O104  O     O_R   0.329654 0.924251 0.712130 -0.389661
N27   N     N_R   0.818233 0.547143 0.686294 0.251162
O105  O     O_R   0.821432 0.580178 0.742753 -0.364971
O106  O     O_R   0.878798 0.524989 0.728702 -0.352103
N28   N     N_R   0.797068 0.447683 0.682276 0.277678
O107  O     O_R   0.795627 0.458278 0.750318 -0.339461
O108  O     O_R   0.851102 0.420279 0.712453 -0.353858
C145  C     C_3   0.161249 0.054206 0.539673 -0.763654
H117  H     H_    0.106776 0.040690 0.470686 0.241531
H118  H     H_    0.165077 0.044306 0.602300 0.263749
H119  H     H_    0.158126 0.096397 0.534150 0.266140
C146  C     C_3   0.145834 0.948581 0.501804 -0.849994
H120  H     H_    0.101777 0.962965 0.423926 0.280114
H121  H     H_    0.143285 0.906183 0.498491 0.265369
H122  H     H_    0.130699 0.958712 0.543575 0.249289
C147  C     C_3   0.688701 0.553410 0.583165 -0.720243
H123  H     H_    0.631346 0.543050 0.519597 0.238484
H124  H     H_    0.702299 0.539449 0.652252 0.257916
H125  H     H_    0.689605 0.595329 0.590663 0.273204
C148  C     C_3   0.667190 0.449288 0.541662 -0.850165
H126  H     H_    0.617663 0.464918 0.468512 0.273012
H127  H     H_    0.661290 0.407254 0.535692 0.272860
H128  H     H_    0.664730 0.458619 0.598160 0.248340
C149  C     C_3   0.382841 0.063304 0.611176 -0.642194
H129  H     H_    0.386559 0.081135 0.669207 0.268558
H130  H     H_    0.433043 0.041382 0.649497 0.254721
H131  H     H_    0.384058 0.096330 0.573853 0.237495
C150  C     C_3   0.391452 0.949105 0.644060 -0.613946
H132  H     H_    0.412594 0.967989 0.714144 0.318436
H133  H     H_    0.387818 0.907018 0.649818 0.227393
H134  H     H_    0.435069 0.953737 0.645808 0.217289
C151  C     C_3   0.878138 0.562357 0.583071 -0.630669
H135  H     H_    0.886306 0.584784 0.641701 0.256692
H136  H     H_    0.927266 0.539238 0.620915 0.251657
H137  H     H_    0.877028 0.591751 0.537874 0.236355
C152  C     C_3   0.888769 0.447456 0.612792 -0.554609
H138  H     H_    0.918994 0.464660 0.688235 0.322940
H139  H     H_    0.886237 0.405157 0.617976 0.253038
H140  H     H_    0.923892 0.453015 0.598849 0.206270
C153  C     C_3   0.165594 0.059027 0.291841 -0.700616
H141  H     H_    0.215949 0.059918 0.309084 0.211238
H142  H     H_    0.121132 0.042152 0.214602 0.265581
H143  H     H_    0.148653 0.099381 0.281280 0.289074
C154  C     C_3   0.207930 0.957546 0.316391 -0.813157
H144  H     H_    0.254304 0.980355 0.342403 0.210977
H145  H     H_    0.220218 0.917139 0.316563 0.276951
H146  H     H_    0.164342 0.965655 0.233144 0.260423
C155  C     C_3   0.646126 0.560133 0.290531 -0.737978
H147  H     H_    0.688950 0.558795 0.290932 0.205596
H148  H     H_    0.595055 0.544657 0.216326 0.274344
H149  H     H_    0.634066 0.601362 0.287359 0.281879
C156  C     C_3   0.679346 0.456737 0.300134 -0.803777
H150  H     H_    0.722015 0.477962 0.312842 0.203765
H151  H     H_    0.686214 0.415456 0.295814 0.270767
H152  H     H_    0.629147 0.465907 0.219644 0.269679
N29   N     N_R   0.101415 0.047080 0.338975 0.207136
O109  O     O_R   0.092006 0.095634 0.344531 -0.404161
O110  O     O_R   0.043444 0.018625 0.283172 -0.282512
N30   N     N_R   0.112295 0.939886 0.306372 0.250270
O111  O     O_R   0.061875 0.950054 0.208528 -0.280884
O112  O     O_R   0.106784 0.896104 0.334695 -0.407659
N31   N     N_R   0.602606 0.549351 0.368258 0.207883
O113  O     O_R   0.596948 0.598168 0.378057 -0.423198
O114  O     O_R   0.546318 0.521230 0.327689 -0.314841
N32   N     N_R   0.602729 0.441286 0.326461 0.254742
O115  O     O_R   0.543773 0.452232 0.231695 -0.231735
O116  O     O_R   0.604005 0.396634 0.359610 -0.422710
C157  C     C_3   0.611085 0.161868 0.121022 -0.597033
H153  H     H_    0.599912 0.120003 0.104186 0.302091
H154  H     H_    0.642806 0.171798 0.104168 0.233816
H155  H     H_    0.649251 0.165319 0.205326 0.214517
C158  C     C_3   0.621531 0.830004 0.121529 -0.607923
H156  H     H_    0.615752 0.871860 0.104603 0.297682
H157  H     H_    0.659104 0.827347 0.205883 0.208672
H158  H     H_    0.651913 0.814879 0.105221 0.234073
C159  C     C_3   0.129141 0.676666 0.121028 -0.614142
H159  H     H_    0.127783 0.635034 0.105656 0.291408
H160  H     H_    0.157173 0.695033 0.103237 0.233467
H161  H     H_    0.166866 0.679987 0.205269 0.220019
C160  C     C_3   0.107216 0.334020 0.096603 -0.651318
H162  H     H_    0.103573 0.376513 0.088621 0.318381
H163  H     H_    0.155485 0.327835 0.179489 0.217466
H164  H     H_    0.118097 0.321282 0.051243 0.221262
N33   N     N_R   0.313146 0.446564 0.692132 0.280384
O117  O     O_R   0.373699 0.449552 0.788423 -0.190160
O118  O     O_R   0.262022 0.416700 0.666329 -0.371502
N34   N     N_R   0.289237 0.550585 0.674164 0.263608
O119  O     O_R   0.341608 0.548801 0.773627 -0.184588
O120  O     O_R   0.233184 0.578949 0.634141 -0.405334
N35   N     N_R   0.796994 0.948910 0.678098 0.261588
O121  O     O_R   0.816209 0.901945 0.711782 -0.267892
O122  O     O_R   0.760418 0.973979 0.691038 -0.317195
N36   N     N_R   0.829685 0.053523 0.701616 0.298034
O123  O     O_R   0.889124 0.041705 0.795099 -0.214359
O124  O     O_R   0.786828 0.088157 0.686992 -0.343260
N37   N     N_R   0.215714 0.448181 0.337563 0.281927
O125  O     O_R   0.150976 0.466936 0.264829 -0.313108
O126  O     O_R   0.238053 0.412870 0.314676 -0.394474
N38   N     N_R   0.251488 0.552019 0.358603 0.240420
O127  O     O_R   0.270387 0.530754 0.315938 -0.299437
O128  O     O_R   0.232821 0.600250 0.337997 -0.446814
N39   N     N_R   0.727782 0.946346 0.342118 0.248870
O129  O     O_R   0.659435 0.953212 0.260061 -0.294588
O130  O     O_R   0.766060 0.919090 0.334694 -0.419911
N40   N     N_R   0.708517 0.053327 0.332088 0.265344
O131  O     O_R   0.638674 0.052175 0.271288 -0.321079
O132  O     O_R   0.734954 0.075885 0.300762 -0.396463
C161  C     C_3   0.100161 0.443260 0.382504 -0.649665
H165  H     H_    0.088117 0.431610 0.313924 0.324045
H166  H     H_    0.099502 0.409020 0.418119 0.253088
H167  H     H_    0.054988 0.467427 0.358664 0.221612
C162  C     C_3   0.108398 0.546034 0.321156 -0.504420
H168  H     H_    0.129912 0.553329 0.287890 0.310377
H169  H     H_    0.064045 0.517924 0.270282 0.240682
H170  H     H_    0.080525 0.581699 0.311628 0.262181
C163  C     C_3   0.599897 0.956732 0.342737 -0.531737
H171  H     H_    0.585189 0.985654 0.287009 0.296878
H172  H     H_    0.600356 0.919586 0.315600 0.310194
H173  H     H_    0.553770 0.954700 0.335932 0.216925
C164  C     C_3   0.604783 0.058791 0.407083 -0.667961
H174  H     H_    0.583917 0.069050 0.331912 0.322534
H175  H     H_    0.562684 0.035805 0.393902 0.223508
H176  H     H_    0.609744 0.094282 0.445490 0.243981
N41   N     N_R   0.503416 0.160153 0.089302 0.234457
O133  O     O_R   0.433941 0.153952 0.028550 -0.347602
O134  O     O_R   0.543854 0.134108 0.174527 -0.276626
N42   N     N_R   0.514645 0.842888 0.089322 0.234867
O135  O     O_R   0.446553 0.855013 0.027841 -0.343826
O136  O     O_R   0.558664 0.867919 0.175639 -0.320723
N43   N     N_R   0.024810 0.654959 0.090514 0.228434
O137  O     O_R   0.958856 0.637517 0.028777 -0.346436
O138  O     O_R   0.071547 0.632507 0.179480 -0.343943
N44   N     N_R   0.023913 0.345252 0.114906 0.245712
O139  O     O_R   0.964730 0.345150 0.094593 -0.310820
O140  O     O_R   0.074533 0.376401 0.187838 -0.317286
N45   N     N_R   0.450022 0.246870 0.104780 0.264006
O141  O     O_R   0.382650 0.233103 0.047688 -0.227846
O142  O     O_R   0.487607 0.254292 0.201055 -0.290932
N46   N     N_R   0.450344 0.764592 0.105132 0.261720
O143  O     O_R   0.483894 0.756514 0.199739 -0.287801
O144  O     O_R   0.386002 0.785038 0.047092 -0.237776
N47   N     N_R   0.952076 0.726232 0.104522 0.263001
O145  O     O_R   0.891563 0.700257 0.046954 -0.236736
O146  O     O_R   0.981969 0.735395 0.196988 -0.271566
N48   N     N_R   0.945249 0.251280 0.091655 0.258135
O147  O     O_R   0.980998 0.249403 0.188152 -0.265161
O148  O     O_R   0.875944 0.260717 0.028439 -0.299891
N49   N     N_R   0.480308 0.342868 0.896859 0.241378
O149  O     O_R   0.454998 0.370561 0.924830 -0.253903
O150  O     O_R   0.488067 0.364627 0.841040 -0.337669
N50   N     N_R   0.467329 0.652891 0.895474 0.239097
O151  O     O_R   0.438636 0.629749 0.922715 -0.254191
O152  O     O_R   0.470902 0.627744 0.837672 -0.341788
N51   N     N_R   0.959742 0.848595 0.895265 0.243190
O153  O     O_R   0.925937 0.867365 0.917852 -0.241050
O154  O     O_R   0.965500 0.877299 0.843036 -0.330324
N52   N     N_R   0.021990 0.187325 0.882931 0.242473
O155  O     O_R   0.988381 0.143998 0.860260 -0.294740
O156  O     O_R   0.054152 0.194348 0.852367 -0.323095
C165  C     C_3   0.643108 0.266939 0.083508 -0.733863
H177  H     H_    0.630404 0.237870 0.029276 0.253708
H178  H     H_    0.670475 0.297007 0.077271 0.278132
H179  H     H_    0.684709 0.251927 0.162623 0.273380
C166  C     C_3   0.639474 0.719300 0.082199 -0.728149
H180  H     H_    0.630372 0.746595 0.028382 0.253483
H181  H     H_    0.684199 0.733416 0.161306 0.281766
H182  H     H_    0.661619 0.685572 0.074119 0.270113
C167  C     C_3   0.136713 0.790449 0.082599 -0.735548
H183  H     H_    0.130114 0.764987 0.028628 0.251252
H184  H     H_    0.155130 0.826633 0.074266 0.262727
H185  H     H_    0.183266 0.776926 0.161302 0.287270
C168  C     C_3   0.159342 0.229291 0.110223 -0.653168
H186  H     H_    0.162082 0.246601 0.057732 0.243983
H187  H     H_    0.191040 0.254018 0.178410 0.241743
H188  H     H_    0.193915 0.194577 0.138282 0.291781

loop_
_geom_bond_atom_site_label_1
_geom_bond_atom_site_label_2
_geom_bond_distance
_ccdc_geom_bond_type
C57   H9    1.107733 S    
Zn5   O21   1.965177 S    
C100  N32   1.490017 S    
N49   O149  1.297081 A    
C62   H14   1.110945 S    
N35   O121  1.298840 A    
O23   C19   1.293113 A    
C60   H12   1.107567 S    
N49   O150  1.302658 A    
C38   H6    1.102557 S    
C138  H96   1.102116 S    
C137  H93   1.101157 S    
N50   O151  1.297594 A    
C157  H155  1.107845 S    
C61   C129  1.553793 S    
C94   C102  1.588202 S    
N24   O99   1.300519 A    
C152  H138  1.097344 S    
H31   C111  1.117300 S    
C14   C102  1.505477 S    
C144  H115  1.110181 S    
C108  C120  1.585867 S    
C27   C31   1.640147 S    
N39   O130  1.300564 A    
N3    O57   1.300405 A    
C69   C85   1.545876 S    
O46   C2    1.288319 A    
N4    O59   1.302301 A    
C156  H150  1.102540 S    
Zn4   O12   1.950558 S    
O34   C22   1.283959 A    
C115  C116  1.560164 S    
C60   N12   1.478464 S    
N30   O111  1.304444 A    
C154  H145  1.096481 S    
C3    C78   1.494649 S    
Zn3   O3    1.972017 S    
C126  H60   1.104451 S    
N4    O60   1.294936 A    
Zn16  O28   1.968265 S    
O28   C24   1.287042 A    
C61   H13   1.111127 S    
Zn15  O7    1.953634 S    
Zn10  O50   1.953589 S    
C145  H118  1.111423 S    
C78   C82   1.611011 S    
C124  H54   1.099829 S    
Zn4   O40   1.959114 S    
C81   C137  1.576654 S    
C34   C42   1.587512 S    
O11   C7    1.297728 A    
C116  H44   1.105190 S    
N50   O152  1.302541 A    
C77   C81   1.611654 S    
C21   C41   1.500002 S    
O19   C15   1.299243 A    
C78   C86   1.598168 S    
C59   C75   1.582984 S    
C95   C96   1.558968 S    
C127  H64   1.090595 S    
O42   C14   1.286386 A    
C40   N52   1.482242 S    
C40   H8    1.096435 S    
C166  H182  1.112706 S    
C110  N38   1.477854 S    
C100  C156  1.589969 S    
C151  H135  1.104762 S    
C167  H183  1.099339 S    
C105  C109  1.573439 S    
C69   H17   1.110256 S    
C99   C155  1.571306 S    
C57   N9    1.476295 S    
C133  H83   1.110544 S    
Zn15  O3    1.967442 S    
C111  C112  1.558230 S    
C117  C118  1.577870 S    
C50   N46   1.495825 S    
O16   C12   1.284347 A    
N15   O81   1.301090 A    
Zn16  O4    1.967047 S    
C150  H134  1.112982 S    
C107  C115  1.594248 S    
N14   O79   1.301680 A    
Zn12  O4    1.967591 S    
N36   O123  1.301308 A    
Zn13  O5    1.953634 S    
Zn2   O10   1.950558 S    
H30   C110  1.115012 S    
C140  H104  1.099616 S    
C164  H175  1.109688 S    
C24   C44   1.501315 S    
C26   N18   1.495927 S    
C27   C123  1.563696 S    
N31   O114  1.298093 A    
C57   C73   1.581416 S    
N2    O56   1.301219 A    
C63   H15   1.111314 S    
Zn7   O3    1.973410 S    
C142  H108  1.111330 S    
C156  H152  1.108287 S    
C137  H95   1.111046 S    
N12   O75   1.301378 A    
C83   C139  1.575396 S    
C28   C124  1.577056 S    
C138  H98   1.099221 S    
N38   O127  1.301780 A    
C119  N35   1.479458 S    
C129  H71   1.108631 S    
C93   C101  1.597116 S    
C34   C50   1.602082 S    
C25   N17   1.496537 S    
C90   C146  1.571729 S    
O43   C15   1.275339 A    
C19   C46   1.513593 S    
C87   H23   1.112920 S    
C70   C74   1.589415 S    
C143  H111  1.111614 S    
C87   N23   1.475604 S    
C33   C49   1.600663 S    
O45   C1    1.292394 A    
N46   O143  1.300378 A    
O24   C20   1.292528 A    
Zn11  O19   1.959048 S    
C94   H34   1.103802 S    
C1    C80   1.498099 S    
C35   C51   1.593888 S    
C158  H157  1.108649 S    
C2    C79   1.493835 S    
N8    O68   1.302726 A    
Zn6   O46   1.950688 S    
C66   C82   1.582005 S    
Zn10  O2    1.967591 S    
C82   C142  1.562043 S    
N10   O72   1.301736 A    
C96   C104  1.590175 S    
N42   O136  1.300313 A    
C153  H141  1.104325 S    
C155  H149  1.105961 S    
Zn9   O49   1.953255 S    
C152  H139  1.109051 S    
C86   N22   1.481669 S    
C99   C100  1.648834 S    
Zn4   O4    1.973411 S    
N37   O126  1.301357 A    
N42   O135  1.297588 A    
C97   C98   1.645366 S    
C124  H56   1.099857 S    
C85   N21   1.477386 S    
Zn7   O23   1.965177 S    
C28   C44   1.637420 S    
C51   N47   1.495192 S    
Zn8   O24   1.965580 S    
C89   C101  1.637621 S    
O31   C19   1.289384 A    
C141  H106  1.102590 S    
O25   C21   1.286945 A    
N13   O77   1.298463 A    
C106  C114  1.591122 S    
C113  H41   1.110508 S    
O29   C17   1.291523 A    
C36   C44   1.577334 S    
C159  H161  1.107752 S    
N25   O101  1.304586 A    
C132  H78   1.109529 S    
N11   O74   1.301743 A    
C149  H129  1.101034 S    
Zn12  O52   1.953589 S    
C125  H57   1.112350 S    
C160  H162  1.109097 S    
C30   N42   1.507349 S    
O22   C18   1.293045 A    
C65   C81   1.583763 S    
C33   C41   1.586848 S    
C37   N49   1.481467 S    
C128  H66   1.112222 S    
C68   C84   1.582840 S    
C29   C157  1.579188 S    
C132  H79   1.109460 S    
Zn13  O41   1.958895 S    
C92   C104  1.644222 S    
C33   N1    1.484054 S    
O50   C6    1.279655 A    
C5    C73   1.495351 S    
C93   C149  1.562522 S    
N18   O87   1.303576 A    
C48   C56   1.650531 S    
C155  H148  1.109812 S    
C123  H51   1.099366 S    
Zn16  O44   1.959094 S    
C79   C83   1.606413 S    
C135  H88   1.110190 S    
Zn1   O37   1.959817 S    
O10   C6    1.299475 A    
C29   C45   1.649076 S    
Zn2   O34   1.965221 S    
C47   C51   1.645291 S    
C84   C140  1.576535 S    
N51   O153  1.297835 A    
N18   O88   1.299497 A    
C130  H73   1.108503 S    
C142  H110  1.108670 S    
C133  H82   1.110264 S    
Zn6   O22   1.965580 S    
C98   N30   1.490547 S    
C121  H45   1.103878 S    
C38   C42   1.585700 S    
C128  H67   1.099503 S    
C12   C108  1.496787 S    
C22   C42   1.501031 S    
C27   N19   1.495570 S    
N37   O125  1.297446 A    
C136  H91   1.110935 S    
C93   C94   1.560163 S    
C39   N51   1.479516 S    
C146  H121  1.102684 S    
N22   O96   1.302709 A    
N41   O133  1.297697 A    
C99   C103  1.628791 S    
N52   O156  1.302287 A    
C139  H100  1.102304 S    
C143  H113  1.110244 S    
C70   C86   1.553216 S    
C71   C75   1.584437 S    
C72   C76   1.585016 S    
C98   C154  1.598929 S    
N6    O63   1.303209 A    
N35   O122  1.301060 A    
C32   N44   1.510413 S    
N32   O115  1.304829 A    
C71   H19   1.110288 S    
O5    C1    1.288020 A    
C161  H166  1.110981 S    
C67   C75   1.591985 S    
C153  H143  1.100107 S    
C45   C49   1.642180 S    
N45   O141  1.302920 A    
C91   N27   1.500138 S    
C62   C78   1.585442 S    
N1    O54   1.301523 A    
C26   C122  1.565542 S    
C65   C133  1.550646 S    
N6    O64   1.300174 A    
C134  H86   1.109995 S    
C63   C79   1.582109 S    
C159  H159  1.112085 S    
Zn5   O45   1.950516 S    
C95   H35   1.104128 S    
C36   C52   1.594492 S    
N16   O84   1.301344 A    
N33   O118  1.302156 A    
Zn7   O47   1.950516 S    
N28   O107  1.303636 A    
C148  H127  1.097463 S    
C82   C138  1.570679 S    
Zn8   O48   1.950688 S    
C165  H178  1.112895 S    
C39   C55   1.574002 S    
C58   C74   1.580764 S    
C134  H84   1.109214 S    
C147  H125  1.095976 S    
C70   N14   1.477568 S    
C164  H174  1.103169 S    
O51   C7    1.280865 A    
N13   O78   1.301481 A    
C25   C29   1.639883 S    
C40   C44   1.604677 S    
O8    C4    1.285595 A    
C79   C87   1.598021 S    
C108  C116  1.600258 S    
C149  H131  1.111922 S    
C80   C88   1.595354 S    
C125  H59   1.105436 S    
N15   O82   1.301461 A    
C70   H18   1.109808 S    
H39   C119  1.114885 S    
C126  H62   1.112467 S    
H3    C35   1.091712 S    
C66   C134  1.550158 S    
C118  N34   1.480007 S    
C95   C151  1.567074 S    
O52   C8    1.280658 A    
H32   C112  1.117422 S    
C34   N2    1.482722 S    
O40   C12   1.297249 A    
Zn13  O1    1.967442 S    
C123  H53   1.111367 S    
Zn14  O6    1.953300 S    
N5    O62   1.300354 A    
Zn15  O27   1.967772 S    
C144  H114  1.108466 S    
C111  N39   1.474889 S    
C98   C102  1.666806 S    
C113  C161  1.548035 S    
C28   C32   1.636113 S    
O9    C5    1.295566 A    
N27   O106  1.296307 A    
C56   C168  1.590225 S    
C121  H47   1.111263 S    
C49   N45   1.490847 S    
C92   N28   1.493996 S    
C60   C76   1.581362 S    
C88   H24   1.113273 S    
O13   C9    1.281996 A    
C90   N26   1.493716 S    
N30   O112  1.299414 A    
C154  H144  1.101716 S    
C164  H176  1.111522 S    
N7    O65   1.301764 A    
C53   C165  1.569541 S    
O18   C14   1.290561 A    
C37   C53   1.572199 S    
O6    C2    1.288847 A    
C83   C143  1.570254 S    
C129  H70   1.110071 S    
C65   H25   1.101719 S    
C99   N31   1.493902 S    
C145  H117  1.097188 S    
C105  C113  1.600307 S    
Zn11  O31   1.968357 S    
C96   C152  1.556821 S    
Zn12  O32   1.967863 S    
Zn13  O25   1.967772 S    
C37   H5    1.103413 S    
N23   O97   1.300389 A    
C66   H26   1.105500 S    
C109  C110  1.568298 S    
C11   C107  1.504731 S    
N17   O86   1.300899 A    
Zn11  O3    1.967197 S    
N44   O139  1.297198 A    
C147  H123  1.096383 S    
C107  C119  1.586695 S    
C31   C47   1.643070 S    
C58   N10   1.475109 S    
C160  H164  1.100009 S    
C36   N4    1.479099 S    
N21   O94   1.302206 A    
C13   C101  1.503427 S    
C162  H168  1.093404 S    
C166  H181  1.103665 S    
Zn5   O1    1.973410 S    
C26   C30   1.636741 S    
C88   N24   1.477458 S    
C114  C162  1.560859 S    
N34   O119  1.300531 A    
C30   C46   1.644557 S    
C4    C77   1.495032 S    
C167  H184  1.111999 S    
H38   C118  1.115043 S    
O35   C23   1.281822 A    
C93   H33   1.103082 S    
C168  H187  1.098538 S    
N14   O80   1.301464 A    
N36   O124  1.301804 A    
O32   C20   1.289397 A    
C140  H103  1.111329 S    
C86   H22   1.111517 S    
C100  C104  1.663737 S    
C48   C52   1.649489 S    
C137  H94   1.100319 S    
C148  H126  1.091411 S    
C117  N33   1.475173 S    
C156  H151  1.099204 S    
N12   O76   1.301514 A    
C155  H147  1.103688 S    
C63   C131  1.555506 S    
C138  H97   1.110329 S    
N38   O128  1.300269 A    
N20   O91   1.303481 A    
C53   C125  1.587714 S    
C151  H136  1.104290 S    
Zn14  O42   1.959094 S    
C68   C136  1.550976 S    
C6    C74   1.495353 S    
C35   N3    1.481544 S    
O7    C3    1.294487 A    
Zn2   O38   1.959114 S    
C144  H116  1.103381 S    
N11   O73   1.301332 A    
C89   C145  1.589632 S    
C25   C121  1.569977 S    
C165  H177  1.098880 S    
C29   N41   1.512311 S    
C91   C103  1.641576 S    
C139  H101  1.111169 S    
N46   O144  1.302919 A    
C115  C163  1.554626 S    
C109  N37   1.471152 S    
C158  H156  1.111954 S    
C128  H68   1.087148 S    
O39   C11   1.304277 A    
C95   C103  1.598435 S    
C154  H146  1.107811 S    
C106  C118  1.594001 S    
N19   O90   1.299366 A    
C31   C159  1.579511 S    
C40   C56   1.559735 S    
C67   H27   1.104238 S    
H29   C109  1.116997 S    
O47   C3    1.284673 A    
C32   C160  1.574362 S    
Zn4   O36   1.965221 S    
C145  H119  1.098706 S    
C124  H55   1.110747 S    
O36   C24   1.288018 A    
C157  H154  1.092050 S    
O12   C8    1.297324 A    
C30   C158  1.580973 S    
H4    C36   1.088097 S    
C69   N13   1.473189 S    
C165  H179  1.105104 S    
C162  H169  1.102393 S    
C141  H105  1.109986 S    
C71   C87   1.548035 S    
C72   C88   1.547535 S    
Zn3   O35   1.965625 S    
C66   C74   1.589212 S    
C47   C55   1.656752 S    
Zn15  O43   1.958895 S    
C129  H69   1.108934 S    
C45   C53   1.656784 S    
C20   C45   1.514349 S    
C152  H140  1.113138 S    
C162  H170  1.110426 S    
N20   O92   1.302464 A    
C89   N25   1.505253 S    
C59   H11   1.108059 S    
C57   C61   1.572938 S    
C61   C77   1.584759 S    
C127  H65   1.102153 S    
C94   C150  1.555405 S    
C91   C92   1.606510 S    
C60   C64   1.572237 S    
N41   O134  1.303013 A    
N48   O148  1.303415 A    
C28   N20   1.499627 S    
C89   C90   1.606956 S    
N48   O147  1.299518 A    
C49   N5    1.481776 S    
C92   C148  1.579145 S    
Zn3   O11   1.950731 S    
N47   O145  1.302927 A    
C23   C43   1.499632 S    
C38   C54   1.573760 S    
C115  H43   1.114000 S    
C69   C73   1.584843 S    
C135  H87   1.109250 S    
C54   C126  1.582070 S    
C80   C84   1.609690 S    
N2    O55   1.301261 A    
C160  H163  1.108187 S    
C130  H72   1.108678 S    
C142  H109  1.092167 S    
C90   C102  1.649169 S    
C32   C48   1.660868 S    
C65   C73   1.591884 S    
C84   C144  1.569250 S    
O38   C10   1.295313 A    
C107  C111  1.565874 S    
C68   C76   1.591218 S    
C167  H185  1.102039 S    
Zn2   O2    1.973411 S    
C136  H90   1.109193 S    
Zn14  O2    1.967047 S    
O37   C9    1.302536 A    
N19   O89   1.303707 A    
C91   C147  1.596111 S    
C64   H16   1.111346 S    
C146  H120  1.091386 S    
C26   C42   1.630928 S    
C67   C83   1.583584 S    
N39   O129  1.297689 A    
N51   O154  1.302602 A    
C131  H75   1.107386 S    
C16   C104  1.505331 S    
N5    O61   1.301855 A    
C143  H112  1.101540 S    
Zn8   O4    1.972016 S    
C64   C80   1.584858 S    
O21   C17   1.291033 A    
N10   O71   1.301455 A    
N47   O146  1.298602 A    
N26   O104  1.294550 A    
C127  H63   1.112278 S    
C158  H158  1.092163 S    
C64   C132  1.552236 S    
N8    O67   1.298310 A    
N32   O116  1.299554 A    
N23   O98   1.302324 A    
C58   C62   1.565732 S    
C114  H42   1.109083 S    
C77   C85   1.592085 S    
C72   N16   1.476781 S    
O49   C5    1.282769 A    
C17   C48   1.514953 S    
C161  H165  1.104216 S    
C51   N7    1.482924 S    
C153  H142  1.109525 S    
C112  N40   1.469566 S    
C159  H160  1.092241 S    
C55   C127  1.582790 S    
C108  C112  1.580546 S    
C27   C43   1.630281 S    
C134  H85   1.110248 S    
Zn10  O30   1.967863 S    
O26   C22   1.289994 A    
N27   O105  1.301830 A    
Zn12  O20   1.958850 S    
N33   O117  1.300097 A    
C67   C135  1.548857 S    
N28   O108  1.296877 A    
C37   C41   1.587819 S    
C59   N11   1.476169 S    
Zn14  O26   1.968265 S    
C141  H107  1.109646 S    
H37   C117  1.115517 S    
C168  H188  1.110213 S    
N43   O138  1.300898 A    
C147  H124  1.110953 S    
Zn1   O9    1.950731 S    
C96   H36   1.102894 S    
C71   N15   1.477852 S    
C133  H81   1.109251 S    
Zn3   O39   1.959817 S    
N9    O70   1.301360 A    
N25   O102  1.295850 A    
Zn11  O51   1.953255 S    
N52   O155  1.299017 A    
Zn5   O13   1.959156 S    
N29   O110  1.298255 A    
H1    C33   1.093796 S    
Zn6   O2    1.972016 S    
C125  H58   1.091769 S    
C62   C130  1.555047 S    
Zn7   O15   1.959156 S    
H40   C120  1.114798 S    
C149  H130  1.106180 S    
Zn8   O16   1.959860 S    
C163  H171  1.099007 S    
N40   O132  1.301507 A    
C126  H61   1.091118 S    
C132  H80   1.108486 S    
C25   C41   1.633770 S    
C157  H153  1.111903 S    
C106  C110  1.586133 S    
C50   N6    1.483713 S    
O27   C23   1.290827 A    
C123  H52   1.112999 S    
C46   C50   1.644431 S    
C135  H89   1.109581 S    
C81   C141  1.571185 S    
N29   O109  1.302435 A    
N40   O131  1.295523 A    
C113  C114  1.552150 S    
N31   O113  1.303703 A    
C85   H21   1.113625 S    
N43   O137  1.297502 A    
C130  H74   1.107557 S    
Zn10  O18   1.958850 S    
C105  C117  1.577824 S    
C52   N48   1.484476 S    
C121  H46   1.112300 S    
C35   C43   1.586243 S    
Zn9   O17   1.959048 S    
C120  N36   1.472520 S    
C39   H7    1.100938 S    
Zn9   O1    1.967197 S    
C163  H172  1.089689 S    
Zn9   O29   1.968357 S    
C168  H186  1.109079 S    
C122  H49   1.111386 S    
C136  H92   1.110198 S    
O41   C13   1.282586 A    
C122  H50   1.111315 S    
C68   H28   1.103218 S    
C15   C103  1.502870 S    
C18   C47   1.514992 S    
C146  H122  1.109626 S    
N22   O95   1.298083 A    
C97   C153  1.572055 S    
N9    O69   1.301349 A    
N1    O53   1.300510 A    
C131  H77   1.109042 S    
C7    C75   1.496208 S    
N26   O103  1.303869 A    
N3    O58   1.301268 A    
C10   C106  1.496816 S    
C8    C76   1.492690 S    
N24   O100  1.302155 A    
Zn6   O14   1.959860 S    
C116  C164  1.555410 S    
C31   N43   1.506159 S    
O20   C16   1.291839 A    
O33   C21   1.286505 A    
C38   N50   1.482469 S    
C58   H10   1.108924 S    
O15   C11   1.280274 A    
C9    C105  1.503945 S    
C150  H133  1.108935 S    
N17   O85   1.303517 A    
N44   O140  1.302317 A    
C161  H167  1.111039 S    
C54   C166  1.573863 S    
C52   N8    1.481845 S    
N45   O142  1.298585 A    
N21   O93   1.299556 A    
O44   C16   1.284612 A    
C166  H180  1.098265 S    
C131  H76   1.108501 S    
O17   C13   1.293589 A    
C55   C167  1.576463 S    
C97   C101  1.635612 S    
C59   C63   1.572194 S    
C148  H128  1.108601 S    
C151  H137  1.112630 S    
N34   O120  1.300267 A    
H2    C34   1.093893 S    
O48   C4    1.292140 A    
N16   O83   1.300524 A    
C163  H173  1.110866 S    
C97   N29   1.491262 S    
O14   C10   1.285479 A    
Zn1   O1    1.972017 S    
C72   H20   1.109402 S    
Zn16  O8    1.953300 S    
C150  H132  1.096859 S    
C119  C120  1.579825 S    
C139  H99   1.101621 S    
C56   C128  1.568967 S    
C39   C43   1.586361 S    
C140  H102  1.100908 S    
C122  H48   1.104404 S    
Zn1   O33   1.965625 S    
C46   C54   1.658944 S    
N7    O66   1.300237 A    
O30   C18   1.289587 A    
