data_mof_unit_37891.cif
_audit_creation_date              2013-03-05T16:14:23-0500
_audit_creation_method            fapswitch 2.2
_symmetry_space_group_name_H-M    P1
_symmetry_Int_Tables_number       1
_space_group_crystal_system       triclinic
_cell_length_a                    7.313806
_cell_length_b                    23.04734
_cell_length_c                    25.434048
_cell_angle_alpha                 89.996588
_cell_angle_beta                  90.002057
_cell_angle_gamma                 90.003649
_cell_volume                      4287.25908914

loop_
_atom_site_label
_atom_site_type_symbol
_atom_site_description
_atom_site_fract_x
_atom_site_fract_y
_atom_site_fract_z
_atom_type_partial_charge
O1    O     O_R   0.690340 0.802800 0.195640 -0.581134
O2    O     O_R   0.309660 0.197200 0.804360 -0.592523
O3    O     O_R   0.309660 0.197200 0.695640 -0.581188
O4    O     O_R   0.690340 0.802800 0.304360 -0.592582
O5    O     O_R   0.190340 0.697200 0.304360 -0.592549
O6    O     O_R   0.809660 0.302800 0.695640 -0.581129
O7    O     O_R   0.809660 0.302800 0.804360 -0.592543
O8    O     O_R   0.190340 0.697200 0.195640 -0.581153
O9    O     O_R   0.360590 0.809740 0.303990 -0.565777
O10   O     O_R   0.639410 0.190260 0.696010 -0.525052
O11   O     O_R   0.639410 0.190260 0.803990 -0.565733
O12   O     O_R   0.360590 0.809740 0.196010 -0.525089
O13   O     O_R   0.860590 0.690260 0.196010 -0.525075
O14   O     O_R   0.139410 0.309740 0.803990 -0.565727
O15   O     O_R   0.139410 0.309740 0.696010 -0.525113
O16   O     O_R   0.860590 0.690260 0.303990 -0.565739
C1    C     C_R   0.528552 0.824407 0.320468 0.936149
C2    C     C_R   0.472279 0.176221 0.678539 1.002290
C3    C     C_R   0.471456 0.175575 0.820460 0.936002
C4    C     C_R   0.527716 0.823791 0.178545 1.002277
C5    C     C_R   0.027711 0.676211 0.178544 1.002233
C6    C     C_R   0.971462 0.324421 0.820462 0.935983
C7    C     C_R   0.972286 0.323791 0.678545 1.002234
C8    C     C_R   0.028541 0.675575 0.320460 0.935965
O17   O     O_3   0.523810 0.713070 0.250000 -0.244281
O18   O     O_3   0.476190 0.286930 0.750000 -0.244281
O19   O     O_3   0.023810 0.786930 0.250000 -0.244313
O20   O     O_3   0.976190 0.213070 0.750000 -0.244231
V1    V     V_3+5 0.248970 0.756850 0.250000 1.331059
V2    V     V_3+5 0.751030 0.243150 0.750000 1.331125
V3    V     V_3+5 0.748970 0.743150 0.250000 1.331091
V4    V     V_3+5 0.251030 0.256850 0.750000 1.331113
C9    C     C_R   0.034199 0.630430 0.362493 -0.276080
C10   C     C_R   0.969698 0.368626 0.635427 -0.311364
C11   C     C_R   0.965811 0.369555 0.862502 -0.276042
C12   C     C_R   0.030302 0.631383 0.135422 -0.311367
C13   C     C_R   0.530309 0.868627 0.135428 -0.311339
C14   C     C_R   0.465793 0.130430 0.862492 -0.276064
C15   C     C_R   0.469658 0.131422 0.635401 -0.311368
C16   C     C_R   0.534259 0.869492 0.362539 -0.275783
C17   C     C_R   0.891621 0.589013 0.368949 0.275222
C18   C     C_R   0.131969 0.391912 0.612818 0.335003
C19   C     C_R   0.108368 0.410980 0.868960 0.275231
C20   C     C_R   0.868038 0.608093 0.112812 0.335045
C21   C     C_R   0.368038 0.891913 0.112821 0.335030
C22   C     C_R   0.608352 0.089011 0.868945 0.275222
C23   C     C_R   0.631910 0.108101 0.612823 0.335221
C24   C     C_R   0.391888 0.910969 0.368976 0.275160
C25   C     C_R   0.897449 0.548803 0.411155 0.016157
C26   C     C_R   0.123288 0.434617 0.572888 0.030903
C27   C     C_R   0.102545 0.451180 0.911170 0.016165
C28   C     C_R   0.876727 0.565395 0.072879 0.030871
C29   C     C_R   0.376722 0.934619 0.072891 0.030889
C30   C     C_R   0.602528 0.048803 0.911152 0.016159
C31   C     C_R   0.623197 0.065421 0.572876 0.030703
C32   C     C_R   0.397745 0.951126 0.411218 0.016265
C33   C     C_R   0.047129 0.549599 0.446450 0.167815
C34   C     C_R   0.951531 0.453931 0.553835 0.158327
C35   C     C_R   0.952896 0.450362 0.946477 0.167790
C36   C     C_R   0.048491 0.546093 0.053821 0.158310
C37   C     C_R   0.548479 0.953932 0.053835 0.158334
C38   C     C_R   0.452871 0.049603 0.946453 0.167821
C39   C     C_R   0.451415 0.046182 0.553760 0.158270
C40   C     C_R   0.547160 0.950166 0.446613 0.167724
C41   C     C_R   0.189237 0.589169 0.438365 -0.194682
C42   C     C_R   0.794441 0.431097 0.576814 -0.197719
C43   C     C_R   0.810817 0.410782 0.938392 -0.194674
C44   C     C_R   0.205572 0.568944 0.076793 -0.197715
C45   C     C_R   0.705567 0.931097 0.076811 -0.197713
C46   C     C_R   0.310780 0.089174 0.938370 -0.194689
C47   C     C_R   0.294344 0.069133 0.576648 -0.197776
C48   C     C_R   0.689051 0.910513 0.438553 -0.194667
C49   C     C_R   0.182201 0.629454 0.397553 -0.130410
C50   C     C_R   0.802552 0.389321 0.616508 -0.121489
C51   C     C_R   0.817839 0.370512 0.897571 -0.130408
C52   C     C_R   0.197451 0.610708 0.116493 -0.121503
C53   C     C_R   0.697456 0.889322 0.116506 -0.121501
C54   C     C_R   0.317810 0.129457 0.897556 -0.130415
C55   C     C_R   0.302491 0.110848 0.616387 -0.121578
C56   C     C_R   0.682068 0.870326 0.397667 -0.130647
N1    N     N_2   0.069434 0.508227 0.487543 -0.056553
N2    N     N_2   0.927519 0.495604 0.512342 -0.067033
N3    N     N_2   0.930576 0.491719 0.987581 -0.056550
N4    N     N_2   0.072527 0.504429 0.012324 -0.067005
N5    N     N_2   0.572490 0.995603 0.012340 -0.067029
N6    N     N_2   0.430569 0.008233 0.987548 -0.056555
N7    N     N_2   0.427282 0.004568 0.512229 -0.066892
N8    N     N_2   0.569524 0.991417 0.487804 -0.056564
H1    H     H_    0.306356 0.589105 0.464450 0.142133
H2    H     H_    0.664252 0.445941 0.563263 0.153480
H3    H     H_    0.693722 0.410826 0.964484 0.142128
H4    H     H_    0.335769 0.554124 0.063230 0.153491
H5    H     H_    0.835756 0.945939 0.063257 0.153473
H6    H     H_    0.193678 0.089112 0.964460 0.142134
H7    H     H_    0.164133 0.054436 0.562981 0.153482
H8    H     H_    0.805982 0.910438 0.464710 0.142112
H9    H     H_    0.292962 0.660362 0.393738 0.169186
H10   H     H_    0.677258 0.373017 0.632596 0.241006
H11   H     H_    0.707092 0.339598 0.893756 0.169151
H12   H     H_    0.322743 0.627023 0.132575 0.241012
H13   H     H_    0.822750 0.873017 0.132593 0.241000
H14   H     H_    0.207062 0.160366 0.893744 0.169176
H15   H     H_    0.177203 0.127223 0.632415 0.241010
H16   H     H_    0.792684 0.839369 0.393857 0.168822
N9    N     N_R   0.307832 0.373443 0.630341 0.217272
O21   O     O_R   0.379901 0.326596 0.610699 -0.441383
O22   O     O_R   0.380992 0.397894 0.671374 -0.372548
N10   N     N_R   0.749281 0.584199 0.330430 0.241880
O23   O     O_R   0.582241 0.598456 0.342287 -0.415121
O24   O     O_R   0.789066 0.569581 0.282367 -0.363280
N11   N     N_R   0.692174 0.626562 0.130328 0.217267
O25   O     O_R   0.620126 0.673415 0.110687 -0.441384
O26   O     O_R   0.619008 0.602109 0.171362 -0.372541
N12   N     N_R   0.250689 0.415808 0.830438 0.241872
O27   O     O_R   0.417741 0.401558 0.842292 -0.415081
O28   O     O_R   0.210875 0.430428 0.782376 -0.363306
N13   N     N_R   0.750669 0.084195 0.830422 0.241879
O29   O     O_R   0.917723 0.098449 0.842275 -0.415091
O30   O     O_R   0.710849 0.069582 0.782360 -0.363326
N14   N     N_R   0.192173 0.873444 0.130345 0.217270
O31   O     O_R   0.120079 0.826598 0.110704 -0.441385
O32   O     O_R   0.119038 0.897893 0.171381 -0.372520
N15   N     N_R   0.249696 0.915878 0.330419 0.241826
O33   O     O_R   0.082537 0.901705 0.342232 -0.414758
O34   O     O_R   0.289723 0.930474 0.282366 -0.363445
N16   N     N_R   0.807789 0.126595 0.630318 0.217262
O35   O     O_R   0.879681 0.173480 0.610687 -0.441468
O36   O     O_R   0.881065 0.102159 0.671344 -0.372538
N17   N     N_2   0.287826 0.457651 0.551960 -0.108196
H17   H     H_    0.385935 0.426904 0.544151 0.185367
C57   C     C_3   0.353519 0.509369 0.578179 -0.864231
H18   H     H_    0.404852 0.498553 0.618071 0.282200
H19   H     H_    0.242688 0.542161 0.581456 0.256835
H20   H     H_    0.466370 0.528812 0.554911 0.233538
N18   N     N_2   0.759832 0.505396 0.416255 -0.112757
H21   H     H_    0.629014 0.519005 0.407722 0.213551
C58   C     C_3   0.804957 0.450592 0.391813 -0.805800
H22   H     H_    0.816137 0.455968 0.348508 0.266523
H23   H     H_    0.695808 0.418483 0.400428 0.241792
H24   H     H_    0.936022 0.433526 0.407578 0.249844
N19   N     N_2   0.712190 0.542371 0.051941 -0.108196
H25   H     H_    0.614116 0.573125 0.044115 0.185353
C59   C     C_3   0.646423 0.490665 0.078170 -0.864198
H26   H     H_    0.595044 0.501496 0.118051 0.282202
H27   H     H_    0.757223 0.457866 0.081472 0.256839
H28   H     H_    0.533587 0.471224 0.054894 0.233547
N20   N     N_2   0.240128 0.494599 0.916262 -0.112755
H29   H     H_    0.370952 0.481000 0.907727 0.213560
C60   C     C_3   0.194940 0.549397 0.891814 -0.805812
H30   H     H_    0.183746 0.544021 0.848510 0.266527
H31   H     H_    0.304062 0.581517 0.900424 0.241791
H32   H     H_    0.063865 0.566451 0.907580 0.249846
N21   N     N_2   0.740122 0.005392 0.916249 -0.112755
H33   H     H_    0.870942 0.018999 0.907710 0.213557
C61   C     C_3   0.694944 0.950589 0.891810 -0.805814
H34   H     H_    0.683732 0.955964 0.848505 0.266519
H35   H     H_    0.563880 0.933526 0.907582 0.249845
H36   H     H_    0.804080 0.918478 0.900421 0.241795
N22   N     N_2   0.212184 0.957651 0.051965 -0.108205
H37   H     H_    0.114066 0.926903 0.044155 0.185361
C62   C     C_3   0.146513 0.009367 0.078186 -0.864179
H38   H     H_    0.095178 0.998548 0.118076 0.282207
H39   H     H_    0.033667 0.028812 0.054918 0.233532
H40   H     H_    0.257355 0.042159 0.081466 0.256838
N23   N     N_2   0.260481 0.994649 0.416239 -0.112743
H41   H     H_    0.129596 0.981157 0.407635 0.213665
C63   C     C_3   0.306289 0.049415 0.391823 -0.805926
H42   H     H_    0.317677 0.044036 0.348523 0.266534
H43   H     H_    0.437432 0.066352 0.407654 0.249858
H44   H     H_    0.197406 0.081625 0.400388 0.241808
N24   N     N_2   0.787741 0.042434 0.551923 -0.108215
H45   H     H_    0.885604 0.073231 0.544003 0.185232
C64   C     C_3   0.853914 0.990831 0.578230 -0.863865
H46   H     H_    0.905586 0.001792 0.618051 0.282281
H47   H     H_    0.966637 0.971372 0.554927 0.233553
H48   H     H_    0.743260 0.957996 0.581683 0.256822

loop_
_geom_bond_atom_site_label_1
_geom_bond_atom_site_label_2
_geom_bond_distance
_ccdc_geom_bond_type
O17   V3    1.786712 S    
C59   H28   1.110054 S    
N24   H45   1.027911 S    
O18   V4    1.786712 S    
N23   H41   1.030003 S    
C17   N10   1.433816 S    
O12   V1    2.009415 S    
O19   V1    1.786793 S    
C45   C53   1.396320 A    
O16   C8    1.341225 A    
C53   H13   1.071606 S    
N20   H29   1.030012 S    
C10   C18   1.423786 A    
C24   C32   1.418740 A    
N7    N8    1.249068 D    
C57   H20   1.110059 S    
C24   N15   1.433847 S    
C47   C55   1.396272 A    
C62   H38   1.110170 S    
C25   C33   1.415823 A    
N15   O33   1.300621 A    
C63   H43   1.111048 S    
C5    C12   1.506912 S    
N5    N6    1.248884 D    
O16   V3    2.009436 S    
C49   H9    1.083056 S    
C6    C11   1.492374 S    
N9    O22   1.301175 A    
O11   C3    1.341233 A    
N16   O35   1.301259 A    
O12   C4    1.340238 A    
C56   H16   1.083081 S    
N3    N4    1.248867 D    
O8    V1    1.996386 S    
C23   C31   1.415641 A    
N20   C60   1.445997 S    
C35   N3    1.424180 S    
C45   H5    1.068865 S    
N13   O30   1.300990 A    
C19   N12   1.433821 S    
N15   O34   1.300978 A    
C46   C54   1.393581 A    
C37   C45   1.392294 A    
C59   H26   1.110168 S    
C42   C50   1.396318 A    
C59   H27   1.111432 S    
O1    V3    1.996312 S    
C41   C49   1.393585 A    
N10   O23   1.300594 A    
C38   C46   1.397886 A    
O3    C2    1.355602 A    
O2    V4    1.996309 S    
C17   C25   1.418756 A    
C16   C24   1.423045 A    
C12   C52   1.397678 A    
C35   C43   1.397902 A    
C29   C37   1.418110 A    
C34   C42   1.392296 A    
N11   O25   1.301247 A    
O11   V2    2.009413 S    
C31   C39   1.418238 A    
C32   N23   1.424960 S    
C16   C56   1.402574 A    
N21   C61   1.445996 S    
C11   C19   1.423185 A    
O9    V1    2.009472 S    
C20   C28   1.415672 A    
O15   C7    1.340231 A    
C25   N18   1.424986 S    
C21   C29   1.415642 A    
N23   C63   1.446003 S    
O7    V2    1.996386 S    
C61   H36   1.110334 S    
C60   H31   1.110329 S    
C55   H15   1.071620 S    
C30   N21   1.424990 S    
C31   N24   1.418846 S    
C62   H39   1.110054 S    
N14   O32   1.301208 A    
N1    N2    1.248906 D    
C63   H44   1.110327 S    
O5    V1    1.996292 S    
C64   H47   1.110061 S    
C27   C35   1.415887 A    
C58   H24   1.111028 S    
C29   N22   1.418887 S    
C43   H3    1.083470 S    
C26   C34   1.418105 A    
C52   H12   1.071610 S    
N18   H21   1.030009 S    
C42   H2    1.068867 S    
C60   H32   1.111029 S    
O14   V4    2.009575 S    
C63   H42   1.111374 S    
C14   C54   1.402614 A    
C64   H46   1.110137 S    
C13   C53   1.397675 A    
C22   N13   1.433824 S    
C1    C16   1.492166 S    
C15   C55   1.397648 A    
C41   H1    1.083456 S    
C2    C15   1.506791 S    
C3    C14   1.492332 S    
N24   C64   1.447877 S    
N19   C59   1.447866 S    
O10   V2    2.009474 S    
N22   H37   1.027891 S    
C27   N20   1.424989 S    
C7    C10   1.506878 S    
C11   C51   1.402618 A    
C22   C30   1.418748 A    
C51   H11   1.083065 S    
O8    C5    1.355635 A    
O13   C5    1.340257 A    
N11   O26   1.301193 A    
C61   H35   1.111031 S    
C58   H23   1.110332 S    
C26   N17   1.418889 S    
C39   C47   1.392317 A    
C37   N5    1.437680 S    
C18   C26   1.415647 A    
O4    C1    1.347636 A    
C21   N14   1.426254 S    
C9    C49   1.402610 A    
O6    V2    1.996296 S    
C10   C50   1.397672 A    
N19   H25   1.027895 S    
C33   N1    1.424108 S    
C12   C20   1.423791 A    
C43   C51   1.393597 A    
C13   C21   1.423790 A    
C57   H18   1.110166 S    
C62   H40   1.111432 S    
N14   O31   1.301239 A    
C38   N6    1.424111 S    
C23   N16   1.426287 S    
C15   C23   1.423730 A    
N17   H17   1.027898 S    
C58   H22   1.111383 S    
C64   H48   1.111440 S    
O9    C1    1.341234 A    
N18   C58   1.446003 S    
O1    C4    1.355643 A    
N16   O36   1.301194 A    
C50   H10   1.071606 S    
C39   N7    1.437665 S    
O2    C3    1.347729 A    
O13   V3    2.009577 S    
C8    C9    1.492342 S    
C33   C41   1.397887 A    
C57   H19   1.111437 S    
O15   V4    2.009438 S    
N12   O28   1.300996 A    
N12   O27   1.300587 A    
C44   C52   1.396323 A    
O7    C6    1.347728 A    
C30   C38   1.415832 A    
N9    O21   1.301269 A    
C28   N19   1.418896 S    
C9    C17   1.423177 A    
O14   C6    1.341246 A    
C34   N2    1.437676 S    
N22   C62   1.447867 S    
C48   C56   1.393546 A    
N13   O29   1.300592 A    
C4    C13   1.506878 S    
C36   N4    1.437728 S    
C19   C27   1.418770 A    
C32   C40   1.416009 A    
O5    C8    1.347721 A    
O10   C2    1.340238 A    
O6    C7    1.355633 A    
O20   V2    1.786793 S    
C44   H4    1.068869 S    
N10   O24   1.300992 A    
C40   C48   1.397965 A    
O3    V4    1.996445 S    
C18   N9    1.426249 S    
C14   C22   1.423182 A    
O4    V3    1.996445 S    
C48   H8    1.083479 S    
C20   N11   1.426251 S    
C47   H7    1.068860 S    
C36   C44   1.392305 A    
C28   C36   1.418150 A    
C61   H34   1.111382 S    
C46   H6    1.083461 S    
C54   H14   1.083058 S    
N21   H33   1.030013 S    
C60   H30   1.111383 S    
C40   N8    1.424186 S    
N17   C57   1.447864 S    
