data_mof_unit_13322.cif
_audit_creation_date              2012-12-10T20:49:07-0500
_audit_creation_method            fapswitch 2.2
_symmetry_space_group_name_H-M    P1
_symmetry_Int_Tables_number       1
_space_group_crystal_system       triclinic
_cell_length_a                    8.918146
_cell_length_b                    8.147538
_cell_length_c                    10.545409
_cell_angle_alpha                 89.940349
_cell_angle_beta                  90.036915
_cell_angle_gamma                 90.02865
_cell_volume                      766.238591446

loop_
_atom_site_label
_atom_site_type_symbol
_atom_type_description
_atom_site_fract_x
_atom_site_fract_y
_atom_site_fract_z
_atom_type_partial_charge
C1    C     C_R   0.218186 0.499973 0.499959 0.923764
C2    C     C_3   0.636271 0.535059 0.048880 -0.239692
C3    C     C_3   0.508366 0.501154 0.877297 -0.119534
C4    C     C_3   0.491634 0.498846 0.122703 -0.119534
C5    C     C_1   0.065262 0.499961 0.499976 -0.204726
C6    C     C_1   0.934738 0.500039 0.500024 -0.204725
C7    C     C_3   0.284235 0.735544 0.084792 -0.397524
C8    C     C_3   0.189186 0.803659 0.976429 -0.882556
C9    C     C_3   0.715765 0.264456 0.915208 -0.397524
C10   C     C_3   0.810814 0.196341 0.023571 -0.882556
C11   C     C_3   0.602332 0.816685 0.918754 -0.394748
C12   C     C_R   0.781814 0.500027 0.500041 0.923764
C13   C     C_3   0.758999 0.803208 0.860620 -0.839705
C14   C     C_3   0.397668 0.183315 0.081246 -0.394748
C15   C     C_3   0.241001 0.196791 0.139380 -0.839705
C16   C     C_R   0.493233 0.499832 0.257164 0.877263
C17   C     C_R   0.506767 0.500168 0.742836 0.877264
C18   C     C_3   0.400512 0.612989 0.037065 0.132654
C19   C     C_3   0.599487 0.387011 0.962935 0.132654
C20   C     C_3   0.544260 0.649010 0.961707 0.185452
C21   C     C_3   0.455740 0.350990 0.038293 0.185452
C22   C     C_3   0.363729 0.464941 0.951120 -0.239692
H1    H     H_    0.253974 0.435933 0.906639 0.148796
H2    H     H_    0.891998 0.105610 0.985861 0.252360
H3    H     H_    0.656716 0.163331 0.865815 0.217634
H4    H     H_    0.790573 0.326812 0.846062 0.203358
H5    H     H_    0.842229 0.772697 0.935264 0.245931
H6    H     H_    0.762806 0.707050 0.786304 0.261631
H7    H     H_    0.791453 0.921394 0.816308 0.252716
H8    H     H_    0.523874 0.870972 0.848685 0.218355
H9    H     H_    0.607269 0.898921 0.002352 0.198896
H10   H     H_    0.237194 0.292950 0.213696 0.261631
H11   H     H_    0.157771 0.227303 0.064736 0.245931
H12   H     H_    0.746026 0.564067 0.093361 0.148796
H13   H     H_    0.208547 0.078606 0.183692 0.252716
H14   H     H_    0.392731 0.101079 0.997648 0.198896
H15   H     H_    0.476126 0.129028 0.151315 0.218355
H16   H     H_    0.260748 0.864855 0.904571 0.260730
H17   H     H_    0.125029 0.703485 0.930096 0.256303
H18   H     H_    0.108002 0.894390 0.014139 0.252360
H19   H     H_    0.209427 0.673188 0.153938 0.203358
H20   H     H_    0.343284 0.836669 0.134185 0.217634
H21   H     H_    0.874971 0.296515 0.069904 0.256303
H22   H     H_    0.739252 0.135145 0.095429 0.260730
N1    N     N_1   0.500000 0.073640 0.500000 -0.042503
N2    N     N_1   0.500000 0.926360 0.500000 -0.042503
O1    O     O_R   0.285350 0.636850 0.500000 -0.615748
O2    O     O_R   0.714650 0.363150 0.500000 -0.615748
O3    O     O_R   0.714650 0.636850 0.500000 -0.615296
O4    O     O_R   0.285350 0.363150 0.500000 -0.615296
O5    O     O_R   0.499970 0.636850 0.313950 -0.631713
O6    O     O_R   0.500030 0.363150 0.686050 -0.631713
O7    O     O_R   0.500030 0.636850 0.686050 -0.616513
O8    O     O_R   0.499970 0.363150 0.313950 -0.616513
Zn1   Zn    Zn3+2 0.500000 0.682780 0.500000 0.964414
Zn2   Zn    Zn3+2 0.500000 0.317220 0.500000 0.964414

loop_
_geom_bond_atom_site_label_1
_geom_bond_atom_site_label_2
_ccdc_geom_bond_type
N2    Zn1   S    
C4    C16   S    
C2    C4    S    
C13   H6    S    
C3    C19   S    
C8    H17   S    
C17   O7    A    
C1    O4    A    
O5    Zn1   S    
C16   O5    A    
C12   O2    A    
C7    C18   S    
C4    C18   S    
C2    H12   S    
C7    H19   S    
C12   O3    A    
C10   H21   S    
C9    H3    S    
C15   H10   S    
O3    Zn1   S    
C21   C22   S    
C14   H15   S    
C6    C12   S    
C4    C21   S    
C11   C13   S    
C8    H16   S    
C11   H8    S    
C1    C5    S    
C10   H22   S    
C14   C21   S    
C15   H13   S    
C19   C21   S    
C15   H11   S    
C9    H4    S    
C3    C17   S    
C18   C20   S    
O7    Zn1   S    
C14   H14   S    
C5    C6    T    
C16   O8    A    
C11   C20   S    
C7    C8    S    
C11   H9    S    
N1    N2    T    
C3    C20   S    
C17   O6    A    
O1    Zn1   S    
C9    C10   S    
C7    H20   S    
C13   H7    S    
O2    Zn2   S    
C14   C15   S    
C13   H5    S    
C3    C22   S    
C8    H18   S    
C10   H2    S    
C2    C19   S    
C18   C22   S    
C2    C20   S    
C9    C19   S    
C22   H1    S    
O4    Zn2   S    
O6    Zn2   S    
N1    Zn2   S    
C1    O1    A    
O8    Zn2   S    
