data_mof_unit_40863.cif
_audit_creation_date              2012-12-11T15:35:02-0500
_audit_creation_method            fapswitch 2.2
_symmetry_space_group_name_H-M    P1
_symmetry_Int_Tables_number       1
_space_group_crystal_system       triclinic
_cell_length_a                    30.659519
_cell_length_b                    7.235602
_cell_length_c                    25.909656
_cell_angle_alpha                 89.982693
_cell_angle_beta                  112.031672
_cell_angle_gamma                 90.000859
_cell_volume                      5328.07612072

loop_
_atom_site_label
_atom_site_type_symbol
_atom_type_description
_atom_site_fract_x
_atom_site_fract_y
_atom_site_fract_z
_atom_type_partial_charge
O1    O     O_R   0.295360 0.592990 0.320420 -0.519679
O2    O     O_R   0.704640 0.407010 0.679580 -0.520258
O3    O     O_R   0.204640 0.092990 0.179580 -0.531520
O4    O     O_R   0.795360 0.907010 0.820420 -0.520591
O5    O     O_R   0.294060 0.265620 0.213230 -0.536191
O6    O     O_R   0.705940 0.734380 0.786770 -0.530550
O7    O     O_R   0.205940 0.765620 0.286770 -0.537086
O8    O     O_R   0.794060 0.234380 0.713230 -0.530499
C1    C     C_R   0.303984 0.432768 0.198965 0.761962
C2    C     C_R   0.696602 0.568143 0.801584 0.758694
C3    C     C_R   0.195982 0.932713 0.300998 0.731325
C4    C     C_R   0.803423 0.068171 0.698434 0.759343
O9    O     O_R   0.300850 0.263360 0.322080 -0.536230
O10   O     O_R   0.699150 0.736640 0.677920 -0.539857
O11   O     O_R   0.199150 0.763360 0.177920 -0.528687
O12   O     O_R   0.800850 0.236640 0.822080 -0.539870
O13   O     O_R   0.211480 0.091820 0.289210 -0.531447
O14   O     O_R   0.788520 0.908180 0.710790 -0.537458
O15   O     O_R   0.288520 0.591820 0.210790 -0.523988
O16   O     O_R   0.711480 0.408180 0.789210 -0.537486
C5    C     C_R   0.313554 0.431103 0.343193 0.784720
C6    C     C_R   0.686724 0.568943 0.656669 0.779794
C7    C     C_R   0.186375 0.931185 0.156898 0.703928
C8    C     C_R   0.813196 0.068901 0.843328 0.780227
O17   O     O_3   0.220670 0.426670 0.239090 -0.374657
O18   O     O_3   0.779330 0.573330 0.760910 -0.373080
O19   O     O_3   0.279330 0.926670 0.260910 -0.362370
O20   O     O_3   0.720670 0.073330 0.739090 -0.372976
V1    V     V_3+5 0.255440 0.152290 0.252020 1.537073
V2    V     V_3+5 0.744560 0.847710 0.747980 1.549778
V3    V     V_3+5 0.244560 0.652290 0.247980 1.552956
V4    V     V_3+5 0.755440 0.347710 0.752020 1.549831
C9    C     C_R   0.850684 0.068100 0.899486 -0.101380
C10   C     C_R   0.147983 0.932038 0.101127 -0.172701
C11   C     C_R   0.649225 0.568476 0.600415 -0.101017
C12   C     C_R   0.351570 0.431370 0.399203 -0.105414
C13   C     C_R   0.878160 0.210000 0.990931 0.211122
C14   C     C_R   0.120332 0.789950 0.009577 0.197792
C15   C     C_R   0.621533 0.713447 0.509344 0.207091
C16   C     C_R   0.380048 0.284949 0.490102 0.206018
C17   C     C_R   0.841557 0.157867 0.942081 -0.226083
C18   C     C_R   0.156784 0.839437 0.058716 -0.182035
C19   C     C_R   0.658200 0.660956 0.558111 -0.223388
C20   C     C_R   0.343143 0.338043 0.441732 -0.225158
C21   C     C_R   0.897154 0.015831 0.907828 0.357481
C22   C     C_R   0.101282 0.991911 0.091611 0.362490
C23   C     C_R   0.602827 0.513700 0.591722 0.354550
C24   C     C_R   0.397925 0.485830 0.407337 0.354483
C25   C     C_R   0.933904 0.039074 0.961611 -0.019208
C26   C     C_R   0.065073 0.968113 0.037770 0.050830
C27   C     C_R   0.566091 0.537318 0.537872 -0.018706
C28   C     C_R   0.435080 0.461239 0.460895 -0.018874
C29   C     C_R   0.924834 0.159532 0.999633 0.004257
C30   C     C_R   0.073913 0.844483 0.000304 -0.016046
C31   C     C_R   0.574959 0.660452 0.500311 0.012090
C32   C     C_R   0.426490 0.337679 0.498595 0.012587
C33   C     C_R   0.980284 0.962648 0.977214 -0.029190
C34   C     C_R   0.018639 0.044213 0.022235 0.025327
C35   C     C_R   0.519884 0.458543 0.521770 -0.003248
C36   C     C_R   0.481376 0.539452 0.476667 -0.003494
C37   C     C_R   0.008984 0.202023 0.048550 0.242719
C38   C     C_R   0.989753 0.803903 0.951175 0.173058
C39   C     C_R   0.490706 0.699335 0.450898 0.165772
C40   C     C_R   0.510719 0.298254 0.547439 0.166139
C41   C     C_R   0.962805 0.243366 0.041706 -0.134588
C42   C     C_R   0.035859 0.760789 0.958332 -0.136211
C43   C     C_R   0.536838 0.743869 0.458305 -0.131516
C44   C     C_R   0.464697 0.253495 0.540230 -0.132479
H1    H     H_    0.957024 0.357278 0.065353 0.183750
H2    H     H_    0.041456 0.645953 0.934876 0.186037
H3    H     H_    0.542391 0.858915 0.434870 0.183827
H4    H     H_    0.459280 0.138098 0.563635 0.183946
H5    H     H_    0.191887 0.790527 0.065776 0.176524
H6    H     H_    0.806071 0.202485 0.935211 0.171546
H7    H     H_    0.307996 0.290896 0.435173 0.177702
H8    H     H_    0.693592 0.707362 0.565194 0.171620
C45   C     C_R   0.090576 0.924367 0.478179 0.691504
C46   C     C_R   0.905806 0.973080 0.519484 0.649080
C47   C     C_R   0.409721 0.433615 0.022071 0.646290
C48   C     C_R   0.594462 0.469449 0.980675 0.652167
N1    N     N_R   0.070438 0.925075 0.421279 -0.577137
N2    N     N_R   0.925925 0.996901 0.575892 -0.565950
N3    N     N_R   0.429730 0.429161 0.078953 -0.559547
N4    N     N_R   0.574393 0.497629 0.924432 -0.562595
C49   C     C_R   0.022640 0.925353 0.394212 0.605747
C50   C     C_R   0.973718 0.997742 0.603070 0.620146
C51   C     C_R   0.477539 0.426510 0.106067 0.609690
C52   C     C_R   0.526630 0.505495 0.897449 0.618207
C53   C     C_R   0.992610 0.923625 0.424589 -0.184788
C54   C     C_R   0.003921 0.983360 0.573036 -0.123430
C55   C     C_R   0.507565 0.425061 0.075667 -0.181224
C56   C     C_R   0.496531 0.495768 0.927640 -0.175541
C57   C     C_R   0.012896 0.941806 0.483289 -0.127880
C58   C     C_R   0.983618 0.961761 0.514476 -0.099384
C59   C     C_R   0.487413 0.451292 0.017256 -0.096866
C60   C     C_R   0.516764 0.469100 0.986054 -0.100357
C61   C     C_R   0.062453 0.939465 0.510710 -0.120011
C62   C     C_R   0.934008 0.962192 0.486984 -0.196338
C63   C     C_R   0.437881 0.459213 0.990056 -0.192007
C64   C     C_R   0.566329 0.460786 0.013311 -0.193533
C65   C     C_R   0.942920 0.914951 0.397919 0.387403
C66   C     C_R   0.053684 0.987916 0.599921 0.268407
C67   C     C_R   0.557154 0.408993 0.102090 0.381938
C68   C     C_R   0.446929 0.512489 0.901320 0.378835
C69   C     C_R   0.914195 0.945991 0.428099 0.385345
C70   C     C_R   0.082742 0.957285 0.569388 0.389341
C71   C     C_R   0.586077 0.438624 0.072040 0.383340
C72   C     C_R   0.418089 0.494068 0.931958 0.380864
O21   O     O_2   0.137836 0.913157 0.502864 -0.431729
O22   O     O_2   0.858646 0.955717 0.495474 -0.464167
O23   O     O_2   0.362705 0.413350 0.996958 -0.466369
O24   O     O_2   0.641456 0.445766 0.004348 -0.465393
O25   O     O_2   0.004501 0.935422 0.338144 -0.487150
O26   O     O_2   0.991660 0.009567 0.659103 -0.488795
O27   O     O_2   0.495714 0.432390 0.162185 -0.491639
O28   O     O_2   0.508598 0.520450 0.841486 -0.490423
C73   C     C_R   0.892468 0.881009 0.642412 -0.066658
C74   C     C_R   0.103949 0.783175 0.358017 -0.072023
C75   C     C_R   0.607563 0.381520 0.857709 -0.065680
C76   C     C_R   0.396083 0.284874 0.141830 -0.075632
H9    H     H_    0.912740 0.755382 0.646706 0.171562
H10   H     H_    0.083279 0.660312 0.356326 0.169272
H11   H     H_    0.587074 0.256421 0.853263 0.170974
H12   H     H_    0.416805 0.162250 0.143413 0.169031
C77   C     C_R   0.862889 0.899392 0.671962 -0.187740
C78   C     C_R   0.134258 0.786692 0.329065 -0.180439
C79   C     C_R   0.637082 0.399751 0.828070 -0.187999
C80   C     C_R   0.365692 0.287426 0.170695 -0.181198
H13   H     H_    0.861699 0.787508 0.699191 0.179523
H14   H     H_    0.135230 0.666500 0.304653 0.179780
H15   H     H_    0.638073 0.288185 0.800663 0.179242
H16   H     H_    0.364718 0.166799 0.194960 0.181598
C81   C     C_R   0.835108 0.058422 0.666581 -0.176964
C82   C     C_R   0.163052 0.940896 0.331605 -0.174159
C83   C     C_R   0.665019 0.558380 0.833546 -0.176951
C84   C     C_R   0.336851 0.441373 0.168293 -0.172598
C85   C     C_R   0.837872 0.201428 0.630273 0.134613
C86   C     C_R   0.159401 0.096790 0.363395 0.133472
C87   C     C_R   0.662538 0.700998 0.870088 0.135041
C88   C     C_R   0.340460 0.597824 0.136658 0.133654
C89   C     C_R   0.869057 0.185856 0.601948 0.391797
C90   C     C_R   0.127339 0.095930 0.390763 0.402726
C91   C     C_R   0.631528 0.685386 0.898629 0.390072
C92   C     C_R   0.372630 0.598006 0.109467 0.392693
C93   C     C_R   0.895988 0.022355 0.607289 0.220150
C94   C     C_R   0.100369 0.935554 0.389396 0.216153
C95   C     C_R   0.604372 0.522462 0.893098 0.220599
C96   C     C_R   0.399690 0.438031 0.110712 0.224205
I1    I     I_    0.793722 0.440822 0.611954 -0.286140
I2    I     I_    0.201914 0.339402 0.375653 -0.296820
I3    I     I_    0.706832 0.939929 0.888395 -0.286208
I4    I     I_    0.297803 0.840089 0.124415 -0.292261
O29   O     O_3   0.871966 0.332613 0.569201 -0.602872
H17   H     H_    0.899384 0.316158 0.558309 0.299907
O30   O     O_3   0.123582 0.254068 0.418777 -0.604193
H18   H     H_    0.095017 0.247369 0.427840 0.302001
O31   O     O_3   0.629006 0.831574 0.931758 -0.602454
H19   H     H_    0.601899 0.814741 0.943202 0.300193
O32   O     O_3   0.376444 0.756888 0.081774 -0.610179
H20   H     H_    0.405405 0.751814 0.073491 0.296316
O33   O     O_3   0.088269 0.044472 0.135177 -0.619744
H21   H     H_    0.116180 0.054171 0.170162 0.290012
O34   O     O_3   0.906308 0.971601 0.861010 -0.633961
H22   H     H_    0.939262 0.005769 0.867665 0.313190
O35   O     O_3   0.406624 0.532746 0.360416 -0.632076
H23   H     H_    0.439635 0.500506 0.366760 0.314015
O36   O     O_3   0.593634 0.466821 0.638331 -0.633503
H24   H     H_    0.560544 0.499047 0.631571 0.313698
I5    I     I_    0.859544 0.372164 0.048001 -0.207072
I6    I     I_    0.138793 0.623771 0.953135 -0.236698
I7    I     I_    0.639898 0.880058 0.452927 -0.218129
I8    I     I_    0.362145 0.117719 0.546783 -0.220155
I9    I     I_    0.058132 0.420340 0.084285 -0.343735
I10   I     I_    0.939663 0.591130 0.912833 -0.358243
I11   I     I_    0.440403 0.911352 0.412513 -0.354610
I12   I     I_    0.561270 0.086987 0.585790 -0.356310
O37   O     O_3   0.920785 0.878502 0.341898 -0.555947
H25   H     H_    0.936786 0.770070 0.333552 0.338589
O38   O     O_3   0.075008 0.027608 0.655800 -0.597786
H26   H     H_    0.062571 0.149268 0.661456 0.341488
O39   O     O_3   0.579015 0.365910 0.157711 -0.556333
H27   H     H_    0.561899 0.259381 0.165157 0.337105
O40   O     O_3   0.425218 0.556854 0.845824 -0.555223
H28   H     H_    0.439818 0.673454 0.840132 0.335487
O41   O     O_3   0.866503 0.958051 0.398226 -0.551330
H29   H     H_    0.855840 0.075308 0.409462 0.345954
O42   O     O_3   0.131264 0.953380 0.595840 -0.569352
H30   H     H_    0.140495 0.951036 0.636750 0.364236
O43   O     O_3   0.633872 0.442658 0.101834 -0.551360
H31   H     H_    0.645683 0.558997 0.091552 0.346588
O44   O     O_3   0.370625 0.523581 0.903931 -0.554076
H32   H     H_    0.360996 0.618793 0.925063 0.340653

loop_
_geom_bond_atom_site_label_1
_geom_bond_atom_site_label_2
_ccdc_geom_bond_type
O17   V3    S    
N3    C51   A    
C25   C29   A    
O1    C5    A    
O31   H19   S    
C51   C55   A    
O19   V1    S    
C9    C21   A    
C90   C94   A    
O3    C7    A    
O34   H22   S    
C10   C18   A    
C56   C60   A    
C48   N4    A    
O15   V3    S    
O33   H21   S    
O41   H29   S    
C25   C33   A    
C33   C38   A    
C5    C12   S    
O39   H27   S    
C86   I2    S    
C81   C85   A    
C6    C11   S    
C35   C40   A    
C57   C58   A    
C62   C69   A    
C36   C39   A    
C40   C44   A    
O2    V4    S    
C47   C63   A    
C79   C83   A    
C70   O42   S    
C14   C18   A    
C80   C84   A    
C13   I5    S    
O4    C8    A    
C59   C63   A    
C58   C62   A    
C75   C95   A    
C38   I10   S    
C68   C72   A    
O1    V3    S    
O13   V1    S    
C73   C93   A    
C74   H10   S    
C69   O41   S    
O3    V1    S    
C73   H9    S    
C54   C66   A    
C15   I7    S    
C28   C36   A    
C17   H6    S    
C87   C91   A    
C84   C88   A    
C1    O15   A    
C15   C31   A    
C24   O35   S    
C59   C60   A    
C2    O16   A    
O20   V2    S    
C16   C32   A    
C22   O33   S    
C46   C62   A    
C72   O44   S    
C45   C61   A    
C10   C22   A    
C45   N1    A    
C90   O30   S    
C40   I12   S    
C11   C19   A    
C88   I4    S    
C85   I1    S    
C51   O27   S    
C92   C96   A    
C13   C29   A    
C34   C37   A    
O11   C7    A    
C11   C23   A    
C35   C36   A    
O12   C8    A    
C48   C64   A    
C13   C17   A    
C66   O38   S    
C71   O43   S    
O10   V2    S    
O8    C4    A    
C80   H16   S    
N1    C49   A    
C54   C58   A    
O5    V1    S    
C65   C69   A    
C39   C43   A    
O7    V3    S    
C38   C42   A    
O44   H32   S    
C26   C34   A    
C52   C56   A    
C74   C94   A    
C91   O31   S    
C37   I9    S    
C2    C83   S    
C86   C90   A    
C3    C82   S    
O36   H24   S    
C49   C53   A    
O18   V4    S    
C15   C19   A    
C27   C31   A    
C32   C44   A    
O11   V3    S    
O38   H26   S    
O8    V4    S    
C52   O28   S    
C20   H7    S    
O7    C3    A    
O40   H28   S    
O5    C1    A    
C63   C72   A    
C37   C41   A    
C23   O36   S    
C46   N2    A    
C31   C43   A    
O32   H20   S    
C14   C30   A    
C21   C25   A    
C44   H4    S    
C7    C10   S    
C77   C81   A    
C48   O24   S    
O9    C5    A    
C46   O22   S    
C26   C30   A    
C92   O32   S    
C45   O21   S    
O37   H25   S    
O14   V2    S    
C61   C70   A    
O6    V2    S    
C16   C20   A    
C91   C95   A    
C4    C81   S    
C50   C54   A    
C14   I6    S    
C12   C20   A    
C27   C35   A    
C57   C61   A    
C16   I8    S    
N2    C93   S    
C29   C41   A    
O16   V4    S    
N4    C95   S    
O9    V1    S    
C19   H8    S    
C85   C89   A    
C3    O13   A    
C64   C71   A    
C39   I11   S    
C53   C65   A    
C67   O39   S    
C88   C92   A    
C55   C67   A    
C82   C86   A    
C23   C27   A    
C76   C80   A    
C76   C96   A    
C30   C42   A    
C75   H11   S    
O12   V4    S    
C22   C26   A    
C8    C9    S    
C47   O23   S    
C50   O26   S    
C83   C87   A    
C9    C17   A    
O10   C6    A    
C49   O25   S    
C21   O34   S    
O42   H30   S    
N2    C50   A    
O2    C6    A    
C47   N3    A    
C89   O29   S    
C33   C34   A    
C42   H2    S    
N4    C52   A    
C28   C32   A    
C41   H1    S    
C60   C64   A    
C87   I3    S    
C89   C93   A    
C18   H5    S    
C12   C24   A    
C43   H3    S    
C53   C57   A    
O43   H31   S    
C79   H15   S    
C65   O37   S    
O6    C2    A    
C56   C68   A    
C55   C59   A    
N3    C96   S    
C1    C84   S    
C77   H13   S    
O35   H23   S    
C24   C28   A    
C68   O40   S    
C78   C82   A    
N1    C94   S    
C66   C70   A    
C4    O14   A    
O30   H18   S    
C78   H14   S    
C67   C71   A    
C74   C78   A    
O29   H17   S    
C73   C77   A    
O4    V2    S    
C76   H12   S    
C75   C79   A    
