data_mof_unit_9708.cif
_audit_creation_date              2012-12-11T15:35:13-0500
_audit_creation_method            fapswitch 2.2
_symmetry_space_group_name_H-M    P1
_symmetry_Int_Tables_number       1
_space_group_crystal_system       triclinic
_cell_length_a                    24.395433
_cell_length_b                    25.130822
_cell_length_c                    10.057542
_cell_angle_alpha                 101.557649
_cell_angle_beta                  91.319518
_cell_angle_gamma                 92.751034
_cell_volume                      6030.70495632

loop_
_atom_site_label
_atom_site_type_symbol
_atom_type_description
_atom_site_fract_x
_atom_site_fract_y
_atom_site_fract_z
_atom_type_partial_charge
C1    C     C_R   0.331434 0.138245 0.905704 -0.100787
C2    C     C_R   0.330491 0.860282 0.906368 -0.113975
C3    C     C_R   0.831434 0.638245 0.905704 -0.100787
C4    C     C_R   0.830491 0.360282 0.906368 -0.113975
C5    C     C_R   0.668472 0.139959 0.094413 0.053857
C6    C     C_R   0.668102 0.860356 0.093320 -0.053862
C7    C     C_R   0.168472 0.639959 0.094413 0.053857
C8    C     C_R   0.168102 0.360356 0.093320 -0.053862
C9    C     C_R   0.577084 0.859906 0.912384 0.206889
C10   C     C_R   0.576520 0.141275 0.910571 0.216624
C11   C     C_R   0.077084 0.359905 0.912384 0.206890
C12   C     C_R   0.076520 0.641275 0.910571 0.216624
C13   C     C_R   0.485388 0.999864 0.670380 0.132474
C14   C     C_R   0.985388 0.499864 0.670380 0.132474
C15   C     C_R   0.816660 0.000210 0.330739 0.087585
C16   C     C_R   0.316661 0.500210 0.330739 0.087585
C17   C     C_R   0.649463 0.164807 0.999020 -0.064618
C18   C     C_R   0.648735 0.835449 0.996385 0.046269
C19   C     C_R   0.149463 0.664807 0.999020 -0.064618
C20   C     C_R   0.148735 0.335449 0.996385 0.046269
C21   C     C_3   0.044893 0.946423 0.589452 -0.192757
C22   C     C_3   0.045330 0.054003 0.590346 -0.315783
C23   C     C_3   0.544893 0.446423 0.589452 -0.192757
C24   C     C_3   0.545330 0.554003 0.590346 -0.315783
C25   C     C_3   0.947475 0.946180 0.499658 0.027775
C26   C     C_3   0.947367 0.053883 0.499336 0.091018
C27   C     C_3   0.447475 0.446180 0.499658 0.027775
C28   C     C_3   0.447367 0.553883 0.499336 0.091018
C29   C     C_3   0.055443 0.000105 0.455484 -0.178524
C30   C     C_3   0.555443 0.500105 0.455484 -0.178524
C31   C     C_3   0.086956 0.999784 0.580305 -0.184703
C32   C     C_3   0.586956 0.499784 0.580305 -0.184703
C33   C     C_3   0.913608 0.996869 0.417631 0.014051
C34   C     C_3   0.413608 0.496869 0.417631 0.014051
C35   C     C_R   0.424184 0.859278 0.090371 0.326238
C36   C     C_R   0.423882 0.140633 0.090057 0.289196
C37   C     C_R   0.924184 0.359278 0.090371 0.326238
C38   C     C_R   0.923882 0.640633 0.090057 0.289196
C39   C     C_3   0.958500 0.000389 0.364689 0.445250
C40   C     C_3   0.458500 0.500389 0.364689 0.445250
C41   C     C_R   0.223884 0.770375 0.899686 -0.222622
C42   C     C_R   0.224416 0.228824 0.900105 -0.288277
C43   C     C_R   0.723885 0.270375 0.899686 -0.222622
C44   C     C_R   0.724416 0.728824 0.900105 -0.288277
C45   C     C_R   0.673383 0.230527 0.901217 0.100929
C46   C     C_R   0.672978 0.771018 0.895325 0.132089
C47   C     C_R   0.173383 0.730527 0.901217 0.100929
C48   C     C_R   0.172978 0.271018 0.895325 0.132089
C49   C     C_R   0.701632 0.208362 0.000917 0.005376
C50   C     C_R   0.702335 0.791202 0.001843 0.042224
C51   C     C_R   0.201632 0.708362 0.000917 0.005376
C52   C     C_R   0.202335 0.291202 0.001843 0.042224
C53   C     C_R   0.774231 0.228333 0.103885 0.164228
C54   C     C_R   0.775917 0.771116 0.099005 0.240175
C55   C     C_R   0.274230 0.728333 0.103885 0.164228
C56   C     C_R   0.275917 0.271116 0.099005 0.240175
C57   C     C_R   0.325534 0.768208 0.097951 0.167299
C58   C     C_R   0.325253 0.229291 0.105147 0.292613
C59   C     C_R   0.825534 0.268208 0.097951 0.167299
C60   C     C_R   0.825253 0.729291 0.105147 0.292613
C61   C     C_R   0.297196 0.790676 0.999021 -0.050653
C62   C     C_R   0.296468 0.209662 0.997761 -0.110231
C63   C     C_R   0.797195 0.290676 0.999021 -0.050653
C64   C     C_R   0.796468 0.709662 0.997761 -0.110231
C65   C     C_R   0.481812 0.947712 0.540364 -0.208018
C66   C     C_R   0.350329 0.051485 0.540953 0.024194
C67   C     C_R   0.981812 0.447711 0.540364 -0.208018
C68   C     C_R   0.850329 0.551485 0.540953 0.024194
C69   C     C_R   0.506764 0.948521 0.459604 -0.292027
C70   C     C_R   0.506683 0.052330 0.460173 -0.399211
C71   C     C_R   0.006764 0.448521 0.459604 -0.292027
C72   C     C_R   0.006683 0.552330 0.460173 -0.399212
C73   C     C_R   0.526735 0.995659 0.415906 0.190876
C74   C     C_R   0.026735 0.495660 0.415906 0.190876
C75   C     C_R   0.515354 0.044961 0.281347 -0.212418
C76   C     C_R   0.518611 0.955565 0.280919 -0.172132
C77   C     C_R   0.015354 0.544961 0.281347 -0.212418
C78   C     C_R   0.018611 0.455565 0.280919 -0.172132
C79   C     C_R   0.473608 0.004267 0.584109 0.154314
C80   C     C_R   0.973608 0.504267 0.584109 0.154314
C81   C     C_R   0.236282 0.954571 0.717821 -0.081753
C82   C     C_R   0.237272 0.045159 0.720073 -0.080778
C83   C     C_R   0.736282 0.454571 0.717821 -0.081753
C84   C     C_R   0.737272 0.545159 0.720073 -0.080778
C85   C     C_R   0.348836 0.164334 0.002038 0.059330
C86   C     C_R   0.348084 0.835345 0.999433 0.029454
C87   C     C_R   0.848836 0.664334 0.002038 0.059330
C88   C     C_R   0.848084 0.335345 0.999433 0.029454
C89   C     C_R   0.513740 0.000128 0.329605 0.259116
C90   C     C_R   0.013740 0.500128 0.329605 0.259116
C91   C     C_R   0.182169 0.999694 0.667609 0.019888
C92   C     C_R   0.682169 0.499694 0.667609 0.019888
C93   C     C_R   0.480263 0.044391 0.718529 -0.168551
C94   C     C_R   0.542437 0.954496 0.717996 -0.053412
C95   C     C_R   0.980263 0.544391 0.718529 -0.168551
C96   C     C_R   0.042437 0.454497 0.717996 -0.053412
C97   C     C_R   0.762267 0.954984 0.280551 -0.032473
C98   C     C_R   0.763173 0.045214 0.283432 -0.114954
C99   C     C_R   0.262267 0.454984 0.280551 -0.032473
C100  C     C_R   0.263173 0.545214 0.283432 -0.114954
H1    H     H_    0.283810 0.147508 0.830557 0.113067
H2    H     H_    0.282381 0.850657 0.831056 0.110235
H3    H     H_    0.783810 0.647508 0.830557 0.113067
H4    H     H_    0.782381 0.350657 0.831056 0.110235
H5    H     H_    0.059598 0.944669 0.677169 0.151948
H6    H     H_    0.063690 0.059067 0.677261 0.173487
H7    H     H_    0.559598 0.444669 0.677169 0.151948
H8    H     H_    0.563690 0.559067 0.677261 0.173487
H9    H     H_    0.926604 0.905557 0.447271 0.187516
H10   H     H_    0.926305 0.097018 0.449835 0.168945
H11   H     H_    0.426604 0.405557 0.447271 0.187516
H12   H     H_    0.426305 0.597018 0.449835 0.168945
H13   H     H_    0.084294 0.961448 0.444891 0.148786
H14   H     H_    0.085018 0.018177 0.447238 0.175826
H15   H     H_    0.584294 0.461448 0.444891 0.148786
H16   H     H_    0.585018 0.518177 0.447238 0.175826
H17   H     H_    0.203528 0.785964 0.820936 0.153182
H18   H     H_    0.206756 0.207901 0.818079 0.161564
H19   H     H_    0.703528 0.285964 0.820936 0.153182
H20   H     H_    0.706756 0.707901 0.818079 0.161564
H21   H     H_    0.498176 0.910664 0.571639 0.105205
H22   H     H_    0.497927 0.090255 0.572514 0.070146
H23   H     H_    0.998176 0.410664 0.571639 0.105205
H24   H     H_    0.997927 0.590256 0.572514 0.070146
H25   H     H_    0.510401 0.909094 0.428484 0.099371
H26   H     H_    0.501813 0.086965 0.429349 0.142531
H27   H     H_    0.010401 0.409094 0.428484 0.099371
H28   H     H_    0.001813 0.586965 0.429349 0.142531
H29   H     H_    0.522068 0.081452 0.298363 0.116743
H30   H     H_    0.525078 0.917138 0.299190 0.119552
H31   H     H_    0.022068 0.581452 0.298363 0.116743
H32   H     H_    0.025078 0.417138 0.299190 0.119552
H33   H     H_    0.214764 0.914299 0.707937 0.104234
H34   H     H_    0.217586 0.085004 0.696851 0.092004
H35   H     H_    0.714764 0.414299 0.707937 0.104234
H36   H     H_    0.717586 0.585004 0.696851 0.092004
H37   H     H_    0.474332 0.082815 0.700231 0.086202
H38   H     H_    0.477888 0.915549 0.699148 0.114934
H39   H     H_    0.974332 0.582815 0.700231 0.086202
H40   H     H_    0.977888 0.415549 0.699148 0.114934
H41   H     H_    0.782026 0.916371 0.305646 0.148829
H42   H     H_    0.782635 0.084064 0.310987 0.169987
H43   H     H_    0.282026 0.416371 0.305646 0.148829
H44   H     H_    0.282635 0.584064 0.310987 0.169987
H45   H     H_    0.071907 0.906741 0.575551 0.093469
H46   H     H_    0.072223 0.093493 0.583357 0.126507
H47   H     H_    0.571907 0.406741 0.575551 0.093469
H48   H     H_    0.572223 0.593493 0.583357 0.126507
N1    N     N_R   0.392140 0.102630 0.941800 -0.080155
N2    N     N_R   0.392140 0.897370 0.941800 -0.074718
N3    N     N_R   0.892140 0.602630 0.941800 -0.080155
N4    N     N_R   0.892140 0.397370 0.941800 -0.074718
N5    N     N_R   0.450890 0.896450 0.057150 -0.078904
N6    N     N_R   0.450890 0.103550 0.057150 -0.091237
N7    N     N_R   0.950890 0.396450 0.057150 -0.078904
N8    N     N_R   0.950890 0.603550 0.057150 -0.091237
N9    N     N_R   0.525160 0.027960 0.206160 -0.072495
N10   N     N_R   0.525160 0.972040 0.206160 -0.067023
N11   N     N_R   0.025160 0.527960 0.206160 -0.072495
N12   N     N_R   0.025160 0.472040 0.206160 -0.067023
N13   N     N_R   0.317870 0.971120 0.792790 -0.045802
N14   N     N_R   0.317870 0.028880 0.792790 -0.035682
N15   N     N_R   0.817870 0.471120 0.792790 -0.045802
N16   N     N_R   0.817870 0.528880 0.792790 -0.035682
N17   N     N_R   0.473480 0.027920 0.793480 -0.068554
N18   N     N_R   0.473480 0.972080 0.793480 -0.095568
N19   N     N_R   0.973480 0.527920 0.793480 -0.068554
N20   N     N_R   0.973480 0.472080 0.793480 -0.095568
N21   N     N_R   0.681610 0.971120 0.207570 -0.039456
N22   N     N_R   0.681610 0.028880 0.207570 -0.037021
N23   N     N_R   0.181610 0.471120 0.207570 -0.039456
N24   N     N_R   0.181610 0.528880 0.207570 -0.037021
N25   N     N_R   0.605410 0.102620 0.056870 -0.085974
N26   N     N_R   0.605410 0.897380 0.056870 -0.090229
N27   N     N_R   0.105410 0.602620 0.056870 -0.085974
N28   N     N_R   0.105410 0.397380 0.056870 -0.090229
N29   N     N_R   0.549680 0.896430 0.944180 -0.072370
N30   N     N_R   0.549680 0.103570 0.944180 -0.079206
N31   N     N_R   0.049680 0.396430 0.944180 -0.072370
N32   N     N_R   0.049680 0.603570 0.944180 -0.079206
Ni1   Ni    Ni4+2 0.433410 0.064680 0.868830 0.205609
Ni2   Ni    Ni4+2 0.433410 0.935320 0.868830 0.208356
Ni3   Ni    Ni4+2 0.933410 0.564680 0.868830 0.205609
Ni4   Ni    Ni4+2 0.933410 0.435320 0.868830 0.208356
Ni5   Ni    Ni4+2 0.565650 0.934380 0.131170 0.207621
Ni6   Ni    Ni4+2 0.565650 0.065620 0.131170 0.196867
Ni7   Ni    Ni4+2 0.065650 0.434380 0.131170 0.207621
Ni8   Ni    Ni4+2 0.065650 0.565620 0.131170 0.196867
N33   N     N_2   0.905609 0.942557 0.585423 -0.087760
H49   H     H_    0.925921 0.977146 0.929957 0.167121
C101  C     C_3   0.851684 0.907373 0.532334 -0.134251
H50   H     H_    0.834807 0.142567 0.593064 0.086601
H51   H     H_    0.887497 0.857850 0.559759 0.149768
H52   H     H_    0.799948 0.889974 0.452330 0.131240
N34   N     N_2   0.906246 0.055218 0.557998 -0.159790
H53   H     H_    0.862919 0.030611 0.491806 0.133210
C102  C     C_3   0.932366 0.103834 0.635669 -0.487977
H54   H     H_    0.896553 0.101741 0.673869 0.205548
H55   H     H_    0.912845 0.142481 0.593604 0.131353
H56   H     H_    0.997170 0.106104 0.703058 0.192638
N35   N     N_2   0.405609 0.442557 0.585423 -0.087760
H57   H     H_    0.425921 0.477146 0.929957 0.167121
C103  C     C_3   0.351684 0.407373 0.532334 -0.134251
H58   H     H_    0.334807 0.642567 0.593064 0.086601
H59   H     H_    0.387497 0.357850 0.559759 0.149768
H60   H     H_    0.299948 0.389974 0.452330 0.131240
N36   N     N_2   0.406247 0.555218 0.557998 -0.159790
H61   H     H_    0.362919 0.530611 0.491806 0.133210
C104  C     C_3   0.432366 0.603834 0.635669 -0.487977
H62   H     H_    0.396553 0.601741 0.673869 0.205548
H63   H     H_    0.412845 0.642481 0.593604 0.131353
H64   H     H_    0.497170 0.606104 0.703058 0.192638
Br1   Br    Br    0.925460 0.930996 0.269938 -0.558809
Br2   Br    Br    0.924666 0.065036 0.261426 -0.668054
Br3   Br    Br    0.425460 0.430996 0.269938 -0.558809
Br4   Br    Br    0.424666 0.565036 0.261426 -0.668054
Br5   Br    Br    0.563759 0.200684 0.766870 -0.646439
Br6   Br    Br    0.566036 0.799740 0.760642 -0.627247
Br7   Br    Br    0.063759 0.700684 0.766870 -0.646439
Br8   Br    Br    0.066036 0.299740 0.760642 -0.627247
Br9   Br    Br    0.811571 0.201052 0.311919 -0.660075
Br10  Br    Br    0.819043 0.797232 0.242745 -0.654944
Br11  Br    Br    0.311571 0.701052 0.311919 -0.660075
Br12  Br    Br    0.319043 0.297232 0.242745 -0.654944
Br13  Br    Br    0.433922 0.798338 0.227475 -0.614511
Br14  Br    Br    0.432333 0.198238 0.264023 -0.666578
Br15  Br    Br    0.933922 0.298338 0.227475 -0.614511
Br16  Br    Br    0.932333 0.698238 0.264023 -0.666578
N37   N     N_2   0.472207 0.846632 0.199055 -0.042169
H65   H     H_    0.529003 0.839663 0.452297 0.090843
C105  C     C_3   0.395085 0.855101 0.243940 -0.420908
H66   H     H_    0.462177 0.845285 0.349495 0.201535
H67   H     H_    0.359308 0.831543 0.240103 0.241091
H68   H     H_    0.395953 0.897640 0.254864 0.174289
N38   N     N_2   0.471637 0.152679 0.206780 -0.127353
H69   H     H_    0.473199 0.125040 0.265471 0.165417
C106  C     C_3   0.502252 0.229458 0.270873 -0.147165
H70   H     H_    0.532315 0.207876 0.336231 0.143978
H71   H     H_    0.458092 0.245806 0.202783 0.248249
H72   H     H_    0.548292 0.230642 0.243148 0.105972
N39   N     N_2   0.972207 0.346632 0.199055 -0.042169
H73   H     H_    0.029003 0.339663 0.452297 0.090843
C107  C     C_3   0.895085 0.355101 0.243940 -0.420908
H74   H     H_    0.962177 0.345285 0.349495 0.201535
H75   H     H_    0.859308 0.331543 0.240103 0.241091
H76   H     H_    0.895953 0.397640 0.254864 0.174289
N40   N     N_2   0.971637 0.652679 0.206780 -0.127353
H77   H     H_    0.973199 0.625040 0.265471 0.165417
C108  C     C_3   0.002252 0.729457 0.270873 -0.147165
H78   H     H_    0.032315 0.707876 0.336231 0.143978
H79   H     H_    0.958092 0.745806 0.202783 0.248249
H80   H     H_    0.048293 0.730642 0.243148 0.105972
N41   N     N_2   0.741416 0.150313 0.202491 -0.136202
H81   H     H_    0.732200 0.161375 0.279762 0.216614
C109  C     C_3   0.841789 0.144446 0.269055 -0.342768
H82   H     H_    0.903756 0.157223 0.340567 0.224952
H83   H     H_    0.850337 0.164239 0.204393 0.250873
H84   H     H_    0.844863 0.106132 0.211000 0.210051
N42   N     N_2   0.737692 0.848310 0.193147 -0.034665
H85   H     H_    0.634410 0.863004 0.216614 0.081248
C110  C     C_3   0.735355 0.802519 0.282218 -0.366168
H86   H     H_    0.794450 0.800899 0.363074 0.229370
H87   H     H_    0.719704 0.757305 0.234756 0.153299
H88   H     H_    0.686774 0.808429 0.283279 0.149905
N43   N     N_2   0.241416 0.650313 0.202491 -0.136202
H89   H     H_    0.232200 0.661375 0.279762 0.216614
C111  C     C_3   0.341789 0.644446 0.269055 -0.342768
H90   H     H_    0.403756 0.657223 0.340567 0.224952
H91   H     H_    0.350336 0.664239 0.204393 0.250873
H92   H     H_    0.344863 0.606132 0.211000 0.210051
N44   N     N_2   0.237692 0.348310 0.193147 -0.034665
H93   H     H_    0.134410 0.363005 0.216614 0.081248
C112  C     C_3   0.235355 0.302519 0.282218 -0.366168
H94   H     H_    0.294450 0.300899 0.363074 0.229370
H95   H     H_    0.219704 0.257305 0.234756 0.153299
H96   H     H_    0.186774 0.308429 0.283279 0.149905
N45   N     N_2   0.529515 0.846973 0.807372 -0.045915
H97   H     H_    0.566385 0.851531 0.764701 0.185895
C113  C     C_3   0.441414 0.824263 0.716393 -0.533792
H98   H     H_    0.441410 0.810561 0.625373 0.209957
H99   H     H_    0.398462 0.852561 0.713128 0.162383
H100  H     H_    0.435051 0.783419 0.743120 0.221870
N46   N     N_2   0.529106 0.153452 0.797009 -0.063935
H101  H     H_    0.466099 0.145213 0.741231 0.076503
C114  C     C_3   0.587437 0.145538 0.740549 -0.077684
H102  H     H_    0.507888 0.154739 0.651592 0.155030
H103  H     H_    0.601033 0.103009 0.748791 0.102186
H104  H     H_    0.641715 0.167681 0.772682 0.141025
N47   N     N_2   0.029515 0.346973 0.807372 -0.045915
H105  H     H_    0.066385 0.351531 0.764701 0.185895
C115  C     C_3   0.941414 0.324263 0.716393 -0.533792
H106  H     H_    0.941410 0.310561 0.625373 0.209957
H107  H     H_    0.898462 0.352561 0.713128 0.162383
H108  H     H_    0.935051 0.283419 0.743120 0.221870
N48   N     N_2   0.029106 0.653452 0.797009 -0.063935
H109  H     H_    0.966099 0.645213 0.741231 0.076503
C116  C     C_3   0.087437 0.645538 0.740549 -0.077684
H110  H     H_    0.007888 0.654739 0.651592 0.155030
H111  H     H_    0.101033 0.603009 0.748791 0.102186
H112  H     H_    0.141715 0.667681 0.772682 0.141025

loop_
_geom_bond_atom_site_label_1
_geom_bond_atom_site_label_2
_ccdc_geom_bond_type
C109  H83   S    
N9    N10   A    
N35   C103  S    
C115  H106  S    
C41   C61   A    
C13   C79   S    
C43   C63   A    
C44   C64   A    
C36   N38   S    
C66   C79   A    
C103  H59   S    
C99   H43   S    
C8    N44   S    
C35   C86   A    
C53   Br9   S    
N44   H93   S    
C112  H96   S    
N13   Ni2   S    
C102  H55   S    
N27   Ni8   S    
N28   N31   A    
C66   H22   S    
C58   Br14  S    
C75   N9    A    
C15   C97   A    
C44   C46   A    
C30   H15   S    
C11   C20   A    
C101  H50   S    
C100  H44   S    
C6    N26   A    
C78   C90   A    
C82   C91   A    
C6    N42   S    
C82   H34   S    
C24   C32   S    
N37   H65   S    
C68   C72   A    
C23   H7    S    
N26   N29   A    
C77   N11   A    
C78   N12   A    
C7    C19   A    
C55   C57   A    
C11   N31   A    
N10   Ni5   S    
C1    H1    S    
C14   C95   A    
C9    N29   A    
N41   C109  S    
C3    H3    S    
C29   H13   S    
C59   C63   A    
N42   C110  S    
C67   H23   S    
C57   C61   A    
C95   H39   S    
C13   C94   A    
C60   C64   A    
C74   C90   S    
C101  H52   S    
C114  H103  S    
N7    Ni7   S    
C32   C92   S    
C49   C53   A    
C4    H4    S    
C105  H68   S    
C51   C55   A    
C113  H99   S    
N34   H53   S    
C48   C52   A    
N39   C107  S    
N29   Ni2   S    
C2    N2    A    
C65   C79   A    
C100  N24   A    
N18   Ni2   S    
N48   C116  S    
C66   C70   A    
N6    Ni6   S    
C108  H78   S    
C115  H107  S    
C110  H86   S    
C111  H92   S    
C2    H2    S    
N39   H73   S    
C77   H31   S    
C5    N41   S    
N33   C101  S    
C78   H32   S    
C16   C34   S    
C76   H30   S    
C22   H46   S    
C42   C62   A    
C64   C87   S    
C25   H9    S    
C76   C89   A    
C57   Br13  S    
C12   N48   S    
C27   H11   S    
C106  H70   S    
C98   H42   S    
C116  H111  S    
N47   H105  S    
C4    N4    A    
C37   N39   S    
C39   Br1   S    
N14   Ni1   S    
C17   C49   S    
C16   C100  A    
C82   N14   A    
C60   Br16  S    
N43   C111  S    
C26   C33   S    
C113  H98   S    
C107  H76   S    
C40   Br4   S    
C96   N20   A    
C104  H62   S    
C41   C47   A    
C42   C48   A    
C1    N1    A    
C43   C45   A    
C12   N32   A    
C31   C91   S    
N31   Ni4   S    
C21   C25   S    
C108  H80   S    
C27   N35   S    
C5    N25   A    
C35   N5    A    
C95   N19   A    
C96   H40   S    
C110  H88   S    
C111  H90   S    
C8    N28   A    
N3    Ni3   S    
N27   N32   A    
C4    C88   A    
N35   H57   S    
C106  H71   S    
N16   Ni3   S    
C25   N33   S    
C70   H26   S    
N25   N30   A    
C112  H95   S    
C56   C58   A    
C102  H54   S    
C75   C89   A    
C69   H25   S    
C98   N22   A    
C9    C18   A    
C106  H72   S    
N46   H101  S    
N36   C104  S    
C56   Br12  S    
C84   C92   A    
N12   Ni7   S    
C41   H17   S    
C109  H82   S    
C43   H19   S    
N34   C102  S    
C58   C62   A    
C46   Br6   S    
C63   C88   S    
C37   C88   A    
C29   H14   S    
C71   H27   S    
C94   N18   A    
N13   N14   A    
C36   N6    A    
N2    Ni2   S    
C30   H16   S    
C28   H12   S    
C50   C54   A    
N26   Ni5   S    
C5    C17   A    
C44   H20   S    
C107  H74   S    
C104  H64   S    
N21   N22   A    
C7    N43   S    
N2    N5    A    
N38   H69   S    
C69   C73   A    
C24   H8    S    
C65   H21   S    
C59   Br15  S    
N40   C108  S    
C109  H84   S    
C28   C34   S    
N1    Ni1   S    
C9    N45   S    
C26   N34   S    
C14   C96   A    
N8    Ni8   S    
C103  H60   S    
C77   C90   A    
N36   H61   S    
C24   C28   S    
C72   C74   A    
N19   N20   A    
C42   H18   S    
C47   C51   A    
C23   H47   S    
C13   C93   A    
C21   H45   S    
C10   N46   S    
C102  H56   S    
N1    N6    A    
C101  H51   S    
C114  H102  S    
C21   C31   S    
N11   N12   A    
N4    N7    A    
C45   C49   A    
N22   Ni6   S    
C70   C73   A    
C105  H67   S    
C33   C39   S    
N3    N8    A    
C81   H33   S    
C97   H41   S    
C94   H38   S    
C15   C98   A    
N48   H109  S    
C18   C50   S    
N28   Ni7   S    
C55   Br11  S    
C48   Br8   S    
C83   N15   A    
C84   H36   S    
N15   Ni4   S    
C81   N13   A    
C67   C80   A    
C71   C74   A    
C36   C85   A    
C38   C87   A    
C23   C32   S    
C73   C89   S    
N37   C105  S    
C111  H91   S    
N41   H81   S    
C65   C69   A    
C12   C19   A    
C67   C71   A    
N33   H49   S    
N30   Ni1   S    
C61   C86   S    
C81   C91   A    
C11   N47   S    
C20   C52   S    
C22   C26   S    
C28   N36   S    
C21   H5    S    
C68   C80   A    
N23   N24   A    
N17   N18   A    
N46   C114  S    
C45   Br5   S    
C116  H110  S    
C37   N7    A    
N15   N16   A    
C38   N8    A    
C68   H24   S    
C53   C59   A    
C54   C60   A    
C83   C92   A    
C76   N10   A    
C8    C20   A    
C72   H28   S    
C34   C40   S    
C114  H104  S    
C54   Br10  S    
C99   N23   A    
C10   C17   A    
C97   N21   A    
C113  H100  S    
C75   H29   S    
N47   C115  S    
N19   Ni3   S    
C107  H75   S    
C7    N27   A    
C23   C27   S    
N4    Ni4   S    
N43   H89   S    
C26   H10   S    
C83   H35   S    
C84   N16   A    
N32   Ni3   S    
C93   N17   A    
N38   C106  S    
C27   C34   S    
C1    C85   A    
C6    C18   A    
C62   C85   S    
N25   Ni6   S    
C108  H79   S    
C22   C31   S    
C3    C87   A    
C10   N30   A    
C115  H108  S    
N9    Ni6   S    
C24   H48   S    
C110  H87   S    
N20   Ni4   S    
C22   H6    S    
C47   Br7   S    
C35   N37   S    
N11   Ni8   S    
C29   C39   S    
C112  H94   S    
C30   C40   S    
C14   C80   S    
N45   C113  S    
C116  H112  S    
N42   H85   S    
N44   C112  S    
C39   Br2   S    
N40   H77   S    
C16   C99   A    
C46   C50   A    
C3    N3    A    
N23   Ni7   S    
N17   Ni1   S    
N21   Ni5   S    
C29   C31   S    
C30   C32   S    
N5    Ni5   S    
N24   Ni8   S    
C38   N40   S    
C40   Br3   S    
C104  H63   S    
C2    C86   A    
C93   H37   S    
C19   C51   S    
C25   C33   S    
C105  H66   S    
C103  H58   S    
N45   H97   S    
C15   C33   S    
C52   C56   A    
