data_mof_unit_30272.cif
_audit_creation_date              2012-10-26T19:15:58-0400
_audit_creation_method            fapswitch 2.2
_symmetry_space_group_name_H-M    P1
_symmetry_Int_Tables_number       1
_space_group_crystal_system       triclinic
_cell_length_a                    7.786646
_cell_length_b                    9.083909
_cell_length_c                    16.953461
_cell_angle_alpha                 89.600464
_cell_angle_beta                  94.455661
_cell_angle_gamma                 90.005886
_cell_volume                      1195.51889153

loop_
_atom_site_label
_atom_site_type_symbol
_atom_type_description
_atom_site_fract_x
_atom_site_fract_y
_atom_site_fract_z
_atom_type_partial_charge
C1    C     C_R   0.499976 0.220029 0.500005 0.603234
C2    C     C_R   0.517114 0.362629 0.142657 0.263161
C3    C     C_R   0.564057 0.473678 0.903748 0.210741
C4    C     C_R   0.435426 0.475532 0.096489 0.210980
C5    C     C_R   0.637127 0.594238 0.866509 0.234460
C6    C     C_R   0.362727 0.596548 0.132662 0.234710
C7    C     C_R   0.624706 0.605922 0.783196 -0.060764
C8    C     C_R   0.375334 0.608731 0.215878 -0.060893
C9    C     C_1   0.499982 0.065375 0.499971 0.002793
C10   C     C_1   0.500004 0.934597 0.499950 -0.035916
C11   C     C_3   0.694882 0.741417 0.743187 -0.254014
C12   C     C_R   0.500017 0.779959 0.499954 0.519923
C13   C     C_3   0.552111 0.853232 0.722125 -0.361045
C14   C     C_3   0.304834 0.744256 0.254769 -0.254259
C15   C     C_3   0.447533 0.855738 0.275609 -0.360177
C16   C     C_R   0.522160 0.500100 0.651483 0.580273
C17   C     C_R   0.477847 0.503301 0.348513 0.579987
C18   C     C_R   0.537731 0.493460 0.738159 -0.036044
C19   C     C_R   0.462326 0.496441 0.261898 -0.035832
C20   C     C_R   0.467963 0.371139 0.776021 0.202512
C21   C     C_R   0.531622 0.373636 0.225139 0.202262
C22   C     C_R   0.482048 0.360775 0.858618 0.263613
Cl1   Cl    Cl    0.632679 0.229739 0.282527 -0.535520
Cl2   Cl    Cl    0.366718 0.227161 0.719915 -0.533717
Cl3   Cl    Cl    0.597653 0.205011 0.097331 -0.340312
Cl4   Cl    Cl    0.400328 0.204109 0.905462 -0.334792
Cl5   Cl    Cl    0.734661 0.734236 0.926793 -0.403307
Cl6   Cl    Cl    0.265406 0.736423 0.071133 -0.401647
Cu1   Cu    Cu3+1 0.669080 0.500010 0.500000 1.087211
Cu2   Cu    Cu3+1 0.330920 0.499990 0.500000 1.087036
H1    H     H_    0.449851 0.804581 0.681047 0.154794
H2    H     H_    0.240672 0.714217 0.308663 0.167851
H3    H     H_    0.494412 0.890225 0.776529 0.248621
H4    H     H_    0.606496 0.950436 0.692778 0.179801
H5    H     H_    0.797949 0.795741 0.781280 0.227458
H6    H     H_    0.758161 0.711592 0.689247 0.168043
H7    H     H_    0.549095 0.806825 0.317350 0.154952
H8    H     H_    0.506216 0.892835 0.221203 0.248672
H9    H     H_    0.392754 0.952919 0.304125 0.181602
H10   H     H_    0.202431 0.798997 0.216040 0.227881
N1    N     N_1   0.076820 0.499970 0.500010 -0.063904
N2    N     N_1   0.923180 0.500030 0.499990 -0.063884
N3    N     N_2   0.572548 0.469731 0.987306 -0.098073
N4    N     N_2   0.426908 0.471174 0.012949 -0.098646
O1    O     O_R   0.642760 0.288400 0.500000 -0.471808
O2    O     O_R   0.357240 0.711600 0.500000 -0.511177
O3    O     O_R   0.357190 0.288380 0.500000 -0.472493
O4    O     O_R   0.642810 0.711620 0.500000 -0.511230
O5    O     O_R   0.658410 0.498660 0.613920 -0.508592
O6    O     O_R   0.341590 0.501340 0.386080 -0.508387
O7    O     O_R   0.372840 0.498650 0.613930 -0.463177
O8    O     O_R   0.627160 0.501350 0.386070 -0.462962

loop_
_geom_bond_atom_site_label_1
_geom_bond_atom_site_label_2
_ccdc_geom_bond_type
C17   O6    A    
C2    C4    A    
Cu2   O7    S    
C15   H8    S    
C13   H3    S    
Cu1   Cu2   S    
Cu1   N2    S    
N1    N2    T    
C16   O7    A    
C12   O4    A    
C7    C18   A    
C3    N3    S    
C2    C21   A    
C11   H5    S    
Cu2   O6    S    
C13   H4    S    
Cu2   N1    S    
C16   C18   S    
Cu1   O5    S    
C7    C11   S    
C11   C13   S    
C15   H9    S    
C10   C12   S    
C6    C8    A    
C17   O8    A    
C4    C6    A    
C11   H6    S    
C17   C19   S    
C20   C22   A    
C2    Cl3   S    
C18   C20   A    
C21   Cl1   S    
N3    N4    D    
C22   Cl4   S    
C8    C19   A    
Cu1   O4    S    
C14   H10   S    
Cu2   O3    S    
C1    C9    S    
C16   O5    A    
C15   H7    S    
C12   O2    A    
C9    C10   T    
C1    O1    A    
Cu1   O1    S    
C5    C7    A    
C13   H1    S    
C14   C15   S    
C1    O3    A    
C3    C22   A    
C8    C14   S    
C4    N4    S    
C19   C21   A    
C5    Cl5   S    
Cu2   O2    S    
C6    Cl6   S    
C20   Cl2   S    
C14   H2    S    
C3    C5    A    
Cu1   O8    S    
