data_mof_unit_42665.cif
_audit_creation_date              2012-12-11T16:37:08-0500
_audit_creation_method            fapswitch 2.2
_symmetry_space_group_name_H-M    P1
_symmetry_Int_Tables_number       1
_space_group_crystal_system       triclinic
_cell_length_a                    18.843653
_cell_length_b                    18.910814
_cell_length_c                    20.543744
_cell_angle_alpha                 107.0417
_cell_angle_beta                  106.666461
_cell_angle_gamma                 111.072406
_cell_volume                      5866.3821802

loop_
_atom_site_label
_atom_site_type_symbol
_atom_type_description
_atom_site_fract_x
_atom_site_fract_y
_atom_site_fract_z
_atom_type_partial_charge
C1    C     C_R   0.086565 0.087215 0.355320 -0.124688
C2    C     C_R   0.238919 0.074713 0.497884 -0.142375
C3    C     C_R   0.163642 0.187576 0.718747 -0.123323
C4    C     C_R   0.754123 0.929327 0.459981 -0.116190
C5    C     C_R   0.044345 0.797101 0.472649 -0.132379
C6    C     C_R   0.244970 0.208555 0.725154 0.039853
C7    C     C_R   0.022508 0.765045 0.520936 0.036823
C8    C     C_R   0.244707 0.007124 0.455753 0.045312
C9    C     C_R   0.982951 0.978976 0.726081 0.040219
C10   C     C_R   0.106063 0.511904 0.653184 -0.181150
C11   C     C_R   0.083412 0.427381 0.634002 -0.165042
C12   C     C_R   0.744435 0.000751 0.472356 0.033532
C13   C     C_R   0.080215 0.377154 0.566465 0.141690
C14   C     C_R   0.107457 0.414262 0.522258 -0.172805
C15   C     C_R   0.129754 0.498361 0.541231 -0.164266
C16   C     C_R   0.843791 0.784017 0.286278 -0.056460
C17   C     C_R   0.124653 0.546453 0.604512 0.116569
C18   C     C_R   0.163819 0.675665 0.583784 -0.182072
C19   C     C_R   0.135184 0.725312 0.558323 -0.161922
C20   C     C_R   0.058366 0.720830 0.555782 0.144406
C21   C     C_R   0.015168 0.672605 0.585963 -0.167048
C22   C     C_R   0.043669 0.623159 0.611267 -0.162935
C23   C     C_R   0.764723 0.737425 0.281021 0.095169
C24   C     C_R   0.115524 0.620706 0.606350 0.116193
C25   C     C_R   0.512680 0.932267 0.380644 -0.162182
C26   C     C_R   0.587462 0.928635 0.404693 -0.159560
C27   C     C_R   0.665647 0.001758 0.435892 0.144080
C28   C     C_R   0.999547 0.235355 0.565581 -0.141337
C29   C     C_R   0.667391 0.076305 0.435027 -0.158965
C30   C     C_R   0.592276 0.079851 0.410609 -0.180268
C31   C     C_R   0.514852 0.009153 0.387605 0.114445
C32   C     C_R   0.456463 0.087386 0.453549 -0.164606
C33   C     C_R   0.390959 0.084511 0.472648 -0.171968
C34   C     C_R   0.047412 0.286073 0.540610 0.037886
C35   C     C_R   0.309898 0.014085 0.428864 0.140856
C36   C     C_R   0.293270 0.950361 0.361454 -0.160843
C37   C     C_R   0.359031 0.953362 0.342122 -0.177036
C38   C     C_R   0.442004 0.019662 0.390410 0.115517
C39   C     C_R   0.321319 0.238786 0.794155 0.148166
C40   C     C_R   0.766468 0.776073 0.350632 -0.142652
C41   C     C_R   0.315300 0.239380 0.860870 -0.183505
C42   C     C_R   0.388267 0.277441 0.928197 -0.164525
C43   C     C_R   0.468537 0.315744 0.929560 0.221144
C44   C     C_R   0.474108 0.305666 0.861473 -0.179148
C45   C     C_R   0.239217 0.189329 0.652751 -0.126456
C46   C     C_R   0.401289 0.268238 0.794285 -0.177824
C47   C     C_R   0.629671 0.548920 0.089498 -0.216626
C48   C     C_R   0.682325 0.632912 0.143685 -0.098717
C49   C     C_R   0.592609 0.484862 0.109814 0.218004
C50   C     C_R   0.701180 0.652579 0.220632 0.044499
C51   C     C_R   0.663516 0.588508 0.240571 -0.180139
C52   C     C_R   0.074020 0.238942 0.498775 -0.122214
C53   C     C_R   0.608505 0.505525 0.185273 -0.176769
C54   C     C_R   0.110549 0.027108 0.240733 0.144615
C55   C     C_R   0.112681 0.956357 0.195981 -0.180815
C56   C     C_R   0.963434 0.787012 0.533994 -0.123650
C57   C     C_R   0.140139 0.958553 0.140287 -0.158302
C58   C     C_R   0.165758 0.031735 0.128953 0.220218
C59   C     C_R   0.175382 0.105616 0.180622 -0.178454
C60   C     C_R   0.146905 0.103255 0.235772 -0.177585
C61   C     C_R   0.123254 0.035709 0.925168 -0.168931
C62   C     C_R   0.090115 0.040839 0.858215 -0.182393
C63   C     C_R   0.079859 0.962972 0.933058 0.226898
C64   C     C_R   0.823434 0.070305 0.523887 -0.125901
C65   C     C_R   0.013675 0.973550 0.797579 0.150047
C66   C     C_R   0.972464 0.899505 0.803968 -0.185872
C67   C     C_R   0.170205 0.935011 0.432879 -0.143177
C68   C     C_R   0.005441 0.894572 0.871508 -0.178352
C69   C     C_R   0.017219 0.947073 0.290901 -0.093104
C70   C     C_R   0.067930 0.020864 0.290147 0.035676
C71   C     C_2   0.711688 0.698089 0.116848 0.977685
C72   C     C_R   0.008330 0.052675 0.717680 -0.138522
C73   C     C_R   0.940168 0.912631 0.653971 -0.124521
H1    H     H_    0.135073 0.152184 0.378917 0.086486
H2    H     H_    0.065686 0.401008 0.670613 0.110147
H3    H     H_    0.106170 0.377060 0.470172 0.111891
H4    H     H_    0.706018 0.864696 0.422505 0.096018
H5    H     H_    0.142696 0.522918 0.502058 0.116135
H6    H     H_    0.220054 0.675349 0.580460 0.116353
H7    H     H_    0.171528 0.764524 0.538079 0.113501
H8    H     H_    0.956222 0.668190 0.585568 0.106408
H9    H     H_    0.004498 0.580620 0.627451 0.115246
H10   H     H_    0.454132 0.876894 0.363927 0.114783
H11   H     H_    0.583700 0.869938 0.403888 0.107673
H12   H     H_    0.930314 0.768433 0.565736 0.086026
H13   H     H_    0.726704 0.132859 0.456220 0.113319
H14   H     H_    0.595213 0.139489 0.415236 0.115496
H15   H     H_    0.519832 0.138820 0.492481 0.115327
H16   H     H_    0.869124 0.765197 0.247294 0.078602
H17   H     H_    0.405346 0.134807 0.524650 0.109845
H18   H     H_    0.230479 0.896850 0.325149 0.105631
H19   H     H_    0.346286 0.901054 0.292495 0.115346
H20   H     H_    0.612829 0.533967 0.030239 0.165158
H21   H     H_    0.535363 0.334706 0.861683 0.125858
H22   H     H_    0.408683 0.267332 0.743845 0.112121
H23   H     H_    0.147949 0.872455 0.390204 0.084940
H24   H     H_    0.677445 0.602319 0.299188 0.119676
H25   H     H_    0.381655 0.282485 0.979779 0.123399
H26   H     H_    0.578156 0.457267 0.201163 0.119956
H27   H     H_    0.978954 0.255585 0.608186 0.088141
H28   H     H_    0.254687 0.213928 0.862249 0.107487
H29   H     H_    0.125026 0.097571 0.854001 0.109792
H30   H     H_    0.181107 0.089909 0.971348 0.124035
H31   H     H_    0.195596 0.162443 0.172559 0.118686
H32   H     H_    0.147782 0.159322 0.270519 0.113578
H33   H     H_    0.914082 0.846285 0.757592 0.113979
H34   H     H_    0.033744 0.115374 0.761301 0.088697
H35   H     H_    0.134394 0.901300 0.101837 0.122052
H36   H     H_    0.970972 0.838664 0.877108 0.123227
H37   H     H_    0.089351 0.897916 0.200981 0.108741
H38   H     H_    0.720569 0.749367 0.370188 0.088088
H39   H     H_    0.122834 0.262424 0.481025 0.087946
H40   H     H_    0.839284 0.136038 0.546161 0.095456
H41   H     H_    0.999996 0.883355 0.254560 0.084445
H42   H     H_    0.289541 0.196482 0.635904 0.092900
H43   H     H_    0.744007 0.726575 0.038671 0.326450
H44   H     H_    0.904101 0.846865 0.639548 0.083242
H45   H     H_    0.278626 0.140364 0.513069 0.088167
H46   H     H_    0.146611 0.199188 0.764848 0.085072
H47   H     H_    0.088053 0.791227 0.449892 0.096118
H48   H     H_    0.102761 0.548414 0.702777 0.116562
N1    N     N_R   0.051550 0.054780 0.395070 -0.038263
N2    N     N_2   0.527892 0.403571 0.053033 -0.103342
N3    N     N_2   0.161733 0.028106 0.058360 -0.107995
N4    N     N_R   0.835860 0.954800 0.499920 -0.041351
N5    N     N_2   0.100233 0.961422 0.004332 -0.099243
N6    N     N_R   0.889940 0.849160 0.355180 -0.046413
N7    N     N_R   0.997480 0.160420 0.539810 -0.037205
N8    N     N_R   0.842280 0.845520 0.395070 -0.042247
N9    N     N_R   0.045130 0.164060 0.499920 -0.037791
N10   N     N_R   0.878630 0.041580 0.539810 -0.040020
N11   N     N_R   0.008780 0.968000 0.355180 -0.039016
N12   N     N_R   0.954870 0.835940 0.500080 -0.041119
N13   N     N_R   0.157720 0.154480 0.604930 -0.040535
N14   N     N_R   0.121370 0.958420 0.460190 -0.036821
N15   N     N_R   0.991220 0.032000 0.644820 -0.036857
N16   N     N_R   0.948450 0.945220 0.604930 -0.038372
N17   N     N_R   0.164140 0.045200 0.500080 -0.036703
N18   N     N_R   0.110060 0.150840 0.644820 -0.038861
N19   N     N_R   0.002520 0.839580 0.460190 -0.042147
N20   N     N_2   0.541340 0.381023 0.996461 -0.099500
Ni1   Ni    Ni4+2 0.103690 0.103690 0.500000 0.212111
Ni2   Ni    Ni4+2 0.896310 0.896310 0.500000 0.212342
Ni3   Ni    Ni4+2 0.005600 0.904650 0.408510 0.211925
Ni4   Ni    Ni4+2 0.994400 0.095350 0.591490 0.215304
O1    O     O_2   0.721819 0.768814 0.149877 -0.636424
O2    O     O_R   0.724895 0.677419 0.051781 -0.811586

loop_
_geom_bond_atom_site_label_1
_geom_bond_atom_site_label_2
_ccdc_geom_bond_type
C25   C31   A    
N14   N17   A    
C66   C68   A    
C40   N8    A    
N11   Ni3   S    
C6    C45   A    
C27   C29   A    
C41   C42   A    
C71   O2    S    
C35   C36   A    
C9    C72   A    
C10   H48   S    
C56   N12   A    
C2    H45   S    
C51   H24   S    
C39   C41   A    
C54   C60   A    
C53   H26   S    
C45   N13   A    
C29   C30   A    
C4    N4    A    
C18   C24   A    
C59   H31   S    
C22   H9    S    
C36   C37   A    
C61   H30   S    
C42   H25   S    
C30   C31   A    
C12   C64   A    
N7    Ni4   S    
C72   N15   A    
C15   H5    S    
C52   H39   S    
C10   C17   A    
C23   C40   A    
C32   H15   S    
C18   C19   A    
C61   C63   A    
C45   H42   S    
C1    N1    A    
C57   H35   S    
C63   C68   A    
C46   H22   S    
C19   C20   A    
C18   H6    S    
C19   H7    S    
C64   N10   A    
C32   C38   A    
C4    C12   A    
N15   Ni4   S    
C37   H19   S    
N6    Ni3   S    
C3    C6    A    
C48   C50   A    
N16   Ni2   S    
C28   C34   A    
C59   C60   A    
C21   C22   A    
C61   C62   A    
C9    C73   A    
C7    C56   A    
C66   H33   S    
N1    N11   A    
C44   C46   A    
C40   H38   S    
C16   H16   S    
C69   H41   S    
N12   Ni2   S    
C17   C24   S    
C73   H44   S    
C5    H47   S    
C2    N17   A    
C47   C49   A    
N17   Ni1   S    
N13   N18   A    
C5    C7    A    
C23   C50   S    
C12   C27   S    
C25   C26   A    
C51   C53   A    
C8    C35   S    
C14   H3    S    
C67   N14   A    
C43   C44   A    
N6    N8    A    
C37   C38   A    
N13   Ni1   S    
N4    N10   A    
C47   C48   A    
C54   C70   S    
C72   H34   S    
N2    N20   D    
C50   C51   A    
C47   H20   S    
C29   H13   S    
C3    H46   S    
C8    C67   A    
C39   C46   A    
C36   H18   S    
N14   Ni3   S    
C21   H8    S    
C65   C66   A    
C16   C23   A    
C55   C57   A    
C55   H37   S    
C26   C27   A    
C67   H23   S    
C22   C24   A    
C43   N20   S    
C3    N18   A    
C42   C43   A    
C1    H1    S    
C48   C71   S    
C5    N19   A    
N3    N5    D    
C15   C17   A    
C54   C55   A    
N18   Ni4   S    
C26   H11   S    
C64   H40   S    
C62   C65   A    
C6    C39   S    
C34   C52   A    
C2    C8    A    
N19   Ni3   S    
N15   N16   A    
N7    N9    A    
H43   O2    S    
N8    Ni2   S    
C58   N3    S    
C1    C70   A    
C31   C38   S    
C52   N9    A    
C32   C33   A    
C58   C59   A    
C13   C34   S    
C11   H2    S    
C33   H17   S    
C11   C13   A    
C28   H27   S    
C57   C58   A    
C73   N16   A    
N4    Ni2   S    
C69   N11   A    
C49   C53   A    
C33   C35   A    
C41   H28   S    
N10   Ni4   S    
C68   H36   S    
C69   C70   A    
N9    Ni1   S    
C16   N6    A    
C9    C65   S    
C63   N5    S    
C44   H21   S    
C10   C11   A    
C4    H4    S    
C71   O1    D    
C20   C21   A    
N12   N19   A    
C7    C20   S    
C25   H10   S    
N1    Ni1   S    
C14   C15   A    
C30   H14   S    
C13   C14   A    
C56   H12   S    
C60   H32   S    
C28   N7    A    
C62   H29   S    
C49   N2    S    
