data_mof_unit_27508.cif
_audit_creation_date              2012-12-10T16:49:27-0500
_audit_creation_method            fapswitch 2.2
_symmetry_space_group_name_H-M    P1
_symmetry_Int_Tables_number       1
_space_group_crystal_system       triclinic
_cell_length_a                    19.268337
_cell_length_b                    8.682344
_cell_length_c                    7.524825
_cell_angle_alpha                 103.316337
_cell_angle_beta                  94.846731
_cell_angle_gamma                 93.526253
_cell_volume                      1216.37063669

loop_
_atom_site_label
_atom_site_type_symbol
_atom_type_description
_atom_site_fract_x
_atom_site_fract_y
_atom_site_fract_z
_atom_type_partial_charge
C1    C     C_R   0.497744 0.199784 0.452996 0.882923
C2    C     C_R   0.502256 0.800216 0.547003 0.882928
C3    C     C_2   0.496305 0.031335 0.427239 -0.273979
C4    C     C_2   0.503695 0.968665 0.572761 -0.273973
C5    C     C_R   0.367764 0.497877 0.501107 0.890957
C6    C     C_R   0.632236 0.502124 0.498894 0.890948
C7    C     C_R   0.264678 0.615305 0.634867 0.568822
C8    C     C_R   0.735323 0.384677 0.365146 0.568821
C9    C     C_R   0.192475 0.618499 0.641133 0.227735
C10   C     C_R   0.807527 0.381449 0.358914 0.227741
C11   C     C_R   0.146905 0.502136 0.515799 -0.160877
C12   C     C_R   0.853095 0.497791 0.484274 -0.160884
C13   C     C_R   0.174718 0.382345 0.389906 -0.182703
C14   C     C_R   0.825281 0.617598 0.610157 -0.182717
C15   C     C_R   0.246618 0.378954 0.383883 0.223544
C16   C     C_R   0.753381 0.621025 0.616145 0.223546
C17   C     C_R   0.292025 0.497297 0.505268 -0.265266
C18   C     C_R   0.707974 0.502695 0.494740 -0.265261
C19   C     C_R   0.929444 0.498190 0.488365 0.482822
C20   C     C_R   0.070557 0.501724 0.511725 0.482818
Cu1   Cu    Cu3+1 0.507710 0.517380 0.684380 1.143781
Cu2   Cu    Cu3+1 0.492290 0.482620 0.315620 1.143784
H1    H     H_    0.140321 0.291163 0.294554 0.219476
H2    H     H_    0.859675 0.708771 0.705525 0.219478
H3    H     H_    0.489019 0.958647 0.287510 0.210187
H4    H     H_    0.510981 0.041353 0.712490 0.210188
N1    N     N_R   0.030233 0.362186 0.474814 -0.193056
N2    N     N_R   0.969767 0.637728 0.525277 -0.193059
N3    N     N_R   0.960954 0.360536 0.464597 -0.155096
N4    N     N_R   0.039046 0.639377 0.535493 -0.155102
N5    N     N_2   0.480680 0.456420 0.038530 0.055464
N6    N     N_2   0.519320 0.543580 0.961470 0.055464
O1    O     O_R   0.505010 0.286130 0.619770 -0.579424
O2    O     O_R   0.494990 0.713870 0.380230 -0.579425
O3    O     O_R   0.491990 0.256780 0.308370 -0.548353
O4    O     O_R   0.508010 0.743220 0.691630 -0.548352
O5    O     O_R   0.406650 0.514660 0.655750 -0.531385
O6    O     O_R   0.593350 0.485340 0.344250 -0.531376
O7    O     O_R   0.393640 0.485310 0.344340 -0.550196
O8    O     O_R   0.606360 0.514690 0.655660 -0.550203
F1    F     F_    0.308367 0.728750 0.754169 -0.593046
F2    F     F_    0.691635 0.271258 0.245816 -0.593052
Br1   Br    Br    0.159646 0.778144 0.830542 -0.286677
Br2   Br    Br    0.840362 0.221787 0.169517 -0.286674
Br3   Br    Br    0.279792 0.204241 0.215384 -0.324029
Br4   Br    Br    0.720205 0.795786 0.784605 -0.324017
Br5   Br    Br    0.410569 0.304885 0.901989 -0.261624
Br6   Br    Br    0.589432 0.695112 0.098009 -0.261621

loop_
_geom_bond_atom_site_label_1
_geom_bond_atom_site_label_2
_ccdc_geom_bond_type
C2    C4    S    
C6    O6    A    
C15   C17   A    
C19   N2    A    
C20   N1    A    
C5    O5    A    
N1    N3    A    
C11   C13   A    
C4    H4    S    
N5    N6    D    
C2    O2    A    
C13   C15   A    
C1    O1    A    
Cu1   O4    S    
N5    Br5   S    
Cu1   Cu2   S    
Cu2   O3    S    
N6    Br6   S    
C1    O3    A    
Cu1   O8    S    
C10   C12   A    
C14   H2    S    
C6    C18   S    
Cu2   O7    S    
C12   C19   S    
N2    N4    A    
C8    F2    S    
C6    O8    A    
C9    C11   A    
Cu2   O2    S    
Cu1   N6    S    
C14   C16   A    
C11   C20   S    
C9    Br1   S    
Cu1   O1    S    
Cu2   N5    S    
C15   Br3   S    
C16   Br4   S    
C3    C4    D    
C19   N3    A    
C3    H3    S    
C5    C17   S    
C13   H1    S    
Cu1   O5    S    
C16   C18   A    
C2    O4    A    
C7    C9    A    
C5    O7    A    
C20   N4    A    
C1    C3    S    
C10   Br2   S    
C8    C10   A    
C8    C18   A    
C7    F1    S    
C12   C14   A    
C7    C17   A    
Cu2   O6    S    
