data_mof_unit_43642.cif
_audit_creation_date              2012-12-10T20:48:11-0500
_audit_creation_method            fapswitch 2.2
_symmetry_space_group_name_H-M    P1
_symmetry_Int_Tables_number       1
_space_group_crystal_system       triclinic
_cell_length_a                    8.114917
_cell_length_b                    8.924032
_cell_length_c                    13.633605
_cell_angle_alpha                 90.062131
_cell_angle_beta                  83.320088
_cell_angle_gamma                 90.218427
_cell_volume                      980.605666659

loop_
_atom_site_label
_atom_site_type_symbol
_atom_type_description
_atom_site_fract_x
_atom_site_fract_y
_atom_site_fract_z
_atom_type_partial_charge
C1    C     C_R   0.500197 0.781986 0.500012 0.932720
C2    C     C_1   0.553150 0.455185 0.124729 -0.019122
C3    C     C_1   0.500280 0.934790 0.500031 -0.192905
C4    C     C_1   0.499709 0.065211 0.500034 -0.194380
C5    C     C_3   0.146560 0.580735 0.012454 0.116131
C6    C     C_3   0.103420 0.719899 0.955135 -0.359465
C7    C     C_3   0.928615 0.708280 0.924781 -0.908224
C8    C     C_3   0.595069 0.205761 0.947540 0.070918
C9    C     C_3   0.626168 0.092681 0.027886 -0.373407
C10   C     C_3   0.550628 0.939893 0.008667 -0.902904
C11   C     C_R   0.499796 0.218014 0.500026 0.929895
C12   C     C_R   0.470982 0.501473 0.686255 0.899898
C13   C     C_R   0.528830 0.498185 0.313706 0.903543
C14   C     C_1   0.547942 0.476710 0.211003 -0.193357
C15   C     C_1   0.448899 0.505788 0.789807 -0.195859
C16   C     C_2   0.542487 0.433803 0.022763 0.394862
C17   C     C_2   0.422769 0.506873 0.982450 0.354886
C18   C     C_1   0.432441 0.508224 0.877463 -0.083174
H1    H     H_    0.058169 0.573138 0.080937 0.172360
H2    H     H_    0.761992 0.080148 0.029852 0.232669
H3    H     H_    0.570197 0.133959 0.101130 0.222343
H4    H     H_    0.413754 0.948982 0.010929 0.268310
H5    H     H_    0.578804 0.859350 0.066421 0.275593
H6    H     H_    0.602669 0.896031 0.935342 0.260173
H7    H     H_    0.127301 0.476514 0.969726 0.132559
H8    H     H_    0.111510 0.820897 0.002155 0.223696
H9    H     H_    0.193308 0.733475 0.887805 0.227217
H10   H     H_    0.918698 0.609899 0.875767 0.286267
H11   H     H_    0.900543 0.811067 0.884116 0.258079
H12   H     H_    0.835935 0.696846 0.991062 0.268665
H13   H     H_    0.659426 0.165845 0.875947 0.171980
H14   H     H_    0.460153 0.208934 0.938369 0.113539
N1    N     N_1   0.926360 0.500000 0.499980 -0.029245
N2    N     N_1   0.073640 0.500000 0.500020 -0.028942
O1    O     O_R   0.363150 0.714660 0.500010 -0.613003
O2    O     O_3   0.662111 0.348147 0.967396 -0.657836
O3    O     O_R   0.636850 0.285340 0.499990 -0.614435
O4    O     O_R   0.636850 0.714660 0.499990 -0.614584
O5    O     O_R   0.363150 0.285340 0.500010 -0.614464
O6    O     O_R   0.343420 0.500000 0.640350 -0.616020
O7    O     O_R   0.656580 0.500000 0.359650 -0.615787
O8    O     O_R   0.617170 0.500000 0.640340 -0.606978
O9    O     O_R   0.382830 0.500000 0.359660 -0.603100
O10   O     O_3   0.308280 0.594518 0.041161 -0.662054
Zn1   Zn    Zn3+2 0.317220 0.500000 0.500010 0.992639
Zn2   Zn    Zn3+2 0.682780 0.500000 0.499990 0.990304

loop_
_geom_bond_atom_site_label_1
_geom_bond_atom_site_label_2
_ccdc_geom_bond_type
C12   O6    A    
C15   C18   T    
O7    Zn2   S    
C6    C7    S    
C7    H11   S    
C10   H5    S    
C2    C16   S    
C9    C10   S    
C9    H2    S    
C6    H9    S    
C12   C15   S    
O5    Zn1   S    
C13   O7    A    
C17   C18   S    
C17   O10   S    
N2    Zn1   S    
C13   C14   S    
C16   O2    S    
C4    C11   S    
C11   O5    A    
N1    Zn2   S    
O9    Zn1   S    
C9    H3    S    
C6    H8    S    
C1    O4    A    
C5    H7    S    
C5    O10   S    
C5    H1    S    
N1    N2    T    
O8    Zn2   S    
C5    C6    S    
C2    C14   T    
O4    Zn2   S    
C3    C4    T    
C8    H14   S    
C13   O9    A    
O6    Zn1   S    
C1    O1    A    
C7    H12   S    
C8    O2    S    
C11   O3    A    
C8    C9    S    
C12   O8    A    
C10   H6    S    
O3    Zn2   S    
C8    H13   S    
C10   H4    S    
C7    H10   S    
C16   C17   D    
C1    C3    S    
O1    Zn1   S    
