data_mof_unit_20893.cif
_audit_creation_date              2012-12-10T19:18:32-0500
_audit_creation_method            fapswitch 2.2
_symmetry_space_group_name_H-M    P1
_symmetry_Int_Tables_number       1
_space_group_crystal_system       triclinic
_cell_length_a                    15.758303
_cell_length_b                    14.986803
_cell_length_c                    10.500305
_cell_angle_alpha                 89.496414
_cell_angle_beta                  89.917265
_cell_angle_gamma                 89.746089
_cell_volume                      2479.69856821

loop_
_atom_site_label
_atom_site_type_symbol
_atom_type_description
_atom_site_fract_x
_atom_site_fract_y
_atom_site_fract_z
_atom_type_partial_charge
C1    C     C_R   0.338017 0.500323 0.500064 0.905805
C2    C     C_3   0.500046 0.501297 0.122123 0.029623
C3    C     C_3   0.047314 0.583700 0.576675 -0.146808
C4    C     C_3   0.050231 0.414808 0.568632 -0.144204
C5    C     C_3   0.951522 0.413899 0.567549 -0.435900
C6    C     C_3   0.948792 0.582613 0.573837 -0.435704
C7    C     C_1   0.750976 0.499190 0.500041 -0.199235
C8    C     C_3   0.082767 0.501880 0.500267 0.272198
C9    C     C_3   0.917484 0.499579 0.501013 0.331005
C10   C     C_3   0.951112 0.503611 0.362377 -0.415955
C11   C     C_3   0.049026 0.504559 0.361708 -0.401082
C12   C     C_1   0.826186 0.498912 0.500273 -0.106898
C13   C     C_1   0.174248 0.502685 0.499636 -0.107578
C14   C     C_R   0.499847 0.500429 0.256844 0.862509
C15   C     C_1   0.249384 0.501563 0.499667 -0.182899
C16   C     C_3   0.414522 0.052643 0.438784 -0.379736
C17   C     C_3   0.412563 0.948526 0.446125 -0.391544
C18   C     C_3   0.501605 0.052022 0.643749 -0.146141
C19   C     C_3   0.510020 0.946313 0.643058 -0.151485
C20   C     C_3   0.495248 0.089883 0.503821 0.221740
C21   C     C_3   0.496117 0.909688 0.504079 0.218783
C22   C     C_3   0.569438 0.948153 0.420690 -0.410517
C23   C     C_3   0.572195 0.052149 0.427745 -0.418402
C24   C     C_1   0.497961 0.809158 0.499169 -0.010561
C25   C     C_1   0.496809 0.190739 0.499992 -0.002800
C26   C     C_R   0.662204 0.499782 0.500055 0.905722
C27   C     C_R   0.500738 0.499669 0.743352 0.860064
C28   C     C_3   0.492999 0.585267 0.039031 -0.128504
C29   C     C_3   0.434546 0.451912 0.042565 -0.183182
C30   C     C_3   0.427477 0.535822 0.956820 -0.179779
C31   C     C_3   0.501086 0.499305 0.877978 0.037090
C32   C     C_3   0.566623 0.548733 0.957359 -0.173164
C33   C     C_3   0.508300 0.415482 0.961033 -0.144834
C34   C     C_3   0.573714 0.464952 0.043259 -0.191610
H1    H     H_    0.368188 0.564684 0.916537 0.124864
H2    H     H_    0.926545 0.564420 0.313036 0.163815
H3    H     H_    0.928056 0.445109 0.308078 0.162971
H4    H     H_    0.356223 0.926341 0.500460 0.146015
H5    H     H_    0.356250 0.081424 0.481236 0.150522
H6    H     H_    0.563741 0.076275 0.680151 0.094149
H7    H     H_    0.578392 0.931774 0.662074 0.112755
H8    H     H_    0.572481 0.080421 0.329362 0.172767
H9    H     H_    0.560818 0.927799 0.319826 0.170977
H10   H     H_    0.632531 0.073015 0.473410 0.161327
H11   H     H_    0.631534 0.920122 0.452236 0.160366
H12   H     H_    0.413782 0.073949 0.336955 0.169433
H13   H     H_    0.403934 0.922086 0.348276 0.164846
H14   H     H_    0.486960 0.654353 0.075295 0.145462
H15   H     H_    0.380899 0.412595 0.082068 0.130580
H16   H     H_    0.620251 0.587932 0.917576 0.132975
H17   H     H_    0.516173 0.346953 0.923781 0.136802
H18   H     H_    0.633067 0.436262 0.083532 0.128663
H19   H     H_    0.924050 0.580831 0.673260 0.154564
H20   H     H_    0.927659 0.411061 0.667405 0.154283
H21   H     H_    0.065267 0.571912 0.678124 0.108076
H22   H     H_    0.068655 0.419935 0.670802 0.107222
H23   H     H_    0.925701 0.353885 0.520216 0.170166
H24   H     H_    0.922051 0.644126 0.529252 0.173077
H25   H     H_    0.072801 0.564051 0.309619 0.168138
H26   H     H_    0.073686 0.447113 0.306744 0.172531
N1    N     N_1   0.498630 0.731150 0.497460 -0.086600
N2    N     N_1   0.498630 0.268850 0.497460 -0.087027
O1    O     O_R   0.377210 0.574260 0.500130 -0.610283
O2    O     O_R   0.377210 0.425740 0.500130 -0.606253
O3    O     O_R   0.500050 0.574220 0.314080 -0.626587
O4    O     O_R   0.500050 0.425780 0.314080 -0.618093
O5    O     O_R   0.622930 0.574200 0.500140 -0.611787
O6    O     O_R   0.622930 0.425800 0.500140 -0.614369
O7    O     O_R   0.500090 0.574240 0.686180 -0.613211
O8    O     O_R   0.500090 0.425760 0.686180 -0.624137
Zn1   Zn    Zn3+2 0.500090 0.599130 0.500180 0.962833
Zn2   Zn    Zn3+2 0.500090 0.400870 0.500180 0.961950
C35   C     C_R   0.433891 0.089981 0.734225 0.149694
C36   C     C_R   0.349079 0.060120 0.734438 -0.130767
C37   C     C_R   0.290147 0.093560 0.821570 -0.162257
C38   C     C_R   0.314614 0.157206 0.910104 -0.116048
C39   C     C_R   0.398192 0.187294 0.911976 -0.128974
C40   C     C_R   0.457413 0.154359 0.824618 -0.170911
H27   H     H_    0.328116 0.009332 0.670106 0.123173
H28   H     H_    0.225443 0.069625 0.820764 0.130046
H29   H     H_    0.268956 0.182765 0.977869 0.119499
H30   H     H_    0.417104 0.235669 0.982123 0.123313
H31   H     H_    0.521922 0.178763 0.828457 0.108980
C41   C     C_R   0.466516 0.898926 0.755740 0.123696
C42   C     C_R   0.497947 0.914995 0.879129 -0.138156
C43   C     C_R   0.461681 0.873907 0.985956 -0.130794
C44   C     C_R   0.393809 0.815483 0.971545 -0.124179
C45   C     C_R   0.362095 0.798172 0.850356 -0.134921
C46   C     C_R   0.397756 0.839598 0.743208 -0.132777
H32   H     H_    0.550717 0.960006 0.892546 0.109582
H33   H     H_    0.486377 0.887291 0.079991 0.115687
H34   H     H_    0.365911 0.783445 0.054261 0.119724
H35   H     H_    0.309630 0.752511 0.839317 0.116775
H36   H     H_    0.370859 0.824317 0.651953 0.117180
C47   C     C_R   0.091097 0.328581 0.519887 0.155415
C48   C     C_R   0.161939 0.292937 0.584794 -0.149320
C49   C     C_R   0.203458 0.216871 0.539930 -0.121944
C50   C     C_R   0.174269 0.174253 0.430946 -0.129323
C51   C     C_R   0.103855 0.208192 0.365918 -0.148418
C52   C     C_R   0.062631 0.284946 0.409422 -0.157867
H37   H     H_    0.186328 0.325153 0.669016 0.117237
H38   H     H_    0.258734 0.191498 0.589271 0.143042
H39   H     H_    0.206373 0.115169 0.396545 0.113425
H40   H     H_    0.081443 0.175302 0.281076 0.122355
H41   H     H_    0.008942 0.309891 0.355856 0.118601
C53   C     C_R   0.084359 0.674576 0.539014 0.165245
C54   C     C_R   0.143619 0.715420 0.620057 -0.154735
C55   C     C_R   0.176495 0.799591 0.590473 -0.138776
C56   C     C_R   0.151929 0.843746 0.478927 -0.115247
C57   C     C_R   0.093293 0.804396 0.397611 -0.147567
C58   C     C_R   0.059130 0.720850 0.427623 -0.156562
H42   H     H_    0.164140 0.682465 0.706965 0.103770
H43   H     H_    0.220422 0.831069 0.654732 0.117772
H44   H     H_    0.177691 0.908828 0.456189 0.113715
H45   H     H_    0.073427 0.839168 0.311852 0.123026
H46   H     H_    0.011782 0.693877 0.364694 0.118794

loop_
_geom_bond_atom_site_label_1
_geom_bond_atom_site_label_2
_ccdc_geom_bond_type
C44   C45   A    
C24   N1    T    
C35   C36   A    
C6    H24   S    
C47   C48   A    
C4    C8    S    
C3    C6    S    
C6    C9    S    
C49   C50   A    
C29   H15   S    
C39   C40   A    
C52   H41   S    
C8    C13   S    
C7    C26   S    
C30   H1    S    
C2    C29   S    
C26   O5    A    
C19   C21   S    
C43   H33   S    
C30   C31   S    
C20   C25   S    
C50   H39   S    
C29   C33   S    
C55   C56   A    
C18   C19   S    
C54   H42   S    
C46   H36   S    
O7    Zn1   S    
C18   H6    S    
C57   C58   A    
C3    H21   S    
C40   H31   S    
O4    Zn2   S    
C31   C32   S    
C16   C17   S    
C54   C55   A    
C31   C33   S    
C58   H46   S    
C1    C15   S    
C37   H28   S    
C18   C20   S    
C49   H38   S    
C27   O7    A    
O6    Zn2   S    
C17   H4    S    
N1    Zn1   S    
C51   H40   S    
C21   C22   S    
C4    H22   S    
C11   H25   S    
C1    O1    A    
C53   C58   A    
C3    C53   S    
C7    C12   T    
C36   C37   A    
C27   C31   S    
C5    H20   S    
C28   C32   S    
C48   H37   S    
C38   C39   A    
C3    C8    S    
C16   H12   S    
C47   C52   A    
C42   C43   A    
C35   C40   A    
C17   C21   S    
C23   H10   S    
C32   C34   S    
C55   H43   S    
C37   C38   A    
C5    C9    S    
C29   C30   S    
C4    C47   S    
C51   C52   A    
C20   C23   S    
C16   C20   S    
C48   C49   A    
C33   C34   S    
C14   O4    A    
N2    Zn2   S    
C41   C42   A    
C23   H8    S    
C32   H16   S    
C27   O8    A    
C56   H44   S    
O1    Zn1   S    
C18   C35   S    
C36   H27   S    
C13   C15   T    
C41   C46   A    
C6    H19   S    
C11   H26   S    
C1    O2    A    
C9    C10   S    
C45   H35   S    
C28   H14   S    
C43   C44   A    
C17   H13   S    
C4    C5    S    
C38   H29   S    
O8    Zn2   S    
C42   H32   S    
C10   H3    S    
C33   H17   S    
C34   H18   S    
C5    H23   S    
C26   O6    A    
C28   C30   S    
O3    Zn1   S    
C56   C57   A    
C2    C34   S    
C39   H30   S    
C8    C11   S    
C14   O3    A    
C10   H2    S    
O5    Zn1   S    
C25   N2    T    
O2    Zn2   S    
C2    C14   S    
C9    C12   S    
C10   C11   S    
C16   H5    S    
C19   H7    S    
C22   H11   S    
C45   C46   A    
C50   C51   A    
C53   C54   A    
C21   C24   S    
C22   C23   S    
C2    C28   S    
C44   H34   S    
C57   H45   S    
C22   H9    S    
C19   C41   S    
