data_mof_unit_23411.cif
_audit_creation_date              2012-12-10T17:55:29-0500
_audit_creation_method            fapswitch 2.2
_symmetry_space_group_name_H-M    P1
_symmetry_Int_Tables_number       1
_space_group_crystal_system       triclinic
_cell_length_a                    10.827456
_cell_length_b                    9.595165
_cell_length_c                    10.923211
_cell_angle_alpha                 90.000724
_cell_angle_beta                  91.361335
_cell_angle_gamma                 90.000058
_cell_volume                      1134.50548698

loop_
_atom_site_label
_atom_site_type_symbol
_atom_type_description
_atom_site_fract_x
_atom_site_fract_y
_atom_site_fract_z
_atom_type_partial_charge
C1    C     C_R   0.262291 0.499968 0.499798 0.781299
C2    C     C_R   0.737709 0.499968 0.500202 0.781318
C3    C     C_R   0.498194 0.500034 0.265446 0.851028
C4    C     C_R   0.501806 0.500035 0.734554 0.851042
C5    C     C_2   0.497345 0.385531 0.932913 -0.155696
C6    C     C_2   0.502659 0.385530 0.067084 -0.155710
C7    C     C_2   0.508255 0.502294 0.866768 -0.319045
C8    C     C_2   0.491744 0.502292 0.133232 -0.319031
C9    C     C_R   0.063880 0.373381 0.499850 -0.183125
C10   C     C_R   0.936119 0.373382 0.500097 -0.183123
C11   C     C_R   0.871680 0.500015 0.500215 -0.017625
C12   C     C_R   0.128320 0.500015 0.499786 -0.017621
C13   C     C_R   0.936113 0.626669 0.500166 -0.187387
C14   C     C_R   0.063888 0.626669 0.499891 -0.187372
C15   C     C_R   0.433047 0.076113 0.414816 -0.043908
C16   C     C_R   0.566956 0.076117 0.585181 -0.043901
C17   C     C_R   0.432729 0.928241 0.412900 0.254965
C18   C     C_R   0.567270 0.928245 0.587102 0.254933
Cu1   Cu    Cu3+1 0.500000 0.640660 0.500000 0.938950
Cu2   Cu    Cu3+1 0.500000 0.359340 0.500000 0.938736
H1    H     H_    0.485961 0.285211 0.887912 0.163945
H2    H     H_    0.514048 0.285211 0.112083 0.163945
H3    H     H_    0.524737 0.603174 0.908236 0.142437
H4    H     H_    0.475258 0.603171 0.091767 0.142452
H5    H     H_    0.111870 0.274324 0.499733 0.151883
H6    H     H_    0.888128 0.274324 0.500168 0.151887
H7    H     H_    0.888115 0.725721 0.500293 0.152391
H8    H     H_    0.111887 0.725721 0.499809 0.152418
H9    H     H_    0.380648 0.134497 0.346520 0.136148
H10   H     H_    0.619357 0.134507 0.653474 0.136144
N1    N     N_R   0.500000 0.852070 0.500000 -0.156447
N2    N     N_R   0.500000 0.147940 0.500000 -0.195941
O1    O     O_R   0.319640 0.618740 0.499990 -0.593203
O2    O     O_R   0.680360 0.618740 0.500010 -0.593173
O3    O     O_R   0.319620 0.381170 0.499990 -0.585202
O4    O     O_R   0.680380 0.381170 0.500010 -0.585207
O5    O     O_R   0.500000 0.618750 0.321940 -0.581712
O6    O     O_R   0.500000 0.618750 0.678060 -0.581716
O7    O     O_R   0.499970 0.381180 0.321940 -0.581870
O8    O     O_R   0.500030 0.381180 0.678060 -0.581868
C19   C     C_3   0.360812 0.861975 0.308483 -0.817801
H11   H     H_    0.293255 0.936288 0.266828 0.177136
H12   H     H_    0.424482 0.832703 0.234789 0.231559
H13   H     H_    0.305579 0.772297 0.337487 0.261072
C20   C     C_3   0.639194 0.861981 0.691515 -0.817698
H14   H     H_    0.706642 0.936353 0.733274 0.177094
H15   H     H_    0.575514 0.832563 0.765160 0.231634
H16   H     H_    0.694551 0.772408 0.662462 0.260968

loop_
_geom_bond_atom_site_label_1
_geom_bond_atom_site_label_2
_ccdc_geom_bond_type
C15   C17   A    
Cu1   O6    S    
C16   N2    A    
C11   C13   A    
C9    C10   A    
Cu1   Cu2   S    
Cu2   O8    S    
Cu1   N1    S    
C19   H13   S    
C10   H6    S    
C12   C14   A    
C9    H5    S    
C15   N2    A    
C20   H14   S    
C19   H12   S    
C1    O3    A    
C1    C12   S    
C4    C7    S    
C7    H3    S    
C2    C11   S    
C8    H4    S    
C4    O6    A    
C15   H9    S    
C20   H15   S    
Cu2   N2    S    
C5    C6    S    
C17   N1    A    
C9    C12   A    
C17   C19   S    
C10   C11   A    
C1    O1    A    
C6    H2    S    
C18   C20   S    
C5    H1    S    
C3    O5    A    
C16   C18   A    
C3    C8    S    
C19   H11   S    
C20   H16   S    
C2    O4    A    
C5    C7    D    
Cu2   O7    S    
C13   H7    S    
C6    C8    D    
C18   N1    A    
Cu1   O5    S    
C14   H8    S    
C2    O2    A    
C13   C14   A    
Cu2   O3    S    
C16   H10   S    
C3    O7    A    
C4    O8    A    
Cu1   O1    S    
Cu1   O2    S    
Cu2   O4    S    
