data_mof_unit_49640.cif
_audit_creation_date              2013-03-05T15:42:20-0500
_audit_creation_method            fapswitch 2.2
_symmetry_space_group_name_H-M    P1
_symmetry_Int_Tables_number       1
_space_group_crystal_system       triclinic
_cell_length_a                    7.877565
_cell_length_b                    8.742933
_cell_length_c                    19.260684
_cell_angle_alpha                 93.86924
_cell_angle_beta                  83.997614
_cell_angle_gamma                 92.800001
_cell_volume                      1315.09365172

loop_
_atom_site_label
_atom_site_type_symbol
_atom_site_description
_atom_site_fract_x
_atom_site_fract_y
_atom_site_fract_z
_atom_type_partial_charge
O1    O     O_R   0.389250 0.738570 0.504600 -0.603267
O2    O     O_R   0.610750 0.261430 0.495400 -0.603270
O3    O     O_R   0.678400 0.711620 0.492580 -0.558560
O4    O     O_R   0.321600 0.288380 0.507420 -0.558526
C1    C     C_R   0.543856 0.793191 0.497766 0.870507
C2    C     C_R   0.456142 0.206808 0.502237 0.870438
O5    O     O_R   0.355380 0.513500 0.607880 -0.573724
O6    O     O_R   0.644620 0.486500 0.392120 -0.573776
O7    O     O_R   0.644530 0.486550 0.595850 -0.606832
O8    O     O_R   0.355470 0.513450 0.404150 -0.606783
C3    C     C_R   0.498389 0.495843 0.634427 0.894988
C4    C     C_R   0.501581 0.504044 0.365570 0.894839
Zn1   Zn    Zn3+2 0.306930 0.517990 0.508030 1.170468
Zn2   Zn    Zn3+2 0.693070 0.482010 0.491970 1.170416
C5    C     C_R   0.353569 0.529123 0.757232 0.316805
C6    C     C_R   0.645818 0.469253 0.242741 0.316533
C7    C     C_R   0.367645 0.542271 0.828533 -0.193015
C8    C     C_R   0.631416 0.455473 0.171467 -0.192912
C9    C     C_R   0.517350 0.504525 0.854823 -0.118128
C10   C     C_R   0.481783 0.493505 0.145192 -0.117894
C11   C     C_R   0.657267 0.452950 0.809361 0.344383
C12   C     C_R   0.342256 0.545902 0.190657 0.344304
C13   C     C_R   0.646003 0.446377 0.737467 -0.173651
C14   C     C_R   0.353860 0.553158 0.262530 -0.173443
C15   C     C_R   0.497211 0.488985 0.710531 -0.224461
C16   C     C_R   0.502576 0.510358 0.289453 -0.224160
N1    N     N_R   0.572306 0.383341 0.959636 -0.090134
N2    N     N_R   0.426686 0.614509 0.040366 -0.090154
N3    N     N_R   0.558867 0.378758 0.028659 -0.118798
N4    N     N_R   0.440118 0.619091 0.971347 -0.118690
C17   C     C_R   0.484496 0.493590 0.069931 0.374765
C18   C     C_R   0.514493 0.504270 0.930077 0.374893
C19   C     C_2   0.567973 0.954110 0.495577 -0.024170
C20   C     C_2   0.432021 0.045890 0.504435 -0.024140
N5    N     N_2   0.950330 0.457950 0.481240 0.035618
N6    N     N_2   0.049670 0.542050 0.518760 0.035686
N7    N     N_R   0.188614 0.542651 0.734371 0.249878
O9    O     O_R   0.115019 0.421577 0.705542 -0.291127
O10   O     O_R   0.095795 0.656576 0.759564 -0.292999
N8    N     N_R   0.810788 0.455494 0.265540 0.249802
O11   O     O_R   0.885077 0.576731 0.293920 -0.290951
O12   O     O_R   0.902918 0.340875 0.240680 -0.292772
H1    H     H_    0.256499 0.572310 0.864051 0.230191
H2    H     H_    0.742320 0.424800 0.135940 0.230005
N9    N     N_R   0.811186 0.409038 0.835129 0.236902
O13   O     O_R   0.885750 0.285746 0.808630 -0.293288
O14   O     O_R   0.881783 0.495466 0.882748 -0.336710
N10   N     N_R   0.188394 0.590020 0.164913 0.236996
O15   O     O_R   0.114471 0.713791 0.191199 -0.293215
O16   O     O_R   0.117181 0.503306 0.117556 -0.336486
H3    H     H_    0.754686 0.408304 0.702670 0.253459
H4    H     H_    0.245492 0.591920 0.297330 0.253196
N11   N     N_R   0.742054 0.010625 0.485005 0.257793
O17   O     O_R   0.833578 0.970043 0.427088 -0.245062
O18   O     O_R   0.817476 0.066153 0.538782 -0.247332
N12   N     N_R   0.257940 0.989378 0.515021 0.257772
O19   O     O_R   0.166456 0.029922 0.572950 -0.245004
O20   O     O_R   0.182476 0.933891 0.461249 -0.247366
N13   N     N_R   0.032430 0.358332 0.431340 0.305418
O21   O     O_R   0.046350 0.216922 0.445230 -0.240763
O22   O     O_R   0.051839 0.392570 0.366515 -0.309524
N14   N     N_R   0.967580 0.641682 0.568656 0.305347
O23   O     O_R   0.948484 0.607579 0.633501 -0.309480
O24   O     O_R   0.953573 0.783060 0.554733 -0.240838

loop_
_geom_bond_atom_site_label_1
_geom_bond_atom_site_label_2
_geom_bond_distance
_ccdc_geom_bond_type
Zn1   N6    2.035237 S    
C14   H4    1.082035 S    
C12   N10   1.435587 S    
O7    Zn2   1.995430 S    
C7    H1    1.084680 S    
C20   N12   1.433581 S    
N7    O9    1.301150 A    
C8    H2    1.084678 S    
N1    N3    1.325714 A    
C13   H3    1.082003 S    
N5    N6    1.290590 D    
O6    C4    1.304870 A    
N14   O23   1.295387 A    
N2    N4    1.325636 A    
C19   C20   1.359131 D    
N13   O21   1.294659 A    
N7    O10   1.301498 A    
C6    C16   1.412642 A    
N11   O17   1.301331 A    
N4    C18   1.354713 A    
N10   O16   1.301383 A    
O7    C3    1.306185 A    
C14   C16   1.406217 A    
O2    C2    1.283309 A    
O3    Zn2   2.015591 S    
O8    C4    1.306085 A    
C6    N8    1.427549 S    
O1    C1    1.283290 A    
C9    C18   1.447408 S    
C6    C8    1.385963 A    
N10   O15   1.300920 A    
C7    C9    1.393398 A    
N12   O20   1.301599 A    
O5    C3    1.304806 A    
C11   N9    1.435597 S    
N11   O18   1.301617 A    
C11   C13   1.393943 A    
C19   N11   1.433574 S    
O2    Zn2   2.007515 S    
N5    N13   1.382976 S    
C12   C14   1.393837 A    
C5    C15   1.412797 A    
O4    C2    1.297697 A    
O1    Zn1   2.007514 S    
C3    C15   1.470118 S    
O3    C1    1.297705 A    
O5    Zn1   2.002745 S    
C13   C15   1.406312 A    
N12   O19   1.301292 A    
C8    C10   1.393508 A    
N3    C17   1.354787 A    
N9    O14   1.301383 A    
C4    C16   1.470006 S    
Zn2   N5    2.035236 S    
C5    C7    1.385905 A    
N8    O11   1.301111 A    
N14   O24   1.294675 A    
O6    Zn2   2.002747 S    
N6    N14   1.382974 S    
C9    C11   1.406543 A    
N1    C18   1.353477 A    
N9    O13   1.300906 A    
C10   C17   1.447537 S    
N2    C17   1.353458 A    
C5    N7    1.427634 S    
C2    C20   1.413328 S    
O4    Zn1   2.015591 S    
C10   C12   1.406612 A    
N8    O12   1.301474 A    
N13   O22   1.295365 A    
O8    Zn1   1.995434 S    
C1    C19   1.413317 S    
