data_mof_unit_13226.cif
_audit_creation_date              2012-12-11T15:39:34-0500
_audit_creation_method            fapswitch 2.2
_symmetry_space_group_name_H-M    P1
_symmetry_Int_Tables_number       1
_space_group_crystal_system       triclinic
_cell_length_a                    17.340235
_cell_length_b                    24.238585
_cell_length_c                    14.962063
_cell_angle_alpha                 90.195265
_cell_angle_beta                  125.486933
_cell_angle_gamma                 90.248405
_cell_volume                      5120.29292008

loop_
_atom_site_label
_atom_site_type_symbol
_atom_type_description
_atom_site_fract_x
_atom_site_fract_y
_atom_site_fract_z
_atom_type_partial_charge
Br1   Br    Br    0.051441 0.383626 0.527208 -0.361246
Br2   Br    Br    0.940108 0.396138 0.247307 -0.430110
Br3   Br    Br    0.563402 0.880291 0.518065 -0.364088
Br4   Br    Br    0.438165 0.898777 0.240729 -0.429176
C1    C     C_R   0.310505 0.374306 0.906781 -0.084936
C2    C     C_R   0.435199 0.499737 0.634250 0.032707
C3    C     C_R   0.113983 0.815343 0.997458 0.015998
C4    C     C_R   0.064829 0.000327 0.367216 0.052493
C5    C     C_R   0.049111 0.000198 0.723792 0.013657
C6    C     C_R   0.191616 0.497710 0.636498 0.077761
C7    C     C_R   0.824741 0.501061 0.271686 0.006437
C8    C     C_R   0.693933 0.997756 0.634567 0.072990
C9    C     C_R   0.324722 0.001443 0.271576 0.010959
C10   C     C_R   0.067580 0.549748 0.473223 -0.093683
C11   C     C_R   0.978271 0.552881 0.375590 0.031363
C12   C     C_R   0.567426 0.050111 0.474335 -0.084067
C13   C     C_R   0.646431 0.347545 0.089345 -0.038423
C14   C     C_R   0.477640 0.053513 0.377698 0.029982
C15   C     C_R   0.106288 0.498485 0.522665 -0.053365
C16   C     C_R   0.926901 0.504382 0.322859 -0.070608
C17   C     C_R   0.608285 0.998701 0.520667 -0.050469
C18   C     C_R   0.426891 0.005190 0.323236 -0.075548
C19   C     C_R   0.057117 0.450066 0.460442 0.346743
C20   C     C_R   0.979126 0.455742 0.351147 0.296723
C21   C     C_R   0.560066 0.950583 0.455910 0.336718
C22   C     C_R   0.479508 0.956927 0.348102 0.304121
C23   C     C_3   0.954782 0.604491 0.410236 0.224089
C24   C     C_R   0.809321 0.876345 0.907626 -0.088992
C25   C     C_3   0.051598 0.600972 0.517703 0.223604
C26   C     C_3   0.453557 0.103633 0.415489 0.223077
C27   C     C_3   0.550757 0.099606 0.522271 0.219903
C28   C     C_R   0.160689 0.690211 0.896030 -0.117203
C29   C     C_R   0.709034 0.769011 0.098475 -0.100464
C30   C     C_R   0.658809 0.186561 0.898480 -0.118977
C31   C     C_R   0.205168 0.269738 0.097503 -0.104298
C32   C     C_R   0.611160 0.232344 0.897998 -0.143406
C33   C     C_R   0.255771 0.313746 0.096757 -0.122940
C34   C     C_R   0.108859 0.733262 0.896097 -0.140623
C35   C     C_R   0.144655 0.847065 0.089297 -0.031445
C36   C     C_R   0.755909 0.815302 0.098306 -0.121902
C37   C     C_R   0.642684 0.258719 0.997298 0.117093
C38   C     C_R   0.239640 0.329890 0.997332 0.115874
C39   C     C_R   0.137729 0.757939 0.995929 0.117171
C40   C     C_R   0.737340 0.833936 0.999009 0.113878
C41   C     C_R   0.405046 0.630825 0.089656 -0.115385
C42   C     C_R   0.558197 0.651458 0.908353 -0.106242
C43   C     C_R   0.901780 0.124424 0.091518 -0.108905
C44   C     C_R   0.055235 0.152309 0.908795 -0.132589
C45   C     C_R   0.709308 0.232511 0.096787 -0.112798
C46   C     C_R   0.315148 0.642852 0.997312 0.050820
C47   C     C_R   0.158419 0.311113 0.898006 -0.129525
C48   C     C_R   0.204420 0.731426 0.094828 -0.112587
C49   C     C_R   0.657137 0.814145 0.899624 -0.128004
C50   C     C_R   0.255934 0.688109 0.094674 -0.136151
C51   C     C_R   0.609985 0.767956 0.899680 -0.143710
C52   C     C_R   0.756906 0.186778 0.097150 -0.137733
C53   C     C_R   0.107219 0.267527 0.898663 -0.143131
C54   C     C_R   0.241026 0.671829 0.995804 0.117893
C55   C     C_R   0.642501 0.741937 0.999188 0.105080
C56   C     C_R   0.738730 0.167561 0.998202 0.117531
C57   C     C_R   0.618591 0.684099 0.999478 0.054848
C58   C     C_R   0.137838 0.242719 0.998623 0.105446
C59   C     C_R   0.397715 0.549624 0.471298 -0.147064
C60   C     C_R   0.414462 0.549737 0.391949 -0.149820
C61   C     C_R   0.103106 0.050374 0.625246 -0.140006
C62   C     C_R   0.105212 0.050437 0.534175 -0.143175
C63   C     C_R   0.434106 0.499804 0.362010 0.135261
C64   C     C_R   0.402083 0.499614 0.520521 0.133860
C65   C     C_R   0.096752 0.000463 0.481616 0.131065
C66   C     C_R   0.091398 0.000377 0.663066 0.131882
C67   C     C_R   0.413888 0.449698 0.390931 -0.162677
C68   C     C_R   0.812118 0.137559 0.999174 0.049993
C69   C     C_R   0.397136 0.449625 0.470319 -0.124592
C70   C     C_R   0.105069 0.950524 0.533527 -0.135146
C71   C     C_R   0.102841 0.950504 0.624499 -0.141871
C72   C     C_R   0.503661 0.454143 0.272937 -0.102029
C73   C     C_R   0.454342 0.453889 0.698418 -0.057850
C74   C     C_R   0.049144 0.954428 0.303562 -0.116667
C75   C     C_R   0.018882 0.953922 0.750561 -0.029091
C76   C     C_R   0.242445 0.544328 0.698004 -0.131499
C77   C     C_R   0.765914 0.546144 0.238712 -0.210189
C78   C     C_R   0.743475 0.044340 0.697184 -0.123581
C79   C     C_R   0.114596 0.185009 0.999666 0.060673
C80   C     C_R   0.265777 0.046376 0.238860 -0.217597
C81   C     C_R   0.503025 0.545940 0.272368 -0.112547
C82   C     C_R   0.451298 0.545805 0.697405 -0.123263
C83   C     C_R   0.048992 0.045982 0.303612 -0.129546
C84   C     C_R   0.018674 0.046273 0.750486 -0.115060
C85   C     C_R   0.247264 0.452964 0.696438 0.426440
C86   C     C_R   0.769661 0.454634 0.256853 0.502862
C87   C     C_R   0.749926 0.953182 0.694642 0.433879
C88   C     C_R   0.269919 0.954844 0.256613 0.500173
C89   C     C_R   0.311753 0.626661 0.906405 -0.103492
C90   C     C_R   0.479555 0.499987 0.306119 0.041538
C91   C     C_R   0.647509 0.652632 0.090812 -0.096621
C92   C     C_R   0.810380 0.124526 0.907581 -0.099969
C93   C     C_R   0.145842 0.153047 0.090929 -0.094468
C94   C     C_R   0.404736 0.369555 0.089709 -0.113365
C95   C     C_R   0.558095 0.348678 0.907116 -0.090859
C96   C     C_R   0.901480 0.876000 0.091520 -0.103768
C97   C     C_R   0.055022 0.847858 0.907349 -0.116902
C98   C     C_R   0.314044 0.358305 0.997840 0.025252
C99   C     C_R   0.618188 0.316286 0.997623 0.014018
C100  C     C_R   0.811111 0.863501 0.999341 0.026998
Cl1   Cl    Cl    0.943765 0.662213 0.329690 -0.667746
Cl2   Cl    Cl    0.042469 0.588665 0.629443 -0.666212
Cl3   Cl    Cl    0.441168 0.163144 0.338063 -0.670384
Cl4   Cl    Cl    0.542670 0.083789 0.633650 -0.674021
Cl5   Cl    Cl    0.265232 0.393855 0.641954 -0.673897
Cl6   Cl    Cl    0.809102 0.394583 0.336658 -0.607198
Cl7   Cl    Cl    0.777556 0.898631 0.639809 -0.636049
Cl8   Cl    Cl    0.310749 0.894480 0.335608 -0.619644
H1    H     H_    0.251816 0.370687 0.821542 0.154210
H2    H     H_    0.732031 0.752013 0.176903 0.142332
H3    H     H_    0.638603 0.170267 0.820325 0.165901
H4    H     H_    0.226200 0.253869 0.176020 0.139599
H5    H     H_    0.556165 0.249569 0.819598 0.131099
H6    H     H_    0.313187 0.330880 0.174709 0.117050
H7    H     H_    0.053623 0.750498 0.817866 0.132104
H8    H     H_    0.813065 0.832224 0.176580 0.125294
H9    H     H_    0.731967 0.249789 0.175201 0.141770
H10   H     H_    0.139719 0.325538 0.819532 0.148894
H11   H     H_    0.224316 0.747177 0.173247 0.137467
H12   H     H_    0.678769 0.332072 0.170989 0.156692
H13   H     H_    0.636610 0.830058 0.821326 0.145011
H14   H     H_    0.312771 0.671444 0.172747 0.115409
H15   H     H_    0.554691 0.750180 0.821343 0.125445
H16   H     H_    0.814076 0.170666 0.175566 0.122153
H17   H     H_    0.051104 0.250040 0.820473 0.126544
H18   H     H_    0.393344 0.588973 0.502172 0.118922
H19   H     H_    0.420282 0.589091 0.362477 0.113888
H20   H     H_    0.101016 0.089713 0.657941 0.120600
H21   H     H_    0.104473 0.089820 0.500095 0.123106
H22   H     H_    0.419131 0.410413 0.360486 0.116228
H23   H     H_    0.751034 0.871913 0.822234 0.144116
H24   H     H_    0.392026 0.410272 0.500326 0.137098
H25   H     H_    0.104250 0.911126 0.499003 0.123348
H26   H     H_    0.100439 0.911139 0.656522 0.118782
H27   H     H_    0.434866 0.644107 0.172169 0.098518
H28   H     H_    0.512999 0.664265 0.823734 0.091306
H29   H     H_    0.928700 0.129553 0.176594 0.101782
H30   H     H_    0.008037 0.165524 0.824670 0.094496
H31   H     H_    0.509638 0.412485 0.300473 0.099111
H32   H     H_    0.441631 0.411105 0.673234 0.135051
H33   H     H_    0.067432 0.912285 0.330872 0.109577
H34   H     H_    0.177593 0.831855 0.171268 0.154487
H35   H     H_    0.028827 0.911124 0.740121 0.099087
H36   H     H_    0.232852 0.585987 0.668436 0.118200
H37   H     H_    0.783295 0.588248 0.234948 0.176847
H38   H     H_    0.733853 0.086138 0.668216 0.118486
H39   H     H_    0.283070 0.088609 0.235728 0.180077
H40   H     H_    0.508193 0.587796 0.299212 0.096092
H41   H     H_    0.433631 0.588097 0.670937 0.094436
H42   H     H_    0.067019 0.088350 0.331067 0.100478
H43   H     H_    0.028410 0.089132 0.740069 0.102541
H44   H     H_    0.254411 0.631131 0.820979 0.129828
H45   H     H_    0.895995 0.600074 0.419542 0.136221
H46   H     H_    0.684296 0.667007 0.174616 0.114321
H47   H     H_    0.753090 0.129810 0.822330 0.129223
H48   H     H_    0.182970 0.167198 0.174926 0.113581
H49   H     H_    0.434838 0.356128 0.171904 0.103733
H50   H     H_    0.513198 0.335659 0.822195 0.116004
H51   H     H_    0.928726 0.870818 0.176558 0.104275
H52   H     H_    0.008051 0.834492 0.822846 0.128578
H53   H     H_    0.100002 0.635564 0.532210 0.121369
H54   H     H_    0.394973 0.097557 0.424722 0.135467
H55   H     H_    0.598209 0.135081 0.538537 0.124711
H56   H     H_    0.142931 0.675817 0.817751 0.163006
N1    N     N_R   0.394180 0.396910 0.943210 -0.040945
N2    N     N_R   0.474350 0.471570 0.793850 -0.042504
N3    N     N_R   0.025650 0.971570 0.206150 -0.045052
N4    N     N_R   0.974350 0.971570 0.793850 -0.031547
N5    N     N_R   0.319480 0.528420 0.793810 -0.074089
N6    N     N_R   0.680520 0.528420 0.206190 -0.066431
N7    N     N_R   0.819480 0.028420 0.793810 -0.074788
N8    N     N_R   0.180520 0.028420 0.206190 -0.066366
N9    N     N_R   0.525640 0.528390 0.206120 -0.041415
N10   N     N_R   0.474360 0.528390 0.793880 -0.045838
N11   N     N_R   0.025640 0.028390 0.206120 -0.042422
N12   N     N_R   0.605820 0.396910 0.056790 -0.060649
N13   N     N_R   0.974360 0.028390 0.793880 -0.049262
N14   N     N_R   0.319490 0.471590 0.793840 -0.089355
N15   N     N_R   0.680510 0.471590 0.206160 -0.091469
N16   N     N_R   0.819490 0.971590 0.793840 -0.091268
N17   N     N_R   0.180510 0.971590 0.206160 -0.091688
N18   N     N_R   0.394130 0.603080 0.943110 -0.047290
N19   N     N_R   0.605870 0.603080 0.056890 -0.046374
N20   N     N_R   0.894130 0.103080 0.943110 -0.047159
N21   N     N_R   0.105870 0.103080 0.056890 -0.045079
N22   N     N_R   0.450990 0.396900 0.056840 -0.050003
N23   N     N_R   0.894180 0.896910 0.943210 -0.040694
N24   N     N_R   0.549010 0.396900 0.943160 -0.046815
N25   N     N_R   0.950990 0.896900 0.056840 -0.051344
N26   N     N_R   0.049010 0.896900 0.943160 -0.047841
N27   N     N_R   0.105820 0.896910 0.056790 -0.059971
N28   N     N_R   0.450950 0.603070 0.056740 -0.044220
N29   N     N_R   0.549050 0.603070 0.943260 -0.043077
N30   N     N_R   0.950950 0.103070 0.056740 -0.045340
N31   N     N_R   0.049050 0.103070 0.943260 -0.042925
N32   N     N_R   0.525650 0.471570 0.206150 -0.041147
Ni1   Ni    Ni4+2 0.434860 0.434850 0.869700 0.270800
Ni2   Ni    Ni4+2 0.565140 0.434850 0.130300 0.261066
Ni3   Ni    Ni4+2 0.934860 0.934850 0.869700 0.284161
Ni4   Ni    Ni4+2 0.065140 0.934850 0.130300 0.249867
Ni5   Ni    Ni4+2 0.565130 0.565140 0.130240 0.230827
Ni6   Ni    Ni4+2 0.434870 0.565140 0.869760 0.209092
Ni7   Ni    Ni4+2 0.065130 0.065140 0.130240 0.221535
Ni8   Ni    Ni4+2 0.934870 0.065140 0.869760 0.214807

loop_
_geom_bond_atom_site_label_1
_geom_bond_atom_site_label_2
_ccdc_geom_bond_type
C95   C99   A    
C58   C79   S    
C12   C17   A    
C51   C55   A    
C26   Cl3   S    
C23   C25   S    
C24   H23   S    
C27   Cl4   S    
C92   N20   A    
C8    C87   A    
C30   C56   A    
C28   C54   A    
C94   N22   A    
C61   H20   S    
C67   H22   S    
C32   C37   A    
C91   N19   A    
N8    N17   A    
C96   N25   A    
C7    C77   A    
C12   C27   S    
C50   H14   S    
C9    C80   A    
C4    C65   S    
N25   Ni4   S    
N2    N10   A    
N1    N22   A    
N8    Ni7   S    
N18   N28   A    
C31   C33   A    
C82   H41   S    
C76   N5    A    
N12   Ni2   S    
C97   H52   S    
C5    C84   A    
C95   N24   A    
C48   H11   S    
C39   C48   A    
C80   H39   S    
C62   C65   A    
C23   Cl1   S    
C25   H53   S    
C61   C66   A    
N14   Ni1   S    
C85   Cl5   S    
C82   N10   A    
C41   H27   S    
C5    C75   A    
C59   H18   S    
C87   Cl7   S    
N3    Ni4   S    
C74   N3    A    
C91   H46   S    
C74   H33   S    
C72   C90   A    
C59   C64   A    
N4    N13   A    
C96   C100  A    
C33   H6    S    
C16   C20   A    
C6    C85   A    
C73   N2    A    
N2    Ni1   S    
N9    N32   A    
N6    Ni5   S    
C19   C20   A    
C60   H19   S    
C43   N30   A    
N5    Ni6   S    
C14   C26   S    
C28   C34   A    
C96   H51   S    
C63   C67   A    
C38   C47   A    
C89   N18   A    
N21   N31   A    
C41   N28   A    
C2    C64   S    
N26   N27   A    
C29   C55   A    
N16   Ni3   S    
C76   H36   S    
C87   N16   A    
C4    C74   A    
N3    N11   A    
N29   Ni6   S    
N28   Ni5   S    
N23   Ni3   S    
N7    Ni8   S    
C38   C98   S    
C37   C45   A    
C48   C50   A    
C33   C38   A    
C49   C51   A    
C40   C100  S    
C11   C16   A    
C70   H25   S    
N11   Ni7   S    
C7    C16   S    
C55   C57   S    
C29   C36   A    
C70   C71   A    
N18   Ni6   S    
C42   C57   A    
C44   H30   S    
C46   C54   S    
C93   H48   S    
Br3   C21   S    
N13   Ni8   S    
N12   N24   A    
C5    C66   S    
C26   H54   S    
C72   N32   A    
C67   C69   A    
C6    C76   A    
C88   N17   A    
N22   Ni2   S    
C2    C73   A    
C75   H35   S    
N27   Ni4   S    
C44   N31   A    
C53   C58   A    
C30   H3    S    
C94   C98   A    
C35   N27   A    
C8    C17   S    
C52   C56   A    
C75   N4    A    
N4    Ni3   S    
C15   C19   A    
N23   N25   A    
C63   C90   S    
C95   H50   S    
C81   C90   A    
C24   C100  A    
C13   H12   S    
C11   C23   S    
C10   C11   A    
C69   H24   S    
N20   N30   A    
C6    C15   S    
N24   Ni1   S    
C45   H9    S    
N19   Ni5   S    
C40   C49   A    
C83   H42   S    
C8    C78   A    
C31   H4    S    
C29   H2    S    
C78   N7    A    
C32   H5    S    
C78   H38   S    
C49   H13   S    
C47   C53   A    
C34   H7    S    
C13   N12   A    
C12   C14   A    
C36   H8    S    
C83   N11   A    
N19   N29   A    
N5    N14   A    
Br1   C19   S    
C3    C39   S    
C28   H56   S    
C9    C88   A    
C79   C93   A    
C25   Cl2   S    
C86   Cl6   S    
C10   C25   S    
C24   N23   A    
C65   C70   A    
C94   H49   S    
C97   N26   A    
N17   Ni4   S    
C42   H28   S    
C50   C54   A    
C62   H21   S    
C53   H17   S    
C17   C21   A    
C1    C98   A    
N20   Ni8   S    
C1    N1    A    
C1    H1    S    
N30   Ni7   S    
C14   C18   A    
N15   Ni2   S    
C10   C15   A    
C89   H44   S    
C88   Cl8   S    
C27   H55   S    
C42   N29   A    
C71   H26   S    
N6    N15   A    
C51   H15   S    
Br4   C22   S    
C57   C91   A    
C46   C89   A    
C23   H45   S    
C45   C52   A    
C43   H29   S    
C2    C82   A    
C44   C79   A    
C4    C83   A    
C77   N6    A    
C21   C22   A    
C73   H32   S    
C34   C39   A    
C61   C62   A    
C85   N14   A    
Br2   C20   S    
C7    C86   A    
C84   N13   A    
C26   C27   S    
C41   C46   A    
N21   Ni7   S    
C77   H37   S    
N26   Ni3   S    
N10   Ni6   S    
C35   H34   S    
C93   N21   A    
N31   Ni8   S    
N9    Ni5   S    
C9    C18   S    
C31   C58   A    
C30   C32   A    
C52   H16   S    
C56   C68   S    
C13   C99   A    
C43   C68   A    
C81   H40   S    
N1    Ni1   S    
C59   C60   A    
C68   C92   A    
C72   H31   S    
C37   C99   S    
C60   C63   A    
C36   C40   A    
C92   H47   S    
C86   N15   A    
C81   N9    A    
C84   H43   S    
C18   C22   A    
C66   C71   A    
C47   H10   S    
C3    C35   A    
C64   C69   A    
C80   N8    A    
N32   Ni2   S    
N7    N16   A    
C3    C97   A    
