data_mof_unit_18664.cif
_audit_creation_date              2012-12-10T16:55:42-0500
_audit_creation_method            fapswitch 2.2
_symmetry_space_group_name_H-M    P1
_symmetry_Int_Tables_number       1
_space_group_crystal_system       triclinic
_cell_length_a                    8.168743
_cell_length_b                    8.664268
_cell_length_c                    10.561498
_cell_angle_alpha                 101.62465
_cell_angle_beta                  82.873918
_cell_angle_gamma                 91.792417
_cell_volume                      726.499411419

loop_
_atom_site_label
_atom_site_type_symbol
_atom_type_description
_atom_site_fract_x
_atom_site_fract_y
_atom_site_fract_z
_atom_type_partial_charge
C1    C     C_R   0.542522 0.793025 0.497994 0.949468
C2    C     C_3   0.495548 0.505907 0.878720 -0.084011
C3    C     C_3   0.360516 0.430527 0.043931 -0.250656
C4    C     C_3   0.639484 0.569473 0.956068 -0.250656
C5    C     C_2   0.565239 0.955551 0.497028 -0.252179
C6    C     C_2   0.434761 0.044449 0.502972 -0.252179
C7    C     C_R   0.993318 0.316400 0.359472 0.263473
C8    C     C_R   0.867020 0.231685 0.291845 -0.135477
C9    C     C_R   0.890950 0.093703 0.196899 -0.216056
C10   C     C_R   0.045745 0.030086 0.160477 -0.061563
C11   C     C_R   0.175892 0.110147 0.214850 -0.194911
C12   C     C_R   0.457478 0.206974 0.502006 0.949468
C13   C     C_R   0.149488 0.248486 0.309257 -0.178626
C14   C     C_R   0.006682 0.683600 0.640528 0.263473
C15   C     C_R   0.132979 0.768315 0.708154 -0.135477
C16   C     C_R   0.109050 0.906297 0.803101 -0.216056
C17   C     C_R   0.954255 0.969914 0.839522 -0.061562
C18   C     C_R   0.824108 0.889853 0.785150 -0.194911
C19   C     C_R   0.850512 0.751514 0.690743 -0.178626
C20   C     C_R   0.497879 0.504818 0.742447 0.890393
C21   C     C_R   0.502121 0.495182 0.257553 0.890393
C22   C     C_3   0.366990 0.583835 0.989190 -0.244972
C23   C     C_3   0.633010 0.416164 0.010810 -0.244972
C24   C     C_3   0.510371 0.645221 0.067980 0.452149
C25   C     C_3   0.489629 0.354779 0.932020 0.452149
C26   C     C_3   0.504452 0.494093 0.121280 -0.084011
Cl1   Cl    Cl    0.525679 0.836810 0.164038 -0.737679
Cl2   Cl    Cl    0.474321 0.163190 0.835962 -0.737679
H1    H     H_    0.260020 0.653619 0.977654 0.169794
H2    H     H_    0.299833 0.068026 0.181137 0.209753
H3    H     H_    0.260104 0.292488 0.330135 0.207623
H4    H     H_    0.255423 0.735684 0.695454 0.208626
H5    H     H_    0.211510 0.961998 0.850475 0.207536
H6    H     H_    0.934452 0.076935 0.912521 0.152679
H7    H     H_    0.700167 0.931974 0.818863 0.209753
H8    H     H_    0.739896 0.707512 0.669865 0.207623
H9    H     H_    0.739980 0.346381 0.022346 0.169794
H10   H     H_    0.246893 0.371927 0.080522 0.182561
H11   H     H_    0.753107 0.628073 0.919477 0.182561
H12   H     H_    0.690712 0.001807 0.490815 0.192924
H13   H     H_    0.309288 0.998192 0.509185 0.192924
H14   H     H_    0.744577 0.264316 0.304546 0.208626
H15   H     H_    0.788490 0.038002 0.149525 0.207536
H16   H     H_    0.065548 0.923065 0.087479 0.152679
N1    N     N_2   0.950320 0.457950 0.465730 -0.108793
N2    N     N_2   0.049680 0.542050 0.534270 -0.108793
O1    O     O_R   0.389250 0.738570 0.508410 -0.636293
O2    O     O_R   0.610750 0.261430 0.491590 -0.636293
O3    O     O_R   0.678390 0.711620 0.486450 -0.637826
O4    O     O_R   0.321610 0.288380 0.513550 -0.637826
O5    O     O_R   0.355460 0.513510 0.697030 -0.644133
O6    O     O_R   0.644540 0.486490 0.302970 -0.644133
O7    O     O_R   0.644600 0.486560 0.675070 -0.634755
O8    O     O_R   0.355400 0.513440 0.324930 -0.634755
Zn1   Zn    Zn3+2 0.306940 0.517990 0.514670 0.930953
Zn2   Zn    Zn3+2 0.693060 0.482010 0.485330 0.930953

loop_
_geom_bond_atom_site_label_1
_geom_bond_atom_site_label_2
_ccdc_geom_bond_type
N2    Zn1   S    
C2    C22   S    
C2    C4    S    
C21   C26   S    
C24   Cl1   S    
C22   H1    S    
C16   H5    S    
C20   O5    A    
O3    Zn2   S    
C9    C10   A    
C12   O4    A    
O4    Zn1   S    
N1    Zn2   S    
C4    H11   S    
C7    C13   A    
C12   O2    A    
O7    Zn2   S    
C17   C18   A    
C7    C8    A    
C14   N2    S    
C23   H9    S    
N1    N2    D    
C25   Cl2   S    
C11   C13   A    
C17   H6    S    
C5    C6    D    
C1    O3    A    
C1    C5    S    
C7    N1    S    
C24   C26   S    
C2    C25   S    
O5    Zn1   S    
C19   H8    S    
C23   C25   S    
C6    C12   S    
C21   O8    A    
C4    C24   S    
C22   C24   S    
C9    H15   S    
C16   C17   A    
C10   C11   A    
C10   H16   S    
C15   C16   A    
C3    C25   S    
C11   H2    S    
O1    Zn1   S    
C18   C19   A    
C18   H7    S    
C23   C26   S    
O2    Zn2   S    
C4    C23   S    
O8    Zn1   S    
C8    C9    A    
C3    C22   S    
C5    H12   S    
C14   C15   A    
C2    C20   S    
C14   C19   A    
C13   H3    S    
C21   O6    A    
C1    O1    A    
O6    Zn2   S    
C3    H10   S    
C8    H14   S    
C20   O7    A    
C6    H13   S    
C3    C26   S    
C15   H4    S    
