data_mof_unit_50485.cif
_audit_creation_date              2012-12-11T15:45:16-0500
_audit_creation_method            fapswitch 2.2
_symmetry_space_group_name_H-M    P1
_symmetry_Int_Tables_number       1
_space_group_crystal_system       triclinic
_cell_length_a                    8.441334
_cell_length_b                    19.015131
_cell_length_c                    22.898215
_cell_angle_alpha                 95.893759
_cell_angle_beta                  89.964203
_cell_angle_gamma                 94.435304
_cell_volume                      3644.98641519

loop_
_atom_site_label
_atom_site_type_symbol
_atom_type_description
_atom_site_fract_x
_atom_site_fract_y
_atom_site_fract_z
_atom_type_partial_charge
Ba1   Ba    Ba6+2 0.850680 0.532880 0.472010 1.731593
Ba2   Ba    Ba6+2 0.339140 0.467180 0.527990 1.687890
C1    C     C_3   0.657726 0.691651 0.206889 -0.298447
C2    C     C_3   0.709898 0.704194 0.271810 1.037995
C3    C     C_3   0.460537 0.278507 0.358135 0.707040
C4    C     C_3   0.361852 0.210828 0.371464 0.349748
C5    C     C_3   0.991375 0.277595 0.683939 0.278713
C6    C     C_3   0.015145 0.262412 0.747044 -0.298701
C7    C     C_3   0.461930 0.309338 0.728703 0.761722
C8    C     C_3   0.471068 0.314178 0.796082 0.859608
C9    C     C_R   0.312203 0.536950 0.331214 -0.356146
C10   C     C_R   0.100862 0.562608 0.936918 -0.154760
C11   C     C_R   0.049776 0.559690 0.877270 0.636416
C12   C     C_3   0.184937 0.702445 0.318208 0.196641
C13   C     C_R   0.966645 0.436186 0.876031 0.567215
C14   C     C_R   0.019060 0.436538 0.934957 -0.007577
C15   C     C_R   0.086336 0.500105 0.965607 -0.114199
C16   C     C_R   0.165823 0.626308 0.968720 0.360459
C17   C     C_R   0.222462 0.626454 0.026765 0.365480
C18   C     C_R   0.201775 0.564546 0.056593 -0.132515
C19   C     C_R   0.137361 0.501055 0.025304 -0.110338
C20   C     C_R   0.007149 0.374403 0.963759 -0.085508
C21   C     C_R   0.059836 0.375108 0.021765 -0.079130
C22   C     C_R   0.124230 0.438201 0.053515 -0.024009
C23   C     C_3   0.227554 0.741522 0.263622 -0.191940
C24   C     C_R   0.172700 0.439887 0.113129 0.629283
C25   C     C_R   0.241491 0.564894 0.117105 0.580721
C26   C     C_2   0.780341 0.487553 0.769997 -0.032989
C27   C     C_3   0.731367 0.490758 0.706121 -0.066666
C28   C     C_1   0.009679 0.509899 0.683447 0.043583
C29   C     C_2   0.056641 0.507394 0.738780 -0.124835
C30   C     C_2   0.936053 0.495734 0.785944 0.205442
C31   C     C_R   0.402734 0.536489 0.230944 -0.138426
C32   C     C_R   0.429470 0.555722 0.291023 -0.030478
C33   C     C_R   0.176055 0.493265 0.312552 0.019743
C34   C     C_3   0.258735 0.692573 0.651965 0.610354
C35   C     C_R   0.135871 0.487181 0.250714 0.406119
C36   C     C_R   0.253358 0.508365 0.209169 0.181548
C37   C     C_2   0.870354 0.479936 0.665745 -0.251016
C38   C     C_R   0.378610 0.704957 0.485933 -0.240809
C39   C     C_R   0.531926 0.724685 0.507683 0.041579
C40   C     C_R   0.592340 0.795609 0.509156 -0.144272
C41   C     C_R   0.501655 0.846909 0.488132 -0.065686
C42   C     C_R   0.347301 0.826534 0.463959 -0.108649
C43   C     C_R   0.286732 0.754063 0.462751 0.033826
C44   C     C_R   0.666235 0.951926 0.455703 -0.129233
C45   C     C_3   0.305512 0.713912 0.718181 -0.254647
C46   C     C_R   0.725205 0.023599 0.463990 -0.060827
C47   C     C_R   0.677855 0.067680 0.513954 -0.013670
C48   C     C_R   0.583975 0.036615 0.556948 0.407966
C49   C     C_R   0.525447 0.965374 0.547601 -0.112782
C50   C     C_R   0.565110 0.922578 0.497014 -0.014050
C51   C     C_R   0.867871 0.172943 0.545490 -0.078362
C52   C     C_R   0.907420 0.246229 0.551468 -0.006818
C53   C     C_R   0.653652 0.267189 0.511248 0.008878
C54   C     C_R   0.612281 0.193474 0.504837 -0.136828
C55   C     C_R   0.719886 0.145754 0.521632 0.053472
C56   C     C_3   0.945797 0.311609 0.309242 1.013021
C57   C     C_R   0.799110 0.292831 0.536071 -0.260862
C58   C     C_3   0.033617 0.269883 0.255812 -0.262024
C59   C     C_3   0.717459 0.630945 0.647221 0.180789
C60   C     C_3   0.763241 0.660921 0.710403 -0.253320
H1    H     H_    0.416286 0.749452 0.720182 0.041695
H2    H     H_    0.990198 0.285051 0.213611 0.114254
H3    H     H_    0.825878 0.615844 0.623642 0.073158
H4    H     H_    0.632384 0.583684 0.647584 0.023522
H5    H     H_    0.620626 0.740405 0.189934 0.098114
H6    H     H_    0.867473 0.635135 0.725075 0.059879
H7    H     H_    0.664586 0.648560 0.740516 0.093249
H8    H     H_    0.552822 0.653860 0.201555 0.095379
H9    H     H_    0.502023 0.267755 0.312436 -0.000495
H10   H     H_    0.306362 0.218122 0.415399 0.035575
H11   H     H_    0.265952 0.200088 0.338332 -0.111410
H12   H     H_    0.754956 0.670874 0.179267 0.054042
H13   H     H_    0.338981 0.721588 0.245242 0.116494
H14   H     H_    0.957643 0.333046 0.683835 0.036226
H15   H     H_    0.892803 0.239815 0.665323 0.000677
H16   H     H_    0.100603 0.303252 0.769728 0.103931
H17   H     H_    0.900203 0.263297 0.770490 0.171907
H18   H     H_    0.060792 0.209320 0.748206 0.116918
H19   H     H_    0.349090 0.330275 0.716343 -0.030934
H20   H     H_    0.359845 0.285244 0.810880 -0.196169
H21   H     H_    0.131157 0.648131 0.304357 0.024677
H22   H     H_    0.047778 0.325950 0.042015 0.117105
H23   H     H_    0.957212 0.324666 0.941380 0.102028
H24   H     H_    0.499222 0.542007 0.200350 0.068770
H25   H     H_    0.180768 0.516199 0.750896 0.115230
H26   H     H_    0.690135 0.484705 0.803461 0.134679
H27   H     H_    0.338277 0.547543 0.377676 0.073463
H28   H     H_    0.297604 0.696784 0.341469 -0.007925
H29   H     H_    0.854293 0.452450 0.621935 0.064316
H30   H     H_    0.500641 0.173149 0.484302 0.094777
H31   H     H_    0.701294 0.918746 0.417290 0.085321
H32   H     H_    0.707816 0.811558 0.528912 0.114673
H33   H     H_    0.449061 0.944106 0.580490 0.073785
H34   H     H_    0.952527 0.137355 0.558477 0.093117
H35   H     H_    0.833394 0.349114 0.538766 0.059863
H36   H     H_    0.331429 0.650391 0.486045 0.061324
H37   H     H_    0.353962 0.664695 0.628320 0.010110
N1    N     N_R   0.984633 0.497084 0.847496 -0.442679
N2    N     N_R   0.223440 0.503530 0.145413 -0.433250
O1    O     O_2   0.896730 0.461690 0.361000 -0.399959
O2    O     O_3   0.643248 0.681496 0.619660 -0.668405
O3    O     O_3   0.077569 0.739266 0.354780 -0.552275
O4    O     O_2   0.292960 0.538340 0.639040 -0.509208
O5    O     O_3   0.052540 0.537650 0.567960 -0.469841
O6    O     O_3   0.532200 0.411510 0.604930 -0.481470
O7    O     O_3   0.113515 0.650846 0.648008 -0.657828
O8    O     O_3   0.629030 0.416090 0.471500 -0.472511
O9    O     O_3   0.120120 0.375640 0.576470 -0.465409
O10   O     O_2   0.236438 0.250971 0.543976 -0.508719
O11   O     O_3   0.132725 0.267810 0.652538 -0.609399
O12   O     O_3   0.137170 0.462400 0.432040 -0.478679
O13   O     O_3   0.560670 0.583970 0.528500 -0.486032
O14   O     O_2   0.373560 0.329680 0.473470 -0.443373
O15   O     O_3   0.596315 0.290789 0.393838 -0.637122
O16   O     O_2   0.403648 0.450242 0.709249 -0.524047
O17   O     O_3   0.599472 0.345521 0.707273 -0.645434
O18   O     O_2   0.061795 0.613125 0.851855 -0.479853
O19   O     O_2   0.906897 0.381345 0.849895 -0.585569
O20   O     O_2   0.165867 0.384940 0.136515 -0.540396
O21   O     O_2   0.289188 0.620521 0.145083 -0.587865
O22   O     O_3   0.657500 0.588540 0.395070 -0.475348
O23   O     O_2   0.708866 0.509996 0.301280 -0.473114
O24   O     O_3   0.057595 0.346538 0.353469 -0.637085
O25   O     O_3   0.771654 0.640905 0.287430 -0.622086
O26   O     O_2   0.816140 0.670340 0.526560 -0.442653
O27   O     O_3   0.069580 0.624410 0.423530 -0.495073
O28   O     O_2   0.952836 0.748045 0.458774 -0.435775
P1    P     P_3+3 0.067040 0.441110 0.370020 1.133402
P2    P     P_3+3 0.640420 0.660110 0.543790 0.989437
P3    P     P_3+3 0.096877 0.716981 0.426712 1.055910
P4    P     P_3+3 0.122660 0.558950 0.629980 0.966429
P5    P     P_3+3 0.100562 0.284030 0.579902 0.955601
P6    P     P_3+3 0.634498 0.580132 0.318483 0.939495
P7    P     P_3+3 0.558665 0.325704 0.465467 0.995186
P8    P     P_3+3 0.561103 0.426864 0.681553 0.950269
O29   O     O_3   0.836353 0.758797 0.279171 -0.654894
C61   C     C_3   0.797763 0.824987 0.262150 0.092840
H38   H     H_    0.671578 0.835342 0.268904 0.120114
H39   H     H_    0.829738 0.828347 0.215402 0.089225
H40   H     H_    0.869919 0.867835 0.289032 0.081879
C62   C     C_2   0.348981 0.652459 0.750144 0.541454
H41   H     H_    0.381233 0.603962 0.726339 -0.034621
O30   O     O_2   0.366745 0.659393 0.803417 -0.487975
C63   C     C_2   0.179785 0.755689 0.749745 0.594100
H42   H     H_    0.155511 0.806687 0.735955 -0.017693
O31   O     O_2   0.104819 0.733864 0.790691 -0.501663
O32   O     O_3   0.850583 0.361296 0.286490 -0.600772
C64   C     C_3   0.734841 0.331380 0.244019 0.210081
H43   H     H_    0.704361 0.273633 0.244723 0.080919
H44   H     H_    0.624800 0.358875 0.250616 0.045798
H45   H     H_    0.776143 0.341544 0.199412 0.067558
O33   O     O_3   0.840061 0.262235 0.335707 -0.668653
C65   C     C_3   0.905940 0.233490 0.383855 0.300631
H46   H     H_    0.925780 0.274301 0.421943 0.010960
H47   H     H_    0.016937 0.208436 0.372130 -0.009950
H48   H     H_    0.818422 0.192178 0.397633 0.113365
C66   C     C_2   0.208342 0.287300 0.250630 0.510616
H49   H     H_    0.290190 0.246079 0.249625 -0.049049
O34   O     O_2   0.259326 0.346757 0.241758 -0.567914
C67   C     C_2   0.998345 0.190233 0.251220 0.440887
H50   H     H_    0.074086 0.157010 0.273029 0.000930
O35   O     O_2   0.881471 0.162276 0.223590 -0.540905
C68   C     C_2   0.804637 0.739582 0.715515 0.640970
H51   H     H_    0.892718 0.761741 0.686601 0.007631
O36   O     O_2   0.738579 0.778987 0.751528 -0.567973
O37   O     O_3   0.578444 0.722961 0.306706 -0.738683
C69   C     C_3   0.625012 0.748018 0.364591 0.229658
H52   H     H_    0.633641 0.806967 0.369647 0.046875
H53   H     H_    0.737989 0.728235 0.379043 0.127807
H54   H     H_    0.531523 0.728372 0.393248 -0.023444
O38   O     O_3   0.370260 0.338160 0.361291 -0.700465
C70   C     C_3   0.466929 0.399837 0.351110 0.245284
H55   H     H_    0.597009 0.395507 0.351692 0.098002
H56   H     H_    0.443858 0.442018 0.386088 0.051319
H57   H     H_    0.438500 0.416142 0.307971 0.035619
O39   O     O_3   0.460267 0.153722 0.367989 -0.661298
C71   C     C_3   0.368259 0.090570 0.376703 0.162771
H58   H     H_    0.278013 0.076713 0.341186 0.074127
H59   H     H_    0.309863 0.094362 0.420359 0.062363
H60   H     H_    0.447948 0.046724 0.375419 0.065675
O40   O     O_3   0.454828 0.236763 0.707009 -0.684798
C72   C     C_3   0.473079 0.228498 0.645436 0.284857
H61   H     H_    0.597255 0.216844 0.635022 0.042770
H62   H     H_    0.445363 0.275519 0.623328 0.055223
H63   H     H_    0.391144 0.183453 0.626833 0.133715
O41   O     O_3   0.604868 0.279632 0.811904 -0.614500
C73   C     C_3   0.599029 0.269323 0.872049 0.255528
H64   H     H_    0.493536 0.233797 0.881832 0.002307
H65   H     H_    0.600117 0.320642 0.900208 0.068746
H66   H     H_    0.706450 0.243269 0.883332 0.057072
O42   O     O_3   0.490369 0.386451 0.819270 -0.673812
C74   C     C_3   0.346985 0.409784 0.842693 0.079289
H67   H     H_    0.307001 0.379601 0.879844 0.041027
H68   H     H_    0.253510 0.405859 0.808181 0.048313
H69   H     H_    0.367301 0.466455 0.859937 0.095000
O43   O     O_3   0.291839 0.689226 0.054840 -0.570603
C75   C     C_3   0.456066 0.692869 0.042822 0.286594
H70   H     H_    0.513566 0.647428 0.058526 -0.003420
H71   H     H_    0.512727 0.742143 0.066683 0.075185
H72   H     H_    0.478712 0.695322 0.995160 0.048486
O44   O     O_3   0.182941 0.688760 0.942392 -0.564759
C76   C     C_3   0.052340 0.728595 0.958145 0.326964
H73   H     H_    0.937437 0.698488 0.944734 0.011107
H74   H     H_    0.061964 0.777031 0.934792 0.099890
H75   H     H_    0.052428 0.745843 0.006069 0.043515
O45   O     O_3   0.989029 0.456206 0.231322 -0.594279
C77   C     C_3   0.905229 0.503396 0.201151 0.298966
H76   H     H_    0.934125 0.500895 0.154106 -0.035233
H77   H     H_    0.922598 0.559011 0.221426 0.017900
H78   H     H_    0.777022 0.485997 0.200987 0.070912
C78   C     C_2   0.838631 0.048906 0.420134 0.502008
H79   H     H_    0.826233 0.027310 0.374289 0.008136
O46   O     O_2   0.952673 0.090288 0.435145 -0.630856
O47   O     O_3   0.543659 0.076638 0.607687 -0.667455
C79   C     C_3   0.648420 0.064515 0.652988 0.144956
H80   H     H_    0.774392 0.079229 0.641814 0.022343
H81   H     H_    0.633959 0.008417 0.663200 0.044417
H82   H     H_    0.619717 0.098512 0.693393 0.112485
C80   C     C_2   0.255902 0.881767 0.440508 0.482129
H83   H     H_    0.316221 0.932217 0.431782 -0.015041
O48   O     O_2   0.112747 0.873165 0.431736 -0.562055
C81   C     C_2   0.106780 0.724411 0.214990 0.618349
H84   H     H_    0.026475 0.677144 0.214016 -0.007873
O49   O     O_2   0.105287 0.760456 0.173809 -0.539401
C82   C     C_2   0.253469 0.820612 0.279329 0.561696
H85   H     H_    0.164961 0.849328 0.304331 0.050099
O50   O     O_2   0.372922 0.853475 0.262878 -0.588194
O51   O     O_3   0.228985 0.752905 0.623170 -0.648151
C83   C     C_3   0.357393 0.804924 0.625946 0.061155
H86   H     H_    0.351636 0.841992 0.666436 0.054126
H87   H     H_    0.343412 0.836185 0.588746 0.092054
H88   H     H_    0.474739 0.782625 0.622830 0.056688

loop_
_geom_bond_atom_site_label_1
_geom_bond_atom_site_label_2
_ccdc_geom_bond_type
C74   H68   S    
O44   C76   S    
Ba2   O8    S    
C68   H51   S    
C3    H9    S    
C53   C57   A    
C65   H47   S    
C61   H39   S    
C39   C40   A    
C17   C18   A    
C58   C66   S    
C13   N1    Am   
C31   H24   S    
C81   H84   S    
O39   C71   S    
C5    C6    S    
C78   H79   S    
C72   H61   S    
C79   H82   S    
C4    H10   S    
C35   C36   A    
C34   C45   S    
C26   C27   S    
C59   O2    S    
C22   C24   A    
C63   H42   S    
C36   N2    S    
C24   N2    Am   
C45   H1    S    
C28   C29   D    
C61   H40   S    
C41   C50   S    
C74   H69   S    
C34   O7    S    
O14   P7    D    
C56   C58   S    
C53   P7    S    
C52   P5    S    
C44   C50   A    
Ba2   O6    S    
C77   H78   S    
C47   C55   S    
C54   C55   A    
C23   C81   S    
C16   C17   A    
O13   P2    S    
C20   H23   S    
C73   H65   S    
C1    H12   S    
C70   H55   S    
C12   H28   S    
O26   P2    D    
C56   O33   S    
Ba1   O8    S    
O24   P1    S    
O5    P4    S    
C82   H85   S    
C72   H62   S    
C14   C15   A    
C64   H45   S    
C49   H33   S    
C10   C15   A    
C26   H26   S    
C75   H72   S    
C8    O41   S    
C21   C22   A    
Ba1   O27   S    
O43   C75   S    
C24   O20   D    
C34   H37   S    
O17   P8    S    
C7    C8    S    
C67   O35   D    
C56   O32   S    
Ba1   O5    S    
C5    H15   S    
C71   H60   S    
C74   H67   S    
C45   C63   S    
C75   H70   S    
C68   O36   D    
C80   O48   D    
C4    O39   S    
C51   H34   S    
C6    H16   S    
C7    O17   S    
C69   H53   S    
C66   H49   S    
C73   H64   S    
Ba1   O12   S    
C12   H21   S    
C59   H4    S    
C37   H29   S    
C11   O18   D    
C25   O21   D    
C77   H76   S    
C63   O31   D    
C52   C57   A    
C78   O46   D    
C38   C43   A    
C44   C46   A    
Ba2   P4    S    
C29   H25   S    
C21   H22   S    
C49   C50   A    
C69   H52   S    
O37   C69   S    
C26   C30   D    
C1    H8    S    
O47   C79   S    
Ba1   P1    S    
O12   P1    S    
C8    O42   S    
C39   P2    S    
C51   C55   A    
O45   C77   S    
C76   H73   S    
C48   C49   A    
C79   H80   S    
O38   C70   S    
C2    O29   S    
C23   C82   S    
O51   C83   S    
C15   C19   A    
C2    O37   S    
C60   H7    S    
O22   P6    S    
O41   C73   S    
C23   H13   S    
O6    P8    S    
C73   H66   S    
C41   C42   A    
Ba1   O22   S    
O40   C72   S    
C80   H83   S    
C7    O40   S    
C59   H3    S    
C6    H17   S    
Ba2   O14   S    
C9    H27   S    
C65   H48   S    
C12   O3    S    
C29   C30   S    
C70   H57   S    
C76   H75   S    
C48   O47   S    
C28   P4    S    
C27   C37   S    
C53   C54   A    
C66   O34   D    
C31   C32   A    
C83   H87   S    
C18   C19   A    
C33   P1    S    
C75   H71   S    
O33   C65   S    
C16   O44   S    
C56   O24   S    
O27   P3    S    
C38   C39   A    
C82   O50   D    
C76   H74   S    
O25   P6    S    
O42   C74   S    
C5    O11   S    
O3    P3    S    
C57   H35   S    
C69   H54   S    
C64   H44   S    
O9    P5    S    
Ba1   O13   S    
C1    C2    S    
C58   C67   S    
C65   H46   S    
C42   C43   A    
C4    H11   S    
O4    P4    D    
C67   H50   S    
Ba2   O12   S    
C62   O30   D    
C46   C78   S    
Ba2   O9    S    
C17   O43   S    
C14   C20   A    
O23   P6    D    
C33   C35   A    
C40   H32   S    
C3    O38   S    
C9    C32   A    
O16   P8    D    
Ba1   O26   S    
C45   C62   S    
O11   P5    S    
Ba1   P2    S    
C81   O49   D    
C8    H20   S    
C61   H38   S    
O10   P5    D    
C51   C52   A    
C5    H14   S    
O15   P7    S    
C18   C25   A    
C60   H6    S    
C79   H81   S    
C27   P8    S    
Ba2   O4    S    
C13   O19   D    
C31   C36   A    
C64   H43   S    
C72   H63   S    
C2    O25   S    
C58   H2    S    
O28   P3    D    
C11   N1    Am   
C9    C33   A    
C62   H41   S    
O7    P4    S    
C3    O15   S    
O32   C64   S    
C38   H36   S    
Ba2   O13   S    
C3    C4    S    
C44   H31   S    
C1    H5    S    
C32   P6    S    
C46   C47   A    
Ba1   Ba2   S    
C35   O45   S    
C25   N2    Am   
C28   C37   D    
C83   H88   S    
C12   C23   S    
C59   C60   S    
C70   H56   S    
O29   C61   S    
Ba2   O5    S    
C71   H58   S    
C30   N1    S    
C54   H30   S    
C60   C68   S    
C10   C11   A    
C43   P3    S    
C34   O51   S    
C47   C48   A    
C40   C41   A    
C19   C22   A    
C10   C16   A    
C83   H86   S    
C6    H18   S    
C77   H77   S    
C20   C21   A    
C42   C80   S    
C71   H59   S    
O2    P2    S    
Ba1   O1    S    
C13   C14   A    
C7    H19   S    
O8    P7    S    
O1    P1    D    
