data_mof_unit_29128.cif
_audit_creation_date              2012-12-10T18:47:41-0500
_audit_creation_method            fapswitch 2.2
_symmetry_space_group_name_H-M    P1
_symmetry_Int_Tables_number       1
_space_group_crystal_system       triclinic
_cell_length_a                    9.845872
_cell_length_b                    10.727354
_cell_length_c                    15.545745
_cell_angle_alpha                 90.210972
_cell_angle_beta                  66.823162
_cell_angle_gamma                 90.087596
_cell_volume                      1509.41986512

loop_
_atom_site_label
_atom_site_type_symbol
_atom_type_description
_atom_site_fract_x
_atom_site_fract_y
_atom_site_fract_z
_atom_type_partial_charge
C1    C     C_R   0.500006 0.740140 0.500156 0.872403
C2    C     C_R   0.499961 0.259858 0.499895 0.872742
C3    C     C_R   0.358816 0.619108 0.091576 -0.205733
C4    C     C_R   0.675869 0.481644 0.892610 -0.208675
C5    C     C_R   0.256742 0.637898 0.051812 -0.176328
C6    C     C_R   0.778731 0.464503 0.931920 -0.170939
C7    C     C_R   0.627049 0.936322 0.494571 -0.174792
C8    C     C_R   0.372829 0.063666 0.505637 -0.174164
C9    C     C_R   0.627081 0.063996 0.494343 -0.193429
C10   C     C_R   0.372794 0.935990 0.505869 -0.189956
C11   C     C_R   0.499954 0.127394 0.499903 -0.019389
C12   C     C_R   0.499948 0.872596 0.500261 -0.018105
C13   C     C_R   0.962349 0.419698 0.443978 -0.315433
C14   C     C_R   0.037624 0.580263 0.556062 -0.326916
C15   C     C_R   0.107253 0.419056 0.443767 0.529844
C16   C     C_R   0.892667 0.580804 0.556358 0.525374
C17   C     C_R   0.406413 0.501179 0.676633 0.896063
C18   C     C_R   0.593600 0.501741 0.323307 0.897323
C19   C     C_R   0.345852 0.515262 0.778847 -0.190971
C20   C     C_R   0.655543 0.507493 0.220496 -0.186298
C21   C     C_R   0.181381 0.614151 0.922501 -0.211841
C22   C     C_R   0.841917 0.460283 0.066845 -0.211791
C23   C     C_R   0.209822 0.575213 0.831307 0.425218
C24   C     C_R   0.802873 0.474343 0.162819 0.428950
C25   C     C_R   0.442568 0.487156 0.821611 -0.281814
C26   C     C_R   0.557458 0.539298 0.179262 -0.297595
C27   C     C_R   0.420887 0.534381 0.909826 0.098574
C28   C     C_R   0.597254 0.530984 0.082760 0.090886
C29   C     C_R   0.285672 0.595179 0.961757 0.080404
C30   C     C_R   0.739940 0.485727 0.026878 0.078829
C31   C     C_R   0.530547 0.523094 0.947235 0.082154
C32   C     C_R   0.494921 0.557916 0.041671 0.085299
H1    H     H_    0.154320 0.685918 0.091987 0.147328
H2    H     H_    0.888005 0.430843 0.888217 0.153820
H3    H     H_    0.446136 0.563281 0.224775 0.184257
H4    H     H_    0.537628 0.430726 0.782735 0.167794
H5    H     H_    0.078113 0.661316 0.962217 0.165763
H6    H     H_    0.952336 0.428405 0.023512 0.165980
H7    H     H_    0.329987 0.658160 0.160493 0.141977
H8    H     H_    0.715350 0.464917 0.818350 0.153936
H9    H     H_    0.726229 0.888026 0.490056 0.174541
H10   H     H_    0.273651 0.111962 0.510149 0.174618
H11   H     H_    0.726338 0.112551 0.489646 0.160232
H12   H     H_    0.273538 0.887431 0.510569 0.161017
H13   H     H_    0.933844 0.356067 0.399509 0.172533
H14   H     H_    0.066123 0.643902 0.600528 0.175402
N1    N     N_R   0.142780 0.500030 0.500020 -0.101267
N2    N     N_R   0.857220 0.499970 0.499980 -0.101751
O1    O     O_R   0.385370 0.683250 0.500010 -0.630720
O2    O     O_R   0.614630 0.316750 0.499990 -0.632070
O3    O     O_R   0.614700 0.683220 0.500000 -0.579659
O4    O     O_R   0.385300 0.316780 0.500000 -0.577617
O5    O     O_R   0.319830 0.500020 0.632250 -0.624397
O6    O     O_R   0.680170 0.499980 0.367750 -0.619502
O7    O     O_R   0.549160 0.499990 0.632240 -0.559048
O8    O     O_R   0.450840 0.500010 0.367760 -0.562950
Zn1   Zn    Zn3+2 0.346870 0.500020 0.500000 0.992749
Zn2   Zn    Zn3+2 0.653130 0.499980 0.500000 0.993756
O9    O     O_3   0.908841 0.448973 0.197322 -0.764837
H15   H     H_    0.906276 0.517705 0.240571 0.339947
O10   O     O_3   0.105807 0.602650 0.795538 -0.774237
H16   H     H_    0.098042 0.529844 0.758554 0.335926
O11   O     O_3   0.213872 0.337772 0.387676 -0.734988
H17   H     H_    0.171275 0.285962 0.351522 0.313014
O12   O     O_3   0.785899 0.661797 0.612695 -0.735388
H18   H     H_    0.828254 0.713128 0.649235 0.313952

loop_
_geom_bond_atom_site_label_1
_geom_bond_atom_site_label_2
_ccdc_geom_bond_type
C21   C29   A    
C13   N2    A    
C19   C23   A    
N2    Zn2   S    
C14   N1    A    
C14   C16   A    
C18   O8    A    
N1    Zn1   S    
C1    O3    A    
C17   O7    A    
C26   C28   A    
C31   C32   A    
C15   N1    A    
C3    C5    A    
O2    Zn2   S    
C16   N2    A    
C28   C30   A    
C17   O5    A    
C3    H7    S    
O9    H15   S    
C14   H14   S    
O3    Zn2   S    
C13   H13   S    
C9    C11   A    
O10   H16   S    
C1    C12   S    
C2    O4    A    
C8    C11   A    
C2    C11   S    
C10   C12   A    
C28   C32   A    
C8    C10   A    
C21   H5    S    
C17   C19   S    
C8    H10   S    
C5    C29   A    
C13   C15   A    
C21   C23   A    
C3    C32   A    
C19   C25   A    
C22   C24   A    
C7    C12   A    
C9    H11   S    
C4    C31   A    
C27   C29   A    
O4    Zn1   S    
C18   O6    A    
C25   H4    S    
C10   H12   S    
O11   H17   S    
C22   H6    S    
C6    H2    S    
C26   H3    S    
C23   O10   S    
O1    Zn1   S    
O8    Zn1   S    
C27   C31   A    
C18   C20   S    
C4    C6    A    
O12   H18   S    
O6    Zn2   S    
O7    Zn2   S    
C2    O2    A    
C7    C9    A    
C15   O11   S    
O5    Zn1   S    
C16   O12   S    
C22   C30   A    
C6    C30   A    
C1    O1    A    
C20   C24   A    
C24   O9    S    
C4    H8    S    
C7    H9    S    
C20   C26   A    
C25   C27   A    
C5    H1    S    
