data_mof_unit_63048.cif
_audit_creation_date              2012-12-10T16:54:11-0500
_audit_creation_method            fapswitch 2.2
_symmetry_space_group_name_H-M    P1
_symmetry_Int_Tables_number       1
_space_group_crystal_system       triclinic
_cell_length_a                    18.543578
_cell_length_b                    18.539154
_cell_length_c                    42.860762
_cell_angle_alpha                 90.029586
_cell_angle_beta                  89.99624
_cell_angle_gamma                 90.018645
_cell_volume                      14734.766346

loop_
_atom_site_label
_atom_site_type_symbol
_atom_type_description
_atom_site_fract_x
_atom_site_fract_y
_atom_site_fract_z
_atom_type_partial_charge
C1    C     C_R   0.500030 0.000012 0.584240 0.824602
C2    C     C_R   0.000002 0.499945 0.584237 0.825824
C3    C     C_R   0.000023 0.500012 0.084242 0.829093
C4    C     C_R   0.500002 0.999946 0.084238 0.826077
C5    C     C_R   0.000453 0.500268 0.718661 0.379485
C6    C     C_R   0.500588 0.000028 0.718662 0.379449
C7    C     C_R   0.500451 0.000273 0.218665 0.377681
C8    C     C_R   0.000377 0.500055 0.218698 0.323671
C9    C     C_R   0.500520 0.000516 0.281869 0.356829
C10   C     C_R   0.000367 0.500045 0.281892 0.343353
C11   C     C_R   0.000522 0.500510 0.781865 0.357339
C12   C     C_R   0.500544 0.999986 0.781866 0.357272
C13   C     C_R   0.938545 0.523048 0.667877 0.482594
C14   C     C_R   0.523541 0.938357 0.667807 0.484478
C15   C     C_R   0.061882 0.476891 0.667802 0.485077
C16   C     C_R   0.477479 0.061755 0.667874 0.483154
C17   C     C_R   0.438420 0.022708 0.167881 0.479709
C18   C     C_R   0.019609 0.437193 0.167776 0.490582
C19   C     C_R   0.562007 0.977239 0.167807 0.482163
C20   C     C_R   0.981021 0.562914 0.167818 0.489415
C21   C     C_R   0.938124 0.520276 0.635143 -0.291388
C22   C     C_R   0.520679 0.938052 0.635076 -0.296071
C23   C     C_R   0.062051 0.479472 0.635068 -0.295427
C24   C     C_R   0.479968 0.062035 0.635138 -0.291133
C25   C     C_R   0.438016 0.019943 0.135148 -0.291869
C26   C     C_R   0.020066 0.437855 0.135107 -0.290354
C27   C     C_R   0.562160 0.979809 0.135073 -0.295966
C28   C     C_R   0.980354 0.562227 0.135151 -0.284410
C29   C     C_R   0.000043 0.499880 0.618611 -0.138769
C30   C     C_R   0.500206 0.000031 0.618613 -0.138412
C31   C     C_R   0.500044 0.999882 0.118614 -0.137911
C32   C     C_R   0.000139 0.500031 0.118616 -0.148012
C33   C     C_R   0.000298 0.500077 0.684295 -0.142345
C34   C     C_R   0.500571 0.000052 0.684296 -0.142363
C35   C     C_R   0.500297 0.000082 0.184300 -0.140030
C36   C     C_R   0.000358 0.500057 0.184346 -0.152312
C37   C     C_R   0.500001 0.000038 0.415920 0.934293
C38   C     C_R   0.000017 0.499987 0.415920 0.935061
C39   C     C_R   0.000001 0.500038 0.915919 0.933876
C40   C     C_R   0.500023 0.999986 0.915917 0.933642
C41   C     C_R   0.362357 0.139471 0.499474 0.697792
C42   C     C_R   0.862253 0.360617 0.500534 0.710620
C43   C     C_R   0.639448 0.862342 0.500594 0.710970
C44   C     C_R   0.139509 0.637580 0.499418 0.707708
C45   C     C_R   0.637626 0.139486 0.499449 0.705012
C46   C     C_R   0.137663 0.360553 0.500581 0.701803
C47   C     C_R   0.360616 0.862262 0.500546 0.719843
C48   C     C_R   0.860509 0.637604 0.499445 0.701489
C49   C     C_R   0.862358 0.639473 0.999474 0.699805
C50   C     C_R   0.362252 0.860618 0.000534 0.711000
C51   C     C_R   0.139433 0.362326 0.000582 0.711343
C52   C     C_R   0.639508 0.137581 0.999418 0.708054
C53   C     C_R   0.137625 0.639486 0.999448 0.704820
C54   C     C_R   0.637663 0.860554 0.000580 0.701181
C55   C     C_R   0.860614 0.362264 0.000548 0.720221
C56   C     C_R   0.360505 0.137601 0.999443 0.701649
C57   C     C_2   0.192142 0.752255 0.484407 -0.269887
C58   C     C_2   0.247702 0.192128 0.484438 -0.276095
C59   C     C_2   0.803289 0.252257 0.481564 -0.272163
C60   C     C_2   0.748108 0.803631 0.481851 -0.271406
C61   C     C_2   0.808028 0.752438 0.484603 -0.271767
C62   C     C_2   0.752169 0.192236 0.484275 -0.273157
C63   C     C_2   0.196559 0.252105 0.481732 -0.275901
C64   C     C_2   0.252128 0.803403 0.481655 -0.266462
C65   C     C_2   0.692129 0.252268 0.984417 -0.268434
C66   C     C_2   0.747719 0.692148 0.984423 -0.275629
C67   C     C_2   0.303277 0.752270 0.981557 -0.271330
C68   C     C_2   0.248021 0.303548 0.981793 -0.271060
C69   C     C_2   0.307958 0.252369 0.984539 -0.272546
C70   C     C_2   0.252160 0.692246 0.984267 -0.272228
C71   C     C_2   0.696583 0.752131 0.981719 -0.275945
C72   C     C_2   0.752111 0.303419 0.981665 -0.265747
C73   C     C_2   0.201473 0.685009 0.495396 0.480906
C74   C     C_2   0.314763 0.201337 0.495671 0.483527
C75   C     C_2   0.813389 0.299874 0.504817 0.474972
C76   C     C_2   0.700296 0.813667 0.505017 0.481219
C77   C     C_2   0.798615 0.685173 0.495564 0.478066
C78   C     C_2   0.685086 0.201404 0.495495 0.486534
C79   C     C_2   0.186271 0.299652 0.504990 0.483168
C80   C     C_2   0.299909 0.813354 0.504843 0.473483
C81   C     C_2   0.701468 0.185013 0.995396 0.480967
C82   C     C_2   0.814767 0.701343 0.995672 0.484280
C83   C     C_2   0.313384 0.799878 0.004814 0.475092
C84   C     C_2   0.200262 0.313626 0.004978 0.478832
C85   C     C_2   0.298596 0.185148 0.995559 0.478170
C86   C     C_2   0.185081 0.701407 0.995494 0.485924
C87   C     C_2   0.686265 0.799646 0.004987 0.482069
C88   C     C_2   0.799906 0.313356 0.004849 0.473801
C89   C     C_R   0.476630 0.938836 0.365380 0.043372
C90   C     C_R   0.937797 0.479124 0.365431 0.041168
C91   C     C_R   0.523404 0.061824 0.365539 0.044009
C92   C     C_R   0.062549 0.520869 0.365507 0.042823
C93   C     C_R   0.976379 0.438930 0.865377 0.043532
C94   C     C_R   0.438836 0.976402 0.865405 0.043054
C95   C     C_R   0.023656 0.561726 0.865536 0.044142
C96   C     C_R   0.561671 0.023515 0.865509 0.044711
C97   C     C_R   0.475009 0.939533 0.332648 0.458479
C98   C     C_R   0.938368 0.477375 0.332695 0.462588
C99   C     C_R   0.525310 0.061385 0.332801 0.461591
C100  C     C_R   0.062168 0.522613 0.332768 0.462883
C101  C     C_R   0.974759 0.439634 0.832645 0.457480
C102  C     C_R   0.439555 0.974609 0.832673 0.459172
C103  C     C_R   0.025563 0.561276 0.832797 0.460577
C104  C     C_R   0.561241 0.025252 0.832771 0.459489
C105  C     C_R   0.500290 0.000492 0.316237 -0.240618
C106  C     C_R   0.000314 0.499994 0.316251 -0.236773
C107  C     C_R   0.000292 0.500488 0.816234 -0.240467
C108  C     C_R   0.500465 0.999924 0.816234 -0.240632
C109  C     C_R   0.500009 0.000233 0.381805 -0.253222
C110  C     C_R   0.000128 0.499972 0.381809 -0.251776
C111  C     C_R   0.000009 0.500232 0.881803 -0.253095
C112  C     C_R   0.500180 0.999960 0.881802 -0.252416
H1    H     H_    0.139502 0.769963 0.476351 0.141548
H2    H     H_    0.230263 0.139653 0.476034 0.142288
H3    H     H_    0.835107 0.255604 0.460330 0.155680
H4    H     H_    0.744951 0.835495 0.460631 0.149186
H5    H     H_    0.860640 0.770031 0.476448 0.141329
H6    H     H_    0.769753 0.139694 0.476019 0.142795
H7    H     H_    0.164963 0.255550 0.460441 0.149858
H8    H     H_    0.255284 0.835389 0.460467 0.154928
H9    H     H_    0.639483 0.269979 0.976369 0.141818
H10   H     H_    0.730287 0.639683 0.976004 0.142524
H11   H     H_    0.335092 0.755625 0.960322 0.156479
H12   H     H_    0.244809 0.335370 0.960563 0.149183
H13   H     H_    0.360539 0.269941 0.976339 0.141740
H14   H     H_    0.269743 0.639708 0.976007 0.143012
H15   H     H_    0.665018 0.755608 0.960421 0.149582
H16   H     H_    0.755251 0.335422 0.960482 0.155185
H17   H     H_    0.889461 0.534672 0.622654 0.190630
H18   H     H_    0.535035 0.889417 0.622533 0.189839
H19   H     H_    0.110615 0.464977 0.622517 0.189743
H20   H     H_    0.465507 0.110671 0.622642 0.190543
H21   H     H_    0.389271 0.034076 0.122662 0.190465
H22   H     H_    0.036185 0.389522 0.122720 0.194447
H23   H     H_    0.610806 0.965576 0.122526 0.189554
H24   H     H_    0.964180 0.610559 0.122801 0.195711
N1    N     N_R   0.526035 0.942812 0.265816 -0.121082
N2    N     N_R   0.944329 0.528917 0.265832 -0.119807
N3    N     N_R   0.475005 0.058119 0.265777 -0.121509
N4    N     N_R   0.056418 0.471183 0.265819 -0.120029
N5    N     N_R   0.025771 0.442689 0.765812 -0.121904
N6    N     N_R   0.442829 0.025312 0.765796 -0.122045
N7    N     N_R   0.975273 0.558230 0.765773 -0.122306
N8    N     N_R   0.558291 0.974685 0.765792 -0.122133
N9    N     N_R   0.025944 0.442667 0.734764 -0.143760
N10   N     N_R   0.442948 0.025534 0.734748 -0.143906
N11   N     N_R   0.975041 0.558014 0.734723 -0.143642
N12   N     N_R   0.558215 0.974502 0.734740 -0.143476
N13   N     N_R   0.526208 0.942791 0.234767 -0.143503
N14   N     N_R   0.944453 0.529143 0.234782 -0.121438
N15   N     N_R   0.474774 0.057902 0.234727 -0.143385
N16   N     N_R   0.056304 0.470968 0.234767 -0.121661
O1    O     O_3   0.500000 0.000000 0.500000 -0.490540
O2    O     O_3   0.000000 0.500000 0.500000 -0.489515
O3    O     O_3   1.000000 0.500000 0.000000 -0.490304
O4    O     O_3   0.500000 0.000000 0.000000 -0.489423
O5    O     O_R   0.500000 0.939850 0.569320 -0.646374
O6    O     O_R   0.060150 0.500000 0.569320 -0.641735
O7    O     O_R   0.500000 0.060150 0.569320 -0.639511
O8    O     O_R   0.939850 0.500000 0.569320 -0.642799
O9    O     O_R   1.000000 0.439850 0.069320 -0.647524
O10   O     O_R   0.560150 0.000000 0.069320 -0.642027
O11   O     O_R   1.000000 0.560150 0.069320 -0.640580
O12   O     O_R   0.439850 0.000000 0.069320 -0.642962
O13   O     O_R   0.439930 0.000000 0.430670 -0.619946
O14   O     O_R   1.000000 0.439930 0.430670 -0.618467
O15   O     O_R   0.560070 0.000000 0.430670 -0.618324
O16   O     O_R   0.000000 0.560070 0.430670 -0.620597
O17   O     O_R   0.939930 0.500000 0.930670 -0.619997
O18   O     O_R   0.500000 0.939930 0.930670 -0.618225
O19   O     O_R   0.060070 0.500000 0.930670 -0.618311
O20   O     O_R   0.500000 0.060070 0.930670 -0.620313
O21   O     O_R   0.415450 0.144560 0.518170 -0.602019
O22   O     O_R   0.855440 0.415450 0.518170 -0.601193
O23   O     O_R   0.584550 0.855440 0.518170 -0.598076
O24   O     O_R   0.144560 0.584550 0.518170 -0.599081
O25   O     O_R   0.584550 0.144560 0.518170 -0.600019
O26   O     O_R   0.144560 0.415450 0.518170 -0.603160
O27   O     O_R   0.415450 0.855440 0.518170 -0.596067
O28   O     O_R   0.855440 0.584550 0.518170 -0.601417
O29   O     O_R   0.915450 0.644560 0.018170 -0.600936
O30   O     O_R   0.355440 0.915450 0.018170 -0.601814
O31   O     O_R   0.084550 0.355440 0.018170 -0.597803
O32   O     O_R   0.644560 0.084550 0.018170 -0.599736
O33   O     O_R   0.084550 0.644560 0.018170 -0.601935
O34   O     O_R   0.644560 0.915450 0.018170 -0.603359
O35   O     O_R   0.915450 0.355440 0.018170 -0.597726
O36   O     O_R   0.355440 0.084550 0.018170 -0.601303
O37   O     O_R   0.644640 0.915430 0.481820 -0.670300
O38   O     O_R   0.084570 0.644640 0.481820 -0.662978
O39   O     O_R   0.355360 0.084570 0.481820 -0.670659
O40   O     O_R   0.915430 0.355360 0.481820 -0.666615
O41   O     O_R   0.355360 0.915430 0.481820 -0.665845
O42   O     O_R   0.915430 0.644640 0.481820 -0.667673
O43   O     O_R   0.644640 0.084570 0.481820 -0.664937
O44   O     O_R   0.084570 0.355360 0.481820 -0.670830
O45   O     O_R   0.144640 0.415430 0.981820 -0.670260
O46   O     O_R   0.584570 0.144640 0.981820 -0.662124
O47   O     O_R   0.855360 0.584570 0.981820 -0.670960
O48   O     O_R   0.415430 0.855360 0.981820 -0.665872
O49   O     O_R   0.855360 0.415430 0.981820 -0.665296
O50   O     O_R   0.415430 0.144640 0.981820 -0.667922
O51   O     O_R   0.144640 0.584570 0.981820 -0.664374
O52   O     O_R   0.584570 0.855360 0.981820 -0.670832
Zn1   Zn    Zn3+2 0.414160 0.000000 0.474030 0.983064
Zn2   Zn    Zn3+2 0.000000 0.414160 0.474030 0.979488
Zn3   Zn    Zn3+2 0.585840 0.000000 0.474030 0.984432
Zn4   Zn    Zn3+2 0.000000 0.585840 0.474030 0.986515
Zn5   Zn    Zn3+2 0.914160 0.500000 0.974030 0.983772
Zn6   Zn    Zn3+2 0.500000 0.914160 0.974030 0.979641
Zn7   Zn    Zn3+2 0.085840 0.500000 0.974030 0.984722
Zn8   Zn    Zn3+2 0.500000 0.085840 0.974030 0.986746
Zn9   Zn    Zn3+2 0.500000 0.085780 0.525960 1.001927
Zn10  Zn    Zn3+2 0.914220 0.500000 0.525960 1.002989
Zn11  Zn    Zn3+2 0.500000 0.914220 0.525960 1.009319
Zn12  Zn    Zn3+2 0.085780 0.500000 0.525960 1.003771
Zn13  Zn    Zn3+2 1.000000 0.585780 0.025960 1.001587
Zn14  Zn    Zn3+2 0.414220 0.000000 0.025960 1.002512
Zn15  Zn    Zn3+2 1.000000 0.414220 0.025960 1.008425
Zn16  Zn    Zn3+2 0.585780 0.000000 0.025960 1.003048
O53   O     O_3   0.269620 0.659280 0.502777 -0.537322
C113  C     C_3   0.292970 0.613271 0.478593 -0.230096
H25   H     H_    0.293711 0.641717 0.455710 0.162618
H26   H     H_    0.259033 0.563878 0.477150 0.153009
H27   H     H_    0.348957 0.595882 0.483718 0.199971
O54   O     O_3   0.340303 0.269262 0.503594 -0.533054
C114  C     C_3   0.384135 0.294754 0.479083 -0.255742
H28   H     H_    0.353163 0.298832 0.456897 0.155777
H29   H     H_    0.432521 0.260120 0.475791 0.139071
H30   H     H_    0.403304 0.349691 0.485134 0.198275
O55   O     O_3   0.778147 0.292213 0.533182 -0.526903
C115  C     C_3   0.827154 0.264124 0.555194 -0.289853
H31   H     H_    0.871398 0.302998 0.560190 0.143511
H32   H     H_    0.849711 0.211474 0.547350 0.134708
H33   H     H_    0.797863 0.254461 0.577368 0.204913
O56   O     O_3   0.707765 0.778339 0.533372 -0.526067
C116  C     C_3   0.734182 0.827666 0.555668 -0.306514
H34   H     H_    0.694123 0.870800 0.560679 0.145481
H35   H     H_    0.786389 0.851720 0.548117 0.139869
H36   H     H_    0.744135 0.798224 0.577776 0.196140
O57   O     O_3   0.730488 0.659685 0.503182 -0.536205
C117  C     C_3   0.706853 0.612949 0.479311 -0.239682
H37   H     H_    0.740535 0.563366 0.478168 0.154263
H38   H     H_    0.706162 0.640616 0.456250 0.152165
H39   H     H_    0.650800 0.595968 0.484583 0.201994
O58   O     O_3   0.659223 0.269369 0.503105 -0.535054
C118  C     C_3   0.616817 0.294718 0.478105 -0.244756
H40   H     H_    0.568927 0.259715 0.474162 0.138647
H41   H     H_    0.649199 0.299198 0.456311 0.167002
H42   H     H_    0.596859 0.349454 0.483996 0.195517
O59   O     O_3   0.221227 0.291822 0.533417 -0.525862
C119  C     C_3   0.171513 0.265593 0.555576 -0.310188
H43   H     H_    0.147119 0.213628 0.547889 0.138467
H44   H     H_    0.128663 0.305955 0.560583 0.144301
H45   H     H_    0.200678 0.255219 0.577718 0.195782
O60   O     O_3   0.292483 0.777869 0.533158 -0.527038
C120  C     C_3   0.264308 0.826627 0.555274 -0.286398
H46   H     H_    0.211529 0.849002 0.547528 0.135855
H47   H     H_    0.303006 0.871022 0.560280 0.144764
H48   H     H_    0.254900 0.797153 0.577419 0.205497
O61   O     O_3   0.769620 0.159275 0.002762 -0.538121
C121  C     C_3   0.792963 0.113318 0.978559 -0.232073
H49   H     H_    0.793698 0.141814 0.955687 0.163560
H50   H     H_    0.759022 0.063930 0.977098 0.152952
H51   H     H_    0.848950 0.095917 0.983674 0.199421
O62   O     O_3   0.840295 0.769260 0.003615 -0.532569
C122  C     C_3   0.884170 0.794776 0.979123 -0.258182
H52   H     H_    0.853240 0.798866 0.956927 0.155386
H53   H     H_    0.932567 0.760151 0.975845 0.139173
H54   H     H_    0.903320 0.849711 0.985189 0.198129
O63   O     O_3   0.278141 0.792212 0.033178 -0.528018
C123  C     C_3   0.327144 0.764120 0.055190 -0.294051
H55   H     H_    0.371388 0.802994 0.060188 0.144482
H56   H     H_    0.349703 0.711472 0.047345 0.136501
H57   H     H_    0.297851 0.754453 0.077363 0.202435
O64   O     O_3   0.207801 0.278403 0.033350 -0.528384
C124  C     C_3   0.234922 0.327665 0.055512 -0.291588
H58   H     H_    0.195354 0.371266 0.060502 0.146614
H59   H     H_    0.287309 0.351099 0.047832 0.138075
H60   H     H_    0.244765 0.298334 0.077656 0.201772
O65   O     O_3   0.230501 0.159669 0.003234 -0.535731
C125  C     C_3   0.206735 0.112979 0.979371 -0.241886
H61   H     H_    0.240433 0.063415 0.978166 0.153853
H62   H     H_    0.205884 0.140703 0.956325 0.151640
H63   H     H_    0.150723 0.095961 0.984703 0.201787
O66   O     O_3   0.159213 0.769368 0.003106 -0.536223
C126  C     C_3   0.116845 0.794739 0.978100 -0.246441
H64   H     H_    0.068969 0.759730 0.974132 0.138924
H65   H     H_    0.149264 0.799254 0.956317 0.167800
H66   H     H_    0.096864 0.849463 0.983997 0.194990
O67   O     O_3   0.721175 0.791767 0.033421 -0.526513
C127  C     C_3   0.671399 0.765602 0.055569 -0.301818
H67   H     H_    0.646924 0.713685 0.047871 0.138514
H68   H     H_    0.628613 0.806032 0.060577 0.142792
H69   H     H_    0.700528 0.755161 0.077714 0.200467
O68   O     O_3   0.792506 0.277833 0.033157 -0.528279
C128  C     C_3   0.764492 0.326596 0.055309 -0.292900
H70   H     H_    0.711748 0.349114 0.047597 0.138976
H71   H     H_    0.803303 0.370887 0.060324 0.145444
H72   H     H_    0.755067 0.297083 0.077443 0.202616
I1    I     I_    0.444976 0.843134 0.389434 -0.309911
I2    I     I_    0.841037 0.451452 0.389607 -0.331078
I3    I     I_    0.554546 0.157417 0.389878 -0.350592
I4    I     I_    0.159093 0.548799 0.389815 -0.338817
I5    I     I_    0.944356 0.343341 0.889427 -0.310362
I6    I     I_    0.343149 0.944863 0.889511 -0.330712
I7    I     I_    0.055163 0.657211 0.889868 -0.350635
I8    I     I_    0.657092 0.055258 0.889791 -0.338900
O69   O     O_3   0.451223 0.879129 0.316724 -0.558983
C129  C     C_3   0.377181 0.887735 0.310119 -0.222814
H73   H     H_    0.344927 0.894200 0.331848 0.167426
H74   H     H_    0.357637 0.838466 0.298102 0.196941
H75   H     H_    0.367603 0.934174 0.294224 0.150950
O70   O     O_3   0.877002 0.456156 0.316801 -0.556471
C130  C     C_3   0.882470 0.381809 0.310152 -0.229518
H76   H     H_    0.887706 0.349278 0.331859 0.170100
H77   H     H_    0.928357 0.370315 0.294187 0.144940
H78   H     H_    0.832372 0.364348 0.298193 0.196337
O71   O     O_3   0.549123 0.121940 0.317022 -0.558481
C131  C     C_3   0.623264 0.113568 0.310567 -0.220846
H79   H     H_    0.633156 0.067228 0.294632 0.150243
H80   H     H_    0.655276 0.107091 0.332358 0.168927
H81   H     H_    0.642817 0.162945 0.298657 0.196964
O72   O     O_3   0.123611 0.543866 0.316944 -0.556347
C132  C     C_3   0.118147 0.618212 0.310326 -0.229142
H82   H     H_    0.112752 0.650737 0.332041 0.170482
H83   H     H_    0.072357 0.629686 0.294313 0.144816
H84   H     H_    0.168313 0.635703 0.298433 0.196335
O73   O     O_3   0.950722 0.379330 0.816722 -0.560227
C133  C     C_3   0.876715 0.388240 0.810120 -0.219413
H85   H     H_    0.844492 0.394833 0.831851 0.167580
H86   H     H_    0.856966 0.339054 0.798102 0.198183
H87   H     H_    0.867324 0.434721 0.794227 0.151195
O74   O     O_3   0.379218 0.950634 0.816774 -0.559974
C134  C     C_3   0.387933 0.876546 0.810239 -0.218542
H88   H     H_    0.338728 0.856856 0.798233 0.198171
H89   H     H_    0.394392 0.844432 0.832000 0.168244
H90   H     H_    0.434409 0.866929 0.794360 0.150851
O75   O     O_3   0.049628 0.621732 0.817018 -0.559719
C135  C     C_3   0.123735 0.613054 0.810567 -0.217503
H91   H     H_    0.155715 0.606451 0.832359 0.169072
H92   H     H_    0.143492 0.662347 0.798655 0.198186
H93   H     H_    0.133441 0.566669 0.794635 0.150491
O76   O     O_3   0.621702 0.049225 0.816968 -0.559802
C136  C     C_3   0.613042 0.123313 0.810452 -0.218014
H94   H     H_    0.606398 0.155432 0.832215 0.168652
H95   H     H_    0.566701 0.132928 0.794506 0.150700
H96   H     H_    0.662348 0.143002 0.798529 0.198201
O77   O     O_3   0.876532 0.541137 0.684112 -0.588251
C137  C     C_3   0.860572 0.614641 0.679097 -0.261537
H97   H     H_    0.839708 0.623796 0.655123 0.155021
H98   H     H_    0.908155 0.649810 0.683691 0.158752
H99   H     H_    0.817521 0.630929 0.695629 0.199675
O78   O     O_3   0.541713 0.876283 0.683971 -0.587080
C138  C     C_3   0.615174 0.860333 0.678850 -0.264357
H100  H     H_    0.650358 0.907910 0.683448 0.157825
H101  H     H_    0.624211 0.839556 0.654844 0.152453
H102  H     H_    0.631542 0.817209 0.695320 0.200459
O79   O     O_3   0.123989 0.458779 0.683954 -0.586213
C139  C     C_3   0.139854 0.385248 0.678912 -0.265997
H103  H     H_    0.160555 0.376021 0.654910 0.152192
H104  H     H_    0.092269 0.350131 0.683564 0.156982
H105  H     H_    0.182997 0.368954 0.695388 0.200905
O80   O     O_3   0.459544 0.123857 0.684097 -0.587321
C140  C     C_3   0.386029 0.139843 0.679160 -0.263234
H106  H     H_    0.350876 0.092278 0.683806 0.157824
H107  H     H_    0.376720 0.160657 0.655190 0.154650
H108  H     H_    0.369882 0.182954 0.695698 0.200180
O81   O     O_3   0.376307 0.040447 0.184116 -0.592500
C141  C     C_3   0.359985 0.113879 0.179125 -0.250605
H109  H     H_    0.339119 0.122980 0.155148 0.156439
H110  H     H_    0.407382 0.149278 0.183750 0.159544
H111  H     H_    0.316824 0.129911 0.195650 0.203218
O82   O     O_3   0.040335 0.375452 0.183448 -0.584668
C142  C     C_3   0.979945 0.329615 0.185959 -0.277857
H112  H     H_    0.960860 0.311664 0.162588 0.164805
H113  H     H_    0.935280 0.356026 0.199051 0.154981
H114  H     H_    0.995984 0.280788 0.199194 0.200153
O83   O     O_3   0.624213 0.959478 0.183959 -0.590465
C143  C     C_3   0.640438 0.886018 0.178942 -0.254761
H115  H     H_    0.661138 0.876838 0.154937 0.153596
H116  H     H_    0.593039 0.850673 0.183627 0.157733
H117  H     H_    0.683692 0.869981 0.195411 0.204569
O84   O     O_3   0.960381 0.624669 0.183528 -0.584185
C144  C     C_3   0.020851 0.670390 0.186086 -0.276965
H118  H     H_    0.040033 0.688298 0.162730 0.165177
H119  H     H_    0.065430 0.643898 0.199187 0.154854
H120  H     H_    0.004870 0.719252 0.199333 0.200010

loop_
_geom_bond_atom_site_label_1
_geom_bond_atom_site_label_2
_ccdc_geom_bond_type
C101  C107  A    
N6    N10   A    
O67   C127  S    
C40   O20   A    
O1    Zn9   S    
C125  H61   S    
C2    C29   S    
O7    Zn9   S    
C119  H44   S    
C51   O31   A    
C46   C79   S    
C6    N10   A    
O63   C123  S    
C55   C88   S    
C39   O19   A    
C51   O45   A    
C44   O38   A    
C41   C74   S    
C43   O23   A    
O72   C132  S    
C117  H38   S    
C126  H65   S    
C45   C78   S    
C25   H21   S    
N4    N16   A    
C37   C109  S    
N5    N9    A    
C97   C105  A    
C70   H14   S    
C39   C111  S    
C84   O64   S    
C85   O65   S    
C22   H18   S    
C86   O66   S    
C10   N4    A    
C95   I7    S    
C50   C83   S    
C64   H8    S    
C129  H74   S    
O5    Zn11  S    
C117  H39   S    
C133  H85   S    
C27   C31   A    
C131  H81   S    
O25   Zn9   S    
C28   C32   A    
C5    N9    A    
C135  H91   S    
C93   C101  A    
C12   C108  S    
C41   O39   A    
C20   C28   A    
O70   C130  S    
C21   C29   A    
C60   C76   D    
O47   Zn5   S    
C49   C82   S    
O21   Zn9   S    
C13   C33   A    
O45   Zn7   S    
C66   C82   D    
C138  H100  S    
C115  H32   S    
C42   C75   S    
C13   C21   A    
C98   O70   S    
C136  H96   S    
C99   O71   S    
O68   C128  S    
O9    Zn15  S    
C52   O46   A    
O1    Zn11  S    
C118  H42   S    
C44   C73   S    
C96   C104  A    
O31   Zn15  S    
C80   O60   S    
C47   O41   A    
C52   O32   A    
C67   H11   S    
C57   H1    S    
C142  H112  S    
C46   O44   A    
C100  C106  A    
C98   C106  A    
C73   O53   S    
C17   C25   A    
C127  H68   S    
C39   O17   A    
C19   C35   A    
C140  H106  S    
C38   O16   A    
C123  H57   S    
N2    N14   A    
O44   Zn2   S    
C137  H97   S    
C11   N7    A    
C134  H88   S    
C128  H70   S    
O32   Zn16  S    
C94   C102  A    
C94   I6    S    
O79   C139  S    
C103  C107  A    
C10   N2    A    
C120  H47   S    
O13   Zn1   S    
C13   O77   S    
C119  H43   S    
C144  H119  S    
C25   C31   A    
C81   O61   S    
O77   C137  S    
C122  H53   S    
C135  H93   S    
C141  H109  S    
C40   C112  S    
O40   Zn2   S    
C53   O51   A    
C77   O57   S    
C23   C29   A    
C8    N16   A    
O39   Zn1   S    
O61   C121  S    
C122  H54   S    
O6    Zn12  S    
C55   O49   A    
O19   Zn7   S    
O56   C116  S    
O57   C117  S    
C57   C73   D    
C132  H83   S    
O82   C142  S    
C115  H31   S    
C16   C34   A    
C61   C77   D    
C5    C33   S    
O46   Zn8   S    
C89   I1    S    
C91   I3    S    
C116  H34   S    
C128  H71   S    
O51   Zn7   S    
C50   O30   A    
C47   C80   S    
O49   Zn5   S    
C139  H103  S    
C95   C103  A    
C2    O8    A    
O10   Zn16  S    
O41   Zn1   S    
C16   O80   S    
C141  H111  S    
O2    Zn12  S    
C42   O22   A    
C140  H108  S    
O74   C134  S    
C123  H55   S    
C37   O13   A    
C113  H27   S    
C131  H80   S    
C48   C77   S    
O53   C113  S    
C26   H22   S    
C63   H7    S    
O18   Zn6   S    
O8    Zn10  S    
O16   Zn4   S    
C23   H19   S    
C76   O56   S    
C113  H26   S    
C11   N5    A    
C21   H17   S    
C143  H117  S    
O1    Zn1   S    
O11   Zn13  S    
C114  H29   S    
C20   O84   S    
C119  H45   S    
O29   Zn13  S    
C49   O29   A    
C60   H4    S    
C136  H95   S    
C48   O28   A    
C69   C85   D    
C58   C74   D    
C49   O47   A    
C142  H114  S    
C134  H89   S    
C41   O21   A    
O58   C118  S    
C130  H78   S    
C22   C30   A    
C138  H101  S    
C62   C78   D    
C44   O24   A    
C14   C34   A    
C122  H52   S    
O30   Zn14  S    
C121  H49   S    
O36   Zn14  S    
C65   C72   S    
C17   C35   A    
C18   O82   S    
C125  H62   S    
O26   Zn12  S    
C120  H48   S    
C27   H23   S    
C14   C22   A    
O28   Zn10  S    
C74   O54   S    
C92   C110  A    
C18   C36   A    
N3    N15   A    
C78   O58   S    
C52   C81   S    
C10   C106  S    
O64   C124  S    
C125  H63   S    
C123  H56   S    
O78   C138  S    
C116  H36   S    
O27   Zn11  S    
C58   H2    S    
C143  H115  S    
C91   C99   A    
C139  H105  S    
C92   I4    S    
C5    N11   A    
C102  O74   S    
C18   C26   A    
O2    Zn10  S    
C121  H51   S    
C40   O18   A    
O83   C143  S    
C37   O15   A    
C26   C32   A    
C92   C100  A    
C133  H86   S    
C135  H92   S    
C66   H10   S    
C8    C36   S    
C103  O75   S    
O1    Zn3   S    
C9    N1    A    
C68   C69   S    
C133  H87   S    
C87   O67   S    
O3    Zn15  S    
C65   H9    S    
C38   C110  S    
C3    O11   A    
C69   H13   S    
C130  H76   S    
C64   C80   D    
C71   H15   S    
C118  H41   S    
C61   H5    S    
C68   C84   D    
O59   C119  S    
O35   Zn15  S    
C137  H99   S    
O4    Zn6   S    
O48   Zn6   S    
C6    C34   S    
C60   C61   S    
O22   Zn10  S    
O23   Zn11  S    
C90   I2    S    
C65   C81   D    
O75   C135  S    
C1    O7    A    
C2    O6    A    
C117  H37   S    
C126  H66   S    
C17   O81   S    
C82   O62   S    
C83   O63   S    
C19   O83   S    
C93   C111  A    
C71   C87   D    
C100  O72   S    
C4    O10   A    
C104  C108  A    
C143  H116  S    
C144  H118  S    
O12   Zn14  S    
C43   C76   S    
C38   O14   A    
C129  H73   S    
C48   O42   A    
C28   H24   S    
C79   O59   S    
O50   Zn8   S    
C134  H90   S    
C141  H110  S    
O42   Zn4   S    
C67   C70   S    
C9    N3    A    
C56   C85   S    
C54   C87   S    
O34   Zn16  S    
O37   Zn3   S    
C54   O52   A    
O3    Zn5   S    
C1    O5    A    
C1    C30   S    
C12   N6    A    
O3    Zn13  S    
C3    C32   S    
C62   H6    S    
C4    C31   S    
C3    O9    A    
O71   C131  S    
C20   C36   A    
O43   Zn3   S    
C54   O34   A    
O14   Zn2   S    
C9    C105  S    
C51   C84   S    
O2    Zn4   S    
C129  H75   S    
C45   O43   A    
C97   O69   S    
O4    Zn8   S    
O73   C133  S    
C46   O26   A    
C8    N14   A    
N8    N12   A    
O84   C144  S    
C68   H12   S    
C139  H104  S    
C63   C79   D    
O69   C129  S    
O80   C140  S    
N7    N11   A    
C96   C112  A    
O33   Zn13  S    
C72   H16   S    
C127  H67   S    
C120  H46   S    
C140  H107  S    
O66   C126  S    
C56   O50   A    
C116  H35   S    
C89   C109  A    
C94   C112  A    
C114  H28   S    
C24   H20   S    
C53   O33   A    
C7    N13   A    
C66   C71   S    
C47   O27   A    
O24   Zn12  S    
C102  C108  A    
C53   C86   S    
C101  O73   S    
C55   O35   A    
C19   C27   A    
C45   O25   A    
C144  H120  S    
C15   C23   A    
C16   C24   A    
N1    N13   A    
C72   C88   D    
C142  H113  S    
C99   C105  A    
C130  H77   S    
C56   O36   A    
C132  H82   S    
O4    Zn16  S    
C50   O48   A    
C121  H50   S    
C15   O79   S    
O65   C125  S    
C115  H33   S    
C12   N8    A    
C89   C97   A    
C88   O68   S    
O15   Zn3   S    
C132  H84   S    
C137  H98   S    
C6    N12   A    
O17   Zn5   S    
O60   C120  S    
C114  H30   S    
C4    O12   A    
C67   C83   D    
O76   C136  S    
C75   O55   S    
O2    Zn2   S    
O38   Zn4   S    
O54   C114  S    
C124  H59   S    
C126  H64   S    
C11   C107  S    
C128  H72   S    
C7    N15   A    
C124  H60   S    
C90   C110  A    
C70   C86   D    
C59   C75   D    
C104  O76   S    
C57   C64   S    
O81   C141  S    
C58   C63   S    
C93   I5    S    
C59   C62   S    
C7    C35   S    
C127  H69   S    
O20   Zn8   S    
C118  H40   S    
C131  H79   S    
C91   C109  A    
O3    Zn7   S    
C95   C111  A    
C96   I8    S    
C15   C33   A    
C14   O78   S    
C113  H25   S    
C24   C30   A    
O62   C122  S    
C42   O40   A    
C138  H102  S    
C43   O37   A    
C59   H3    S    
O52   Zn6   S    
O55   C115  S    
O4    Zn14  S    
C136  H94   S    
C124  H58   S    
C90   C98   A    
