data_mof_unit_27787.cif
_audit_creation_date              2013-03-05T15:57:42-0500
_audit_creation_method            fapswitch 2.2
_symmetry_space_group_name_H-M    P1
_symmetry_Int_Tables_number       1
_space_group_crystal_system       triclinic
_cell_length_a                    19.376208
_cell_length_b                    17.539658
_cell_length_c                    12.603737
_cell_angle_alpha                 90.27807
_cell_angle_beta                  98.714222
_cell_angle_gamma                 89.707232
_cell_volume                      4233.86836859

loop_
_atom_site_label
_atom_site_type_symbol
_atom_site_description
_atom_site_fract_x
_atom_site_fract_y
_atom_site_fract_z
_atom_type_partial_charge
O1    O     O_R   0.448200 0.076800 0.373930 -0.614573
O2    O     O_R   0.448200 0.923200 0.373930 -0.630964
O3    O     O_R   0.948200 0.576800 0.373930 -0.614711
O4    O     O_R   0.948200 0.423200 0.373930 -0.630833
O5    O     O_R   0.414750 0.076790 0.542400 -0.560851
O6    O     O_R   0.414750 0.923210 0.542400 -0.559634
O7    O     O_R   0.914750 0.576790 0.542400 -0.560777
O8    O     O_R   0.914750 0.423210 0.542400 -0.559681
C1    C     C_R   0.419784 0.110121 0.450311 0.909240
C2    C     C_R   0.414831 0.892858 0.445867 0.902602
C3    C     C_R   0.919712 0.610084 0.450244 0.909339
C4    C     C_R   0.914876 0.392825 0.445897 0.902788
Zn1   Zn    Zn3+2 0.522330 0.000000 0.387520 0.926326
Zn2   Zn    Zn3+2 0.022330 0.500000 0.387520 0.926332
Zn3   Zn    Zn3+2 0.477660 0.000000 0.612480 0.961816
Zn4   Zn    Zn3+2 0.977660 0.500000 0.612480 0.961823
O9    O     O_R   0.585240 0.923200 0.457600 -0.617855
O10   O     O_R   0.585240 0.076800 0.457600 -0.627234
O11   O     O_R   0.085240 0.423200 0.457600 -0.617930
O12   O     O_R   0.085240 0.576800 0.457600 -0.627226
O13   O     O_R   0.551780 0.923190 0.626070 -0.651352
O14   O     O_R   0.551780 0.076810 0.626070 -0.652728
O15   O     O_R   0.051780 0.423190 0.626070 -0.651353
O16   O     O_R   0.051780 0.576810 0.626070 -0.652718
C5    C     C_R   0.591207 0.899130 0.557261 0.854134
C6    C     C_R   0.590751 0.101186 0.557357 0.838499
C7    C     C_R   0.091215 0.399132 0.557261 0.853940
C8    C     C_R   0.090760 0.601178 0.557357 0.838698
C9    C     C_R   0.733242 0.205600 0.738011 0.183991
C10   C     C_R   0.733481 0.797988 0.742512 0.178172
C11   C     C_R   0.233183 0.705761 0.737953 0.183894
C12   C     C_R   0.233312 0.297698 0.742510 0.177744
H1    H     H_    0.639849 0.146048 0.763376 0.163127
H2    H     H_    0.638316 0.856448 0.763137 0.161378
H3    H     H_    0.139733 0.646308 0.763318 0.163082
H4    H     H_    0.138092 0.356080 0.763049 0.161405
H5    H     H_    0.364843 0.767576 0.771006 0.147635
H6    H     H_    0.361476 0.227419 0.781386 0.161957
H7    H     H_    0.864878 0.267457 0.771013 0.147740
H8    H     H_    0.861665 0.727731 0.781236 0.161618
C13   C     C_R   0.648658 0.151799 0.595401 -0.081504
C14   C     C_R   0.650494 0.850157 0.596296 -0.086370
C15   C     C_R   0.148699 0.651761 0.595380 -0.081530
C16   C     C_R   0.150513 0.350157 0.596283 -0.086291
C17   C     C_R   0.363331 0.791751 0.309115 0.162683
C18   C     C_R   0.387875 0.225638 0.331054 0.171659
C19   C     C_R   0.863536 0.291586 0.309243 0.162865
C20   C     C_R   0.887501 0.725387 0.330661 0.171779
C21   C     C_R   0.315016 0.732386 0.285986 -0.118212
C22   C     C_R   0.337092 0.282521 0.303917 -0.104793
C23   C     C_R   0.814996 0.232451 0.286000 -0.118092
C24   C     C_R   0.836638 0.782186 0.303523 -0.104983
C25   C     C_R   0.278430 0.705039 0.363710 -0.260972
C26   C     C_R   0.291558 0.302652 0.374757 -0.256362
C27   C     C_R   0.778250 0.205277 0.363646 -0.260873
C28   C     C_R   0.791206 0.802374 0.374478 -0.256417
C29   C     C_R   0.292609 0.731761 0.470330 0.106823
C30   C     C_R   0.300444 0.272546 0.479831 0.103878
C31   C     C_R   0.792490 0.231919 0.470311 0.106869
C32   C     C_R   0.800256 0.772409 0.479636 0.103998
C33   C     C_R   0.349709 0.780089 0.499196 0.090849
C34   C     C_R   0.356411 0.222674 0.510931 0.090034
C35   C     C_R   0.849672 0.280132 0.499221 0.090983
C36   C     C_R   0.856295 0.722633 0.510726 0.090030
C37   C     C_R   0.751947 0.211279 0.549535 0.058536
C38   C     C_R   0.756532 0.791762 0.555794 0.060128
C39   C     C_R   0.252051 0.711136 0.549540 0.058371
C40   C     C_R   0.256629 0.291833 0.555903 0.060083
C41   C     C_R   0.775809 0.225909 0.660004 0.153310
C42   C     C_R   0.777218 0.775550 0.666740 0.145027
C43   C     C_R   0.275830 0.725918 0.659985 0.153423
C44   C     C_R   0.277161 0.275415 0.666821 0.145048
C45   C     C_R   0.341586 0.759493 0.688257 -0.211210
C46   C     C_R   0.341193 0.238309 0.698172 -0.220727
C47   C     C_R   0.841580 0.259452 0.688268 -0.211433
C48   C     C_R   0.841285 0.738500 0.698024 -0.220726
C49   C     C_R   0.378120 0.785802 0.609011 -0.135414
C50   C     C_R   0.379876 0.211865 0.621385 -0.132736
C51   C     C_R   0.878095 0.285801 0.609031 -0.135465
C52   C     C_R   0.879883 0.711966 0.621177 -0.132872
C53   C     C_R   0.686376 0.179761 0.519612 -0.256426
C54   C     C_R   0.691558 0.824553 0.522589 -0.254948
C55   C     C_R   0.186502 0.679572 0.519595 -0.256427
C56   C     C_R   0.191706 0.324732 0.522632 -0.254964
C57   C     C_R   0.670975 0.165798 0.704541 -0.249229
C58   C     C_R   0.670887 0.836516 0.705899 -0.244835
C59   C     C_R   0.170932 0.665920 0.704497 -0.249368
C60   C     C_R   0.170758 0.336291 0.705859 -0.244825
C61   C     C_R   0.376666 0.820418 0.417334 -0.208656
C62   C     C_R   0.388693 0.187088 0.430383 -0.222563
C63   C     C_R   0.876743 0.320363 0.417398 -0.208858
C64   C     C_R   0.888515 0.686986 0.430163 -0.222540
H9    H     H_    0.663621 0.176012 0.436150 0.165357
H10   H     H_    0.671774 0.830455 0.438270 0.167450
H11   H     H_    0.163817 0.675715 0.436113 0.165469
H12   H     H_    0.172054 0.330830 0.438301 0.167497
H13   H     H_    0.741208 0.160365 0.339191 0.139869
H14   H     H_    0.753441 0.846481 0.348310 0.139974
H15   H     H_    0.241517 0.659989 0.339338 0.139770
H16   H     H_    0.253857 0.346821 0.348598 0.139922
H17   H     H_    0.302800 0.707729 0.206727 0.153942
H18   H     H_    0.331702 0.311846 0.227878 0.151469
H19   H     H_    0.802763 0.207831 0.206719 0.153979
H20   H     H_    0.831099 0.811399 0.227388 0.151483
H21   H     H_    0.429210 0.809804 0.634968 0.159014
H22   H     H_    0.429527 0.184893 0.649811 0.162519
H23   H     H_    0.929202 0.309766 0.634983 0.158914
H24   H     H_    0.929567 0.685044 0.649545 0.162402
C65   C     C_R   0.643109 0.012228 0.132455 -0.323282
C66   C     C_R   0.143075 0.512332 0.132440 -0.323246
H25   H     H_    0.658847 0.009014 0.304316 0.135364
H26   H     H_    0.158833 0.509220 0.304300 0.135261
H27   H     H_    0.669828 0.012617 0.933299 0.146026
H28   H     H_    0.169782 0.512730 0.933307 0.146123
H29   H     H_    0.698382 0.016033 0.127743 0.139811
H30   H     H_    0.198340 0.516237 0.127711 0.139787
N1    N     N_R   0.552340 1.000000 0.237260 -0.116423
N2    N     N_R   0.052340 0.500000 0.237260 -0.116451
C67   C     C_R   0.377637 0.998257 0.763078 0.383901
C68   C     C_R   0.877632 0.498229 0.763010 0.383887
C69   C     C_R   0.351472 0.005232 0.858524 -0.378281
C70   C     C_R   0.851429 0.505000 0.858433 -0.377505
C71   C     C_R   0.396409 0.014744 0.953808 0.279039
C72   C     C_R   0.896319 0.514330 0.953791 0.279183
C73   C     C_R   0.470068 0.009435 0.954438 -0.116669
C74   C     C_R   0.970010 0.509220 0.954463 -0.117078
C75   C     C_R   0.494515 0.004505 0.854006 0.126936
C76   C     C_R   0.994485 0.504443 0.854029 0.126857
C77   C     C_R   0.520486 0.007997 0.048535 0.023791
C78   C     C_R   0.020442 0.507848 0.048552 0.023577
C79   C     C_R   0.592940 0.011405 0.040353 0.210660
C80   C     C_R   0.092895 0.511395 0.040356 0.210677
C81   C     C_R   0.614781 0.011207 0.940521 -0.308102
C82   C     C_R   0.114738 0.511238 0.940534 -0.308050
C83   C     C_R   0.566178 0.005417 0.848849 -0.175087
C84   C     C_R   0.066143 0.505424 0.848873 -0.175038
C85   C     C_R   0.502572 0.998682 0.150886 -0.053948
C86   C     C_R   0.002569 0.498538 0.150918 -0.054276
C87   C     C_R   0.621219 0.007370 0.231563 -0.001253
C88   C     C_R   0.121205 0.507481 0.231552 -0.001212
N3    N     N_R   0.448170 0.000000 0.762060 -0.193868
N4    N     N_R   0.948170 0.500000 0.762060 -0.193926
H31   H     H_    0.450542 0.988320 0.165753 0.175305
H32   H     H_    0.950589 0.488081 0.165882 0.175657
H33   H     H_    0.295500 0.009074 0.857482 0.207985
H34   H     H_    0.795447 0.508732 0.857362 0.208090
H35   H     H_    0.586199 0.001380 0.774684 0.210802
H36   H     H_    0.086166 0.501433 0.774704 0.210881
N5    N     N_R   0.328799 0.995727 0.666206 0.247346
O17   O     O_R   0.297008 0.931809 0.639584 -0.398920
O18   O     O_R   0.297628 0.058693 0.631782 -0.384066
N6    N     N_R   0.828817 0.495768 0.666109 0.247413
O19   O     O_R   0.796983 0.431880 0.639434 -0.398673
O20   O     O_R   0.797673 0.558766 0.631760 -0.383990
N7    N     N_R   0.365599 0.043073 0.042143 0.184914
O21   O     O_R   0.318974 0.002146 0.079593 -0.418909
O22   O     O_R   0.366473 0.116134 0.059329 -0.444756
N8    N     N_R   0.865351 0.542064 0.042299 0.184873
O23   O     O_R   0.819145 0.500479 0.079689 -0.419056
O24   O     O_R   0.865494 0.615094 0.059648 -0.444679
C89   C     C_3   0.750459 0.227845 0.855338 -0.481150
C90   C     C_3   0.737618 0.313077 0.870209 -0.766815
H37   H     H_    0.775699 0.347630 0.833908 0.275292
H38   H     H_    0.683902 0.328770 0.832358 0.267138
H39   H     H_    0.742847 0.327275 0.956873 0.249527
H40   H     H_    0.716915 0.196193 0.904139 0.209480
H41   H     H_    0.805063 0.212211 0.888158 0.199580
C91   C     C_3   0.751425 0.782730 0.861859 -0.483517
C92   C     C_3   0.736872 0.699905 0.887561 -0.715680
H42   H     H_    0.681221 0.686104 0.859195 0.248678
H43   H     H_    0.770396 0.660286 0.848862 0.272631
H44   H     H_    0.747570 0.691317 0.975722 0.280322
H45   H     H_    0.806606 0.797536 0.891693 0.204061
H46   H     H_    0.719536 0.819699 0.907748 0.206907
C93   C     C_3   0.250225 0.728339 0.855168 -0.480921
C94   C     C_3   0.237310 0.813618 0.869471 -0.767038
H47   H     H_    0.275559 0.848045 0.833352 0.275493
H48   H     H_    0.183689 0.829242 0.831108 0.267212
H49   H     H_    0.242216 0.828060 0.956022 0.249192
H50   H     H_    0.216610 0.696837 0.904015 0.209442
H51   H     H_    0.304806 0.712801 0.888257 0.199696
C95   C     C_3   0.251077 0.282160 0.861808 -0.482648
C96   C     C_3   0.236513 0.199252 0.887052 -0.715441
H52   H     H_    0.180867 0.185499 0.858569 0.248443
H53   H     H_    0.270045 0.159763 0.848161 0.272467
H54   H     H_    0.247192 0.190412 0.975163 0.280596
H55   H     H_    0.306226 0.296949 0.891901 0.204344
H56   H     H_    0.219091 0.318980 0.907739 0.206865
C97   C     C_3   0.400621 0.823003 0.220030 -0.345864
C98   C     C_3   0.390804 0.779230 0.113531 -0.931450
H57   H     H_    0.408217 0.719087 0.126238 0.261754
H58   H     H_    0.335494 0.781311 0.075353 0.269841
H59   H     H_    0.422636 0.806208 0.057843 0.260483
H60   H     H_    0.382394 0.882286 0.202346 0.254653
H61   H     H_    0.457763 0.822619 0.248655 0.223560
C99   C     C_3   0.445173 0.211490 0.262341 -0.324510
C100  C     C_3   0.451946 0.271656 0.176987 -0.867407
H62   H     H_    0.405769 0.270582 0.112958 0.275651
H63   H     H_    0.458103 0.329320 0.213942 0.253250
H64   H     H_    0.498860 0.258927 0.139032 0.258595
H65   H     H_    0.496133 0.209441 0.316457 0.193225
H66   H     H_    0.437546 0.155718 0.221604 0.281734
C101  C     C_3   0.901230 0.322442 0.220371 -0.345693
C102  C     C_3   0.891892 0.278188 0.114262 -0.931153
H67   H     H_    0.909050 0.218025 0.127727 0.261920
H68   H     H_    0.836749 0.280362 0.075296 0.269640
H69   H     H_    0.924201 0.304727 0.058876 0.260409
H70   H     H_    0.883063 0.381659 0.202048 0.254917
H71   H     H_    0.958305 0.322137 0.249555 0.223402
C103  C     C_3   0.944649 0.711171 0.261684 -0.324333
C104  C     C_3   0.951134 0.771140 0.175943 -0.868367
H72   H     H_    0.904838 0.769854 0.112131 0.275624
H73   H     H_    0.957287 0.828901 0.212590 0.253301
H74   H     H_    0.997955 0.758376 0.137776 0.258567
H75   H     H_    0.995702 0.709320 0.315578 0.193401
H76   H     H_    0.937028 0.655303 0.221212 0.281659

loop_
_geom_bond_atom_site_label_1
_geom_bond_atom_site_label_2
_geom_bond_distance
_ccdc_geom_bond_type
C67   N5    1.427575 S    
C101  C102  1.530297 S    
C39   C55   1.386346 A    
C98   H57   1.110809 S    
C54   H10   1.079024 S    
C27   C31   1.408785 A    
N7    O22   1.298375 A    
C15   C55   1.380947 A    
C92   H42   1.110929 S    
H26   C88   1.081951 S    
C4    C63   1.488299 S    
C78   C80   1.424880 A    
O10   C6    1.315196 A    
C28   H14   1.079939 S    
C89   C90   1.529546 S    
C102  H68   1.106818 S    
H25   C87   1.081951 S    
C12   C44   1.422412 A    
C11   C93   1.515344 S    
C25   H15   1.080324 S    
C91   H46   1.112358 S    
C22   C26   1.390214 A    
Zn1   O10   1.938954 S    
C12   C95   1.516489 S    
C75   C83   1.400047 A    
C10   C91   1.516466 S    
C20   C24   1.404225 A    
N5    O18   1.300450 A    
C21   H17   1.079902 S    
C103  H76   1.102730 S    
Zn1   N1    2.063596 S    
C71   C73   1.428630 A    
C39   C43   1.421486 A    
C74   C78   1.417978 A    
C23   H19   1.079920 S    
C103  H75   1.112334 S    
C12   C60   1.402019 A    
C89   H41   1.109606 S    
H2    C58   1.083610 S    
C100  H63   1.110829 S    
O2    Zn1   1.962138 S    
H1    C57   1.083405 S    
C95   C96   1.526891 S    
O13   C5    1.306796 A    
C98   H59   1.111027 S    
O6    Zn3   1.938833 S    
Zn3   N3    2.051136 S    
C24   C28   1.390102 A    
H3    C59   1.083413 S    
C3    C64   1.482383 S    
Zn3   O14   1.962116 S    
C24   H20   1.080677 S    
C93   C94   1.529582 S    
C2    C61   1.488323 S    
C33   C49   1.413191 A    
Zn2   N2    2.063596 S    
C14   C54   1.383486 A    
C65   C79   1.396690 A    
C98   H58   1.106769 S    
C66   C80   1.396667 A    
C14   C58   1.399466 A    
H7    C47   1.080597 S    
C10   C58   1.402018 A    
O11   C7    1.315287 A    
C9    C57   1.404460 A    
C89   H40   1.112246 S    
C40   C44   1.424707 A    
C93   H51   1.109596 S    
C94   H48   1.111092 S    
C85   H31   1.069551 S    
C32   C38   1.412329 A    
O8    Zn4   1.938833 S    
H27   C81   1.084554 S    
N8    O24   1.298358 A    
C36   C52   1.410911 A    
C26   H16   1.079927 S    
N1    C87   1.354234 A    
C29   C39   1.410413 A    
N2    C88   1.354185 A    
C97   H60   1.109157 S    
C10   C42   1.422409 A    
C77   C85   1.396271 A    
C33   C61   1.418407 A    
C32   C36   1.399829 A    
O7    C3    1.319222 A    
C90   H38   1.111091 S    
C67   C69   1.379090 A    
C91   H45   1.109984 S    
C68   N6    1.427570 S    
C11   C59   1.404495 A    
C19   C101  1.529318 S    
C40   C56   1.387930 A    
Zn2   O12   1.938954 S    
O1    C1    1.312768 A    
O14   C6    1.306923 A    
C44   C46   1.401684 A    
C96   H54   1.109889 S    
C43   C45   1.401853 A    
C25   C29   1.408666 A    
C35   C51   1.413136 A    
O12   C8    1.315135 A    
H6    C46   1.080382 S    
C16   C56   1.383645 A    
C100  H62   1.110586 S    
H4    C60   1.083611 S    
C28   C32   1.413857 A    
C72   N8    1.426771 S    
C1    C62   1.482420 S    
C100  H64   1.110699 S    
Zn4   N4    2.051136 S    
C96   H52   1.110920 S    
O5    C1    1.319056 A    
C9    C89   1.515407 S    
C38   C54   1.387854 A    
C90   H39   1.108800 S    
C53   H9    1.079062 S    
C97   H61   1.111300 S    
C37   C53   1.386377 A    
C104  H72   1.110611 S    
C102  H69   1.111042 S    
C17   C21   1.403526 A    
O8    C4    1.325893 A    
O5    Zn3   1.936132 S    
C13   C53   1.380880 A    
C27   H13   1.080305 S    
C26   C30   1.413884 A    
C52   H24   1.081797 S    
H28   C82   1.084555 S    
C51   H23   1.081229 S    
C68   N4    1.369142 A    
C95   H56   1.112347 S    
C55   H11   1.079052 S    
C102  H67   1.110825 S    
C18   C99   1.526636 S    
C84   H36   1.066889 S    
O3    Zn2   1.953182 S    
C30   C34   1.399871 A    
C75   N3    1.356508 A    
C17   C97   1.529408 S    
C91   C92   1.526856 S    
C104  H73   1.110833 S    
C76   C84   1.399985 A    
N6    O20   1.300454 A    
C22   H18   1.080675 S    
Zn4   O15   1.953161 S    
O15   C7    1.306900 A    
C78   C86   1.396151 A    
C42   C48   1.401682 A    
N8    O23   1.301332 A    
C67   N3    1.369158 A    
C92   H44   1.109881 S    
C69   H33   1.084372 S    
C31   C35   1.399898 A    
O4    C4    1.307354 A    
C36   C64   1.411957 A    
C70   C72   1.382237 A    
O2    C2    1.307352 A    
C66   H30   1.083991 S    
C17   C61   1.437999 A    
C68   C70   1.378894 A    
O16   C8    1.307004 A    
C72   C74   1.428951 A    
C90   H37   1.109342 S    
C92   H43   1.109425 S    
C30   C40   1.412455 A    
C97   C98   1.530203 S    
C37   C41   1.421569 A    
C101  H71   1.111318 S    
H5    C45   1.080604 S    
O7    Zn4   1.936132 S    
C74   C76   1.419420 A    
C19   C63   1.437841 A    
Zn2   O11   1.936253 S    
C34   C50   1.410872 A    
N1    C85   1.340693 A    
C48   C52   1.387658 A    
C20   C103  1.526728 S    
C99   C100  1.530809 S    
C79   C81   1.386941 A    
C5    C14   1.456810 S    
O6    C2    1.325897 A    
C19   C23   1.403477 A    
C29   C33   1.399858 A    
C93   H50   1.112240 S    
C18   C62   1.423650 A    
C13   C57   1.398936 A    
C101  H70   1.109040 S    
C18   C22   1.404260 A    
C8    C15   1.456068 S    
C83   H35   1.066881 S    
Zn1   O9    1.936253 S    
C65   C87   1.381814 A    
O9    C5    1.315318 A    
C94   H49   1.108747 S    
C66   C88   1.381692 A    
C15   C59   1.398904 A    
C86   H32   1.069295 S    
N5    O17   1.299886 A    
C31   C37   1.410438 A    
C38   C42   1.424687 A    
C47   C51   1.390495 A    
C21   C25   1.382285 A    
C34   C62   1.412011 A    
C49   H21   1.081207 S    
C82   C84   1.379071 A    
C50   H22   1.081795 S    
C41   C47   1.401843 A    
C23   C27   1.382367 A    
C95   H55   1.109985 S    
C70   H34   1.084403 S    
O4    Zn2   1.962138 S    
C7    C16   1.456959 S    
Zn4   O16   1.962116 S    
C69   C71   1.382349 A    
O3    C3    1.312545 A    
C65   H29   1.083988 S    
C94   H47   1.109323 S    
C73   C77   1.417911 A    
Zn3   O13   1.953161 S    
C104  H74   1.110703 S    
O1    Zn1   1.953182 S    
N6    O19   1.299902 A    
C96   H53   1.109383 S    
C80   C82   1.386841 A    
C103  C104  1.530848 S    
C20   C64   1.423867 A    
H8    C48   1.080381 S    
C35   C63   1.418232 A    
N7    O21   1.301298 A    
C73   C75   1.419287 A    
C81   C83   1.379237 A    
C45   C49   1.390571 A    
C9    C41   1.423338 A    
C16   C60   1.399460 A    
C56   H12   1.078985 S    
C99   H65   1.112338 S    
N2    C86   1.340486 A    
C99   H66   1.102718 S    
C71   N7    1.426824 S    
C6    C13   1.456016 S    
C11   C43   1.423343 A    
C77   C79   1.424735 A    
C76   N4    1.356357 A    
C46   C50   1.387614 A    
