data_mof_unit_16196.cif
_audit_creation_date              2012-12-10T17:48:50-0500
_audit_creation_method            fapswitch 2.2
_symmetry_space_group_name_H-M    P1
_symmetry_Int_Tables_number       1
_space_group_crystal_system       triclinic
_cell_length_a                    10.717702
_cell_length_b                    14.69255
_cell_length_c                    14.708724
_cell_angle_alpha                 65.20851
_cell_angle_beta                  103.731962
_cell_angle_gamma                 103.001873
_cell_volume                      2021.85448584

loop_
_atom_site_label
_atom_site_type_symbol
_atom_type_description
_atom_site_fract_x
_atom_site_fract_y
_atom_site_fract_z
_atom_type_partial_charge
C1    C     C_R   0.480428 0.119444 0.312093 0.817821
C2    C     C_3   0.877587 0.999422 0.499235 0.162452
C3    C     C_3   0.957835 0.985502 0.605731 -0.383397
C4    C     C_3   0.932872 0.100979 0.420019 -0.372825
C5    C     C_R   0.478424 0.186002 0.204263 -0.151252
C6    C     C_R   0.537752 0.812636 0.795575 -0.061690
C7    C     C_R   0.473437 0.215588 0.028729 -0.257123
C8    C     C_R   0.474099 0.148332 0.129727 0.412161
C9    C     C_R   0.489333 0.290369 0.177182 -0.303517
C10   C     C_R   0.501575 0.359665 0.077856 0.025376
C11   C     C_R   0.487861 0.320707 0.002012 0.004393
C12   C     C_R   0.259780 0.000267 0.499675 0.754144
C13   C     C_R   0.525111 0.466230 0.052104 0.081161
C14   C     C_R   0.521979 0.532768 0.948531 0.004738
C15   C     C_R   0.507902 0.491130 0.874950 -0.341587
C16   C     C_R   0.488420 0.386715 0.900521 0.441163
C17   C     C_R   0.556596 0.508451 0.126896 -0.204025
C18   C     C_R   0.578078 0.612429 0.100642 -0.237840
C19   C     C_R   0.566937 0.678315 0.999218 0.164132
C20   C     C_R   0.536369 0.639211 0.922105 0.116175
C21   C     C_R   0.585810 0.783271 0.973987 -0.203422
C22   C     C_R   0.572651 0.850181 0.872651 -0.198285
C23   C     C_R   0.522059 0.880350 0.687849 0.796829
C24   C     C_R   0.517990 0.708092 0.820827 -0.260383
C25   C     C_R   0.718759 0.286208 0.667268 -0.308431
C26   C     C_R   0.683313 0.203648 0.638759 0.070604
C27   C     C_R   0.519662 0.285701 0.508070 -0.004453
C28   C     C_R   0.551287 0.372716 0.533017 -0.042469
C29   C     C_R   0.652916 0.370665 0.615127 0.172084
C30   C     C_R   0.484712 0.459862 0.481571 0.079896
C31   C     C_R   0.520986 0.543036 0.514139 0.065668
C32   C     C_R   0.622880 0.536418 0.596635 -0.244618
C33   C     C_R   0.687304 0.452139 0.645627 -0.140209
C34   C     C_R   0.739953 0.999840 0.499640 0.749856
C35   C     C_R   0.382876 0.466504 0.399050 -0.240116
C36   C     C_R   0.317233 0.550161 0.350966 -0.198307
C37   C     C_R   0.350557 0.631099 0.382255 0.161556
C38   C     C_R   0.453255 0.629596 0.463534 -0.027183
C39   C     C_R   0.281889 0.714133 0.332216 -0.321286
C40   C     C_R   0.315374 0.795732 0.362168 0.097082
C41   C     C_R   0.483192 0.715798 0.489689 -0.022908
C42   C     C_3   0.034906 0.911862 0.471848 -0.367478
C43   C     C_3   0.891979 0.911612 0.471667 -0.376074
C44   C     C_3   0.101945 0.986009 0.605754 -0.375852
C45   C     C_3   0.077054 0.101336 0.420183 -0.387069
C46   C     C_3   0.121542 0.999990 0.499380 0.160363
Cu1   Cu    Cu3+1 0.465900 0.918260 0.475680 0.933101
Cu2   Cu    Cu3+1 0.534100 0.081740 0.524320 0.922477
H1    H     H_    0.064332 0.837778 0.527664 0.172072
H2    H     H_    0.923937 0.165624 0.437706 0.175329
H3    H     H_    0.162199 0.048410 0.627376 0.174760
H4    H     H_    0.949382 0.047520 0.627621 0.168307
H5    H     H_    0.484654 0.681981 0.759791 0.151502
H6    H     H_    0.588261 0.930884 0.854730 0.154271
H7    H     H_    0.602672 0.641420 0.160372 0.147827
H8    H     H_    0.464010 0.184765 0.971791 0.192594
H9    H     H_    0.485891 0.315817 0.235191 0.165731
H10   H     H_    0.046831 0.919929 0.395520 0.163480
H11   H     H_    0.516849 0.537400 0.796861 0.147322
H12   H     H_    0.570243 0.463356 0.207169 0.144444
H13   H     H_    0.610636 0.813549 0.032724 0.133845
H14   H     H_    0.764535 0.450438 0.708880 0.136826
H15   H     H_    0.561285 0.722354 0.548895 0.125890
H16   H     H_    0.263296 0.860284 0.323023 0.137326
H17   H     H_    0.239304 0.551513 0.288232 0.141804
H18   H     H_    0.796703 0.283767 0.730206 0.134236
H19   H     H_    0.733560 0.138185 0.679316 0.119989
H20   H     H_    0.442355 0.279654 0.448196 0.122920
H21   H     H_    0.835512 0.919831 0.395225 0.169113
H22   H     H_    0.655019 0.595095 0.626112 0.125254
H23   H     H_    0.351078 0.408003 0.369316 0.128573
H24   H     H_    0.203097 0.716131 0.269934 0.140153
H25   H     H_    0.853093 0.837448 0.527316 0.165646
H26   H     H_    0.133650 0.913561 0.663679 0.152521
H27   H     H_    0.919664 0.912746 0.663542 0.150437
H28   H     H_    0.136886 0.166034 0.438070 0.168026
H29   H     H_    0.090579 0.112651 0.343230 0.148668
H30   H     H_    0.876515 0.112096 0.342992 0.141601
N1    N     N_R   0.585360 0.204570 0.560800 -0.173833
N2    N     N_R   0.414550 0.795430 0.439160 -0.182921
O1    O     O_R   0.455060 0.022100 0.338110 -0.533743
O2    O     O_R   0.512640 0.160150 0.379180 -0.596743
O3    O     O_R   0.288900 0.930980 0.479450 -0.593978
O4    O     O_R   0.346480 0.069030 0.520520 -0.587752
O5    O     O_R   0.487360 0.839850 0.620820 -0.589978
O6    O     O_R   0.544940 0.977900 0.661890 -0.585865
O7    O     O_R   0.653520 0.930970 0.479480 -0.594648
O8    O     O_R   0.711100 0.069020 0.520550 -0.588965
O9    O     O_3   0.476347 0.348169 0.826921 -0.586807
C47   C     C_3   0.361459 0.372465 0.756296 0.073207
H31   H     H_    0.382315 0.446810 0.693737 0.160918
H32   H     H_    0.281357 0.375600 0.791137 0.127774
C48   C     C_3   0.313326 0.291702 0.711924 -0.787699
H33   H     H_    0.283607 0.218026 0.772206 0.235318
H34   H     H_    0.228692 0.313558 0.650975 0.198374
H35   H     H_    0.391217 0.282765 0.679722 0.263378
O10   O     O_3   0.464886 0.045521 0.154358 -0.567749
C49   C     C_3   0.588455 0.023270 0.159181 0.083787
H36   H     H_    0.664104 0.052533 0.210901 0.120978
H37   H     H_    0.616246 0.056425 0.082221 0.133305
C50   C     C_3   0.584492 0.909005 0.200274 -0.778847
H38   H     H_    0.508001 0.876477 0.152145 0.245962
H39   H     H_    0.679750 0.890912 0.200476 0.180380
H40   H     H_    0.563821 0.874303 0.279179 0.264243

loop_
_geom_bond_atom_site_label_1
_geom_bond_atom_site_label_2
_ccdc_geom_bond_type
C43   H25   S    
C48   H33   S    
C19   C20   A    
C42   H10   S    
C41   N2    A    
O10   C49   S    
C7    C8    A    
C22   H6    S    
C45   C46   S    
C7    C11   A    
C50   H38   S    
C30   C35   A    
C45   H28   S    
C1    C5    S    
C26   H19   S    
Cu1   N2    S    
Cu2   N1    S    
C36   C37   A    
C19   C21   A    
C18   C19   A    
C27   N1    A    
C30   C31   A    
C1    O1    A    
C15   C16   A    
C6    C22   A    
C29   C33   A    
C12   O4    A    
C4    H30   S    
C42   C46   S    
C20   C24   A    
C27   H20   S    
C35   C36   A    
C33   H14   S    
C23   O6    A    
C39   H24   S    
Cu2   O8    S    
Cu1   O3    S    
C3    H27   S    
C9    C10   A    
C21   H13   S    
C2    C34   S    
C35   H23   S    
C16   O9    S    
C48   H34   S    
C21   C22   A    
C7    H8    S    
C44   C46   S    
C4    C45   S    
C25   C29   A    
C3    C44   S    
C14   C20   A    
C24   H5    S    
C38   C41   A    
C12   C46   S    
C39   C40   A    
C36   H17   S    
C32   H22   S    
C17   H12   S    
C1    O2    A    
Cu2   O4    S    
C12   O3    A    
C4    H2    S    
Cu1   O7    S    
C2    C4    S    
C8    O10   S    
C5    C9    A    
C37   C38   A    
C11   C16   A    
C47   H32   S    
Cu1   Cu2   S    
C2    C43   S    
C6    C24   A    
C40   N2    A    
C17   C18   A    
C34   O8    A    
C44   H26   S    
C18   H7    S    
C44   H3    S    
C50   H40   S    
C49   H37   S    
Cu2   O6    S    
C42   C43   S    
C41   H15   S    
Cu1   O5    S    
C47   C48   S    
C50   H39   S    
C28   C29   A    
C15   H11   S    
C31   C32   A    
C25   H18   S    
C10   C13   A    
C5    C8    A    
C3    H4    S    
C48   H35   S    
C49   C50   S    
C26   N1    A    
C40   H16   S    
C31   C38   A    
C13   C17   A    
C32   C33   A    
C28   C30   A    
C2    C3    S    
C25   C26   A    
C37   C39   A    
C47   H31   S    
C6    C23   S    
Cu2   O2    S    
C9    H9    S    
C34   O7    A    
Cu1   O1    S    
C10   C11   A    
C42   H1    S    
C43   H21   S    
C49   H36   S    
C23   O5    A    
C27   C28   A    
C14   C15   A    
C45   H29   S    
O9    C47   S    
C13   C14   A    
