data_mof_unit_49300.cif
_audit_creation_date              2013-03-05T16:06:56-0500
_audit_creation_method            fapswitch 2.2
_symmetry_space_group_name_H-M    P1
_symmetry_Int_Tables_number       1
_space_group_crystal_system       triclinic
_cell_length_a                    14.514684
_cell_length_b                    16.179992
_cell_length_c                    6.964723
_cell_angle_alpha                 89.9869
_cell_angle_beta                  98.66811
_cell_angle_gamma                 90.012814
_cell_volume                      1616.96501872

loop_
_atom_site_label
_atom_site_type_symbol
_atom_site_description
_atom_site_fract_x
_atom_site_fract_y
_atom_site_fract_z
_atom_type_partial_charge
O1    O     O_R   0.584990 0.413650 0.534420 -0.598023
O2    O     O_R   0.584990 0.586350 0.534420 -0.597272
O3    O     O_R   0.596190 0.585230 0.208380 -0.601919
O4    O     O_R   0.596190 0.414770 0.208380 -0.600348
O5    O     O_R   0.415010 0.586420 0.976930 -0.609254
O6    O     O_R   0.415010 0.413580 0.976930 -0.608055
C1    C     C_R   0.618732 0.614284 0.383968 0.936018
C2    C     C_R   0.618654 0.385659 0.384033 0.936841
O7    O     O_3   0.440560 0.500000 0.319140 -0.246519
V1    V     V_3+5 0.511030 0.500000 0.068070 1.165241
O8    O     O_R   0.403810 0.414840 0.643540 -0.543562
O9    O     O_R   0.403810 0.585160 0.643540 -0.543717
C3    C     C_R   0.381497 0.386149 0.805827 0.891513
C4    C     C_R   0.381468 0.613827 0.805815 0.890106
V2    V     V_3+5 0.488970 0.500000 0.560620 1.226078
O10   O     O_3   0.559440 0.500000 0.859420 -0.292717
H1    H     H_    0.176752 0.798730 0.808241 0.186996
H2    H     H_    0.176102 0.201845 0.808386 0.186694
H3    H     H_    0.313209 0.689454 0.098362 0.197732
H4    H     H_    0.313224 0.310563 0.098397 0.197769
C5    C     C_2   0.314116 0.683399 0.794685 0.068691
C6    C     C_2   0.314144 0.316570 0.794716 0.067512
C7    C     C_2   0.285647 0.714651 0.956751 -0.236158
C8    C     C_2   0.285612 0.285391 0.956804 -0.235499
H5    H     H_    0.231805 0.801788 0.249237 0.253919
H6    H     H_    0.232345 0.197772 0.249194 0.253743
C9    C     C_2   0.195030 0.819279 0.109581 -0.455487
C10   C     C_2   0.195136 0.180640 0.109603 -0.454904
C11   C     C_2   0.214682 0.781191 0.948700 0.004138
C12   C     C_2   0.214457 0.219011 0.948769 0.004563
C13   C     C_R   0.750819 0.689451 0.590738 0.165744
C14   C     C_R   0.685298 0.259462 0.568616 0.194882
C15   C     C_R   0.690604 0.680842 0.414643 -0.227012
C16   C     C_R   0.684820 0.314579 0.413036 -0.234586
C17   C     C_R   0.702041 0.737582 0.266230 -0.138517
C18   C     C_R   0.747216 0.297550 0.281199 -0.152979
H7    H     H_    0.657025 0.733963 0.128186 0.138970
H8    H     H_    0.749626 0.337918 0.158568 0.140421
C19   C     C_R   0.766655 0.803457 0.299414 -0.154060
C20   C     C_R   0.811848 0.231722 0.313883 -0.144017
H9    H     H_    0.770224 0.847940 0.184961 0.136836
H10   H     H_    0.861632 0.223328 0.214664 0.133862
C21   C     C_R   0.821387 0.815189 0.482693 -0.225662
C22   C     C_R   0.816630 0.181014 0.480110 -0.230853
C23   C     C_R   0.814220 0.754740 0.623892 0.184642
C24   C     C_R   0.749504 0.194832 0.601636 0.176966
C25   C     C_3   0.797100 0.764697 0.828076 -0.484992
C26   C     C_3   0.761898 0.207290 0.815845 -0.481164
C27   C     C_3   0.728543 0.693352 0.792193 -0.458782
C28   C     C_3   0.691584 0.277273 0.779902 -0.463620
H11   H     H_    0.763195 0.824733 0.850976 0.195846
H12   H     H_    0.736300 0.153747 0.892799 0.201921
H13   H     H_    0.859814 0.749826 0.934868 0.197270
H14   H     H_    0.833397 0.228725 0.874128 0.191077
H15   H     H_    0.655017 0.711880 0.795188 0.195545
H16   H     H_    0.625156 0.263994 0.835191 0.198354
H17   H     H_    0.751835 0.637103 0.877596 0.195070
H18   H     H_    0.722072 0.339220 0.818141 0.190756
O11   O     O_R   0.921430 0.915960 0.371040 -0.594111
O12   O     O_R   0.921430 0.084040 0.371040 -0.595586
O13   O     O_R   0.910450 0.087500 0.697310 -0.602578
O14   O     O_R   0.910450 0.912500 0.697310 -0.602323
O15   O     O_R   0.091710 0.087460 0.928430 -0.601576
O16   O     O_R   0.091710 0.912540 0.928430 -0.601431
C29   C     C_R   0.888029 0.114340 0.519518 0.935422
C30   C     C_R   0.887927 0.885754 0.519572 0.934352
O17   O     O_3   0.065970 0.000000 0.586140 -0.254837
V3    V     V_3+5 0.995640 0.000000 0.837400 1.169573
O18   O     O_R   0.103020 0.915700 0.261710 -0.574363
O19   O     O_R   0.103020 0.084300 0.261710 -0.575354
C31   C     C_R   0.125022 0.886049 0.099881 1.018047
C32   C     C_R   0.125030 0.113945 0.099876 1.013822
V4    V     V_3+5 0.017940 0.000000 0.344880 1.197090
O20   O     O_3   0.947330 0.000000 0.046180 -0.294247
N1    N     N_R   0.284165 0.720803 0.609420 0.231461
O21   O     O_R   0.254208 0.674869 0.459705 -0.429229
O22   O     O_R   0.300673 0.798873 0.585209 -0.430961
N2    N     N_R   0.284259 0.279076 0.609525 0.231409
O23   O     O_R   0.254670 0.324937 0.459425 -0.429597
O24   O     O_R   0.300094 0.200819 0.585975 -0.431015

loop_
_geom_bond_atom_site_label_1
_geom_bond_atom_site_label_2
_geom_bond_distance
_ccdc_geom_bond_type
C9    C11   1.346611 D    
O1    C2    1.302113 A    
H1    C11   1.085464 S    
V4    O20   2.176149 S    
C17   C19   1.415413 A    
O2    C1    1.302498 A    
O4    C2    1.305518 A    
C19   H9    1.080867 S    
C26   H14   1.111294 S    
O16   V3    2.020616 S    
C4    C5    1.485411 S    
C17   H7    1.079524 S    
O3    C1    1.305056 A    
O11   C30   1.302609 A    
N2    O24   1.301760 A    
V3    O20   1.706873 S    
V2    O10   2.176101 S    
O12   V4    1.980486 S    
C27   H17   1.111601 S    
O16   C31   1.291986 A    
O18   C31   1.308167 A    
O8    V2    1.993494 S    
H4    C8    1.086274 S    
C13   C15   1.401565 A    
O18   V4    1.984362 S    
O1    V2    2.001338 S    
O7    V1    2.154776 S    
O11   V4    1.980000 S    
C25   H13   1.111599 S    
C26   C28   1.519793 S    
C1    C15   1.492003 S    
C22   C29   1.492563 S    
C10   C32   1.477599 S    
C13   C27   1.487931 S    
C22   C24   1.401574 A    
C23   C25   1.488846 S    
C24   C26   1.489297 S    
O14   C30   1.305655 A    
O17   V3    2.154733 S    
C28   H18   1.111643 S    
C18   C20   1.415011 A    
C6    N2    1.432262 S    
C25   C27   1.519835 S    
N2    O23   1.300924 A    
C19   C21   1.411007 A    
C27   H15   1.111791 S    
C28   H16   1.111704 S    
C14   C16   1.402405 A    
H3    C7    1.086260 S    
N1    O21   1.300873 A    
N1    O22   1.301298 A    
O9    V2    1.994057 S    
C20   C22   1.411965 A    
O19   V4    1.983799 S    
C2    C16   1.492556 S    
O2    V2    2.000843 S    
C21   C23   1.401743 A    
C14   C28   1.488799 S    
O5    C4    1.295742 A    
H2    C12   1.085827 S    
O17   V4    1.719405 S    
O9    C4    1.307067 A    
O12   C29   1.302386 A    
C5    C7    1.357008 D    
C6    C8    1.356825 D    
O4    V1    2.005140 S    
C7    C11   1.485350 S    
C9    C31   1.477840 S    
O15   V3    2.020381 S    
C14   C24   1.396649 A    
C20   H10   1.081077 S    
O6    V1    2.008327 S    
C25   H11   1.111362 S    
H5    C9    1.074495 S    
C5    N1    1.432085 S    
H6    C10   1.074943 S    
O14   V3    2.030139 S    
C10   C12   1.346538 D    
O7    V2    1.722241 S    
O5    V1    2.008558 S    
O3    V1    2.005066 S    
V1    O10   1.706828 S    
O6    C3    1.295810 A    
O8    C3    1.306888 A    
O13   V3    2.030214 S    
C21   C30   1.492374 S    
C18   H8    1.079830 S    
C15   C17   1.410689 A    
C3    C6    1.485218 S    
C16   C18   1.410732 A    
C8    C12   1.485067 S    
O13   C29   1.306200 A    
C26   H12   1.111536 S    
O15   C32   1.292059 A    
C13   C23   1.397046 A    
O19   C32   1.307958 A    
