data_mof_unit_14325.cif
_audit_creation_date              2012-12-10T17:24:43-0500
_audit_creation_method            fapswitch 2.2
_symmetry_space_group_name_H-M    P1
_symmetry_Int_Tables_number       1
_space_group_crystal_system       triclinic
_cell_length_a                    23.523289
_cell_length_b                    10.86444
_cell_length_c                    9.57034
_cell_angle_alpha                 90.367703
_cell_angle_beta                  89.998153
_cell_angle_gamma                 92.559343
_cell_volume                      2443.37641743

loop_
_atom_site_label
_atom_site_type_symbol
_atom_type_description
_atom_site_fract_x
_atom_site_fract_y
_atom_site_fract_z
_atom_type_partial_charge
C1    C     C_R   0.504537 0.263067 0.500347 0.809318
C2    C     C_R   0.965685 0.295845 0.403492 -0.160273
C3    C     C_R   0.024982 0.295275 0.403582 -0.161080
C4    C     C_R   0.057583 0.398505 0.451617 -0.015105
C5    C     C_R   0.030009 0.503038 0.500029 -0.017489
C6    C     C_R   0.062284 0.606987 0.548532 -0.015329
C7    C     C_R   0.034343 0.710793 0.596493 -0.159619
C8    C     C_R   0.975038 0.711356 0.596429 -0.161632
C9    C     C_R   0.117251 0.399964 0.452912 0.533995
C10   C     C_R   0.121867 0.604368 0.547384 0.534507
C11   C     C_R   0.238890 0.502110 0.626738 -0.099554
C12   C     C_R   0.390952 0.499697 0.500032 0.809750
C13   C     C_R   0.298153 0.501459 0.626860 -0.215979
C14   C     C_R   0.328327 0.500038 0.500069 -0.043685
C15   C     C_R   0.298084 0.499175 0.373319 -0.214588
C16   C     C_R   0.238821 0.499791 0.373516 -0.099717
C17   C     C_R   0.209015 0.501297 0.500144 0.354704
C18   C     C_R   0.761197 0.505351 0.626552 -0.100727
C19   C     C_R   0.701902 0.504202 0.626759 -0.225350
C20   C     C_R   0.671668 0.502679 0.499980 -0.038288
C21   C     C_R   0.701857 0.503141 0.373172 -0.220114
C22   C     C_R   0.761143 0.504222 0.373299 -0.101564
C23   C     C_R   0.496898 0.737636 0.501555 0.786552
C24   C     C_R   0.791016 0.505053 0.499900 0.355467
C25   C     C_R   0.537103 0.122579 0.754988 -0.151786
C26   C     C_R   0.530549 0.064701 0.883773 -0.154551
C27   C     C_R   0.502474 0.949878 0.891144 -0.137698
C28   C     C_R   0.486278 0.887711 0.768631 -0.155476
C29   C     C_R   0.498550 0.939607 0.635562 0.094854
C30   C     C_R   0.515602 0.065436 0.630973 0.097377
C31   C     C_R   0.509659 0.129284 0.503094 -0.118772
C32   C     C_R   0.500826 0.063015 0.378570 -0.203030
C33   C     C_R   0.495991 0.935835 0.380081 -0.206327
C34   C     C_R   0.609043 0.500880 0.499982 0.777093
C35   C     C_R   0.494723 0.872330 0.507052 -0.111507
C36   C     C_R   0.575668 0.664167 0.145344 -0.165960
C37   C     C_R   0.612546 0.744357 0.073436 -0.219856
C38   C     C_R   0.612612 0.744091 0.929517 -0.190269
C39   C     C_R   0.575710 0.663822 0.856686 -0.155067
C40   C     C_R   0.537175 0.580693 0.925635 0.193017
C41   C     C_R   0.537156 0.580741 0.075400 0.209192
C42   C     C_R   0.464790 0.422915 0.073421 -0.071943
C43   C     C_R   0.464808 0.422945 0.925332 -0.069711
C44   C     C_R   0.882754 0.606616 0.547147 0.533146
C45   C     C_R   0.878176 0.402241 0.452598 0.534213
C46   C     C_R   0.937749 0.399655 0.451444 -0.015149
C47   C     C_R   0.970015 0.503613 0.499948 -0.017489
C48   C     C_R   0.942432 0.608127 0.548392 -0.014613
Cu1   Cu    Cu3+1 0.500000 0.499990 0.640660 0.923282
Cu2   Cu    Cu3+1 0.500000 0.500010 0.359340 0.933839
H1    H     H_    0.941855 0.214731 0.365756 0.191333
H2    H     H_    0.679824 0.504238 0.726069 0.163110
H3    H     H_    0.783956 0.504461 0.275015 0.143427
H4    H     H_    0.497595 0.109407 0.279190 0.161713
H5    H     H_    0.560154 0.210845 0.753969 0.163856
H6    H     H_    0.545769 0.110596 0.978229 0.138597
H7    H     H_    0.494287 0.907584 0.991724 0.139521
H8    H     H_    0.462382 0.801530 0.781472 0.170692
H9    H     H_    0.492255 0.887294 0.281027 0.164124
H10   H     H_    0.435970 0.359784 0.128417 0.139824
H11   H     H_    0.045147 0.213740 0.365910 0.190924
H12   H     H_    0.579517 0.671927 0.255448 0.203647
H13   H     H_    0.641356 0.807131 0.130143 0.163870
H14   H     H_    0.641355 0.806873 0.873532 0.165718
H15   H     H_    0.579183 0.671906 0.746656 0.204540
H16   H     H_    0.436016 0.359791 0.869364 0.146989
H17   H     H_    0.058175 0.791903 0.634233 0.191751
H18   H     H_    0.954869 0.792879 0.634122 0.190592
H19   H     H_    0.216095 0.502878 0.725023 0.143061
H20   H     H_    0.320257 0.502075 0.726142 0.158206
H21   H     H_    0.320134 0.498101 0.274011 0.158535
H22   H     H_    0.215988 0.499479 0.275256 0.143106
H23   H     H_    0.784037 0.505754 0.724803 0.143698
N1    N     N_R   0.851995 0.504687 0.499829 -0.469817
N2    N     N_R   0.148034 0.501892 0.500166 -0.470032
N3    N     N_R   0.500540 0.501210 0.147910 -0.197524
N4    N     N_R   0.500560 0.501290 0.852040 -0.203484
O1    O     O_R   0.500000 0.319640 0.618810 -0.586899
O2    O     O_2   0.846610 0.302893 0.407987 -0.534467
O3    O     O_2   0.144330 0.300059 0.408392 -0.533115
O4    O     O_2   0.153448 0.703692 0.591992 -0.532643
O5    O     O_R   0.500000 0.319660 0.381240 -0.578703
O6    O     O_R   0.417880 0.499950 0.618810 -0.581689
O7    O     O_R   0.417880 0.499980 0.381240 -0.578728
O8    O     O_R   0.500000 0.680340 0.618760 -0.612651
O9    O     O_R   0.500000 0.680360 0.381190 -0.597831
O10   O     O_R   0.582120 0.500020 0.618760 -0.604489
O11   O     O_R   0.582120 0.500050 0.381190 -0.597989
O12   O     O_2   0.855645 0.706432 0.591798 -0.536167
H24   H     H_    0.679750 0.502498 0.273883 0.164384

loop_
_geom_bond_atom_site_label_1
_geom_bond_atom_site_label_2
_ccdc_geom_bond_type
Cu1   O10   S    
C19   C20   A    
C16   H22   S    
Cu2   O7    S    
C7    C8    A    
C45   C46   A    
C2    C46   A    
C5    C47   A    
C26   C27   A    
C29   C30   A    
C18   C24   A    
C36   C37   A    
C5    C6    A    
C13   H20   S    
C15   C16   A    
C1    C31   S    
Cu1   O1    S    
C12   O7    A    
C18   C19   A    
C19   H2    S    
C11   C17   A    
C31   C32   A    
C16   C17   A    
C23   O9    A    
Cu2   O11   S    
C20   C34   S    
C33   H9    S    
C21   C22   A    
C1    O1    A    
C39   H15   S    
C36   C41   A    
C36   H12   S    
C32   H4    S    
C37   H13   S    
C22   H3    S    
C38   H14   S    
C21   H24   S    
C3    H11   S    
C38   C39   A    
Cu1   O8    S    
C27   H7    S    
C42   H10   S    
C39   C40   A    
C25   C26   A    
C12   O6    A    
C45   N1    A    
C9    O3    S    
C8    C48   A    
C37   C38   A    
Cu2   N3    S    
C10   N2    A    
C47   C48   A    
C45   O2    S    
C34   O11   A    
C44   N1    A    
C40   C41   A    
C12   C14   S    
C8    H18   S    
C18   H23   S    
C23   C35   S    
C22   C24   A    
C42   C43   A    
C3    C4    A    
Cu2   O5    S    
C25   C30   A    
C46   C47   A    
C28   C29   A    
C40   N4    A    
C25   H5    S    
C4    C5    A    
C26   H6    S    
C6    C10   A    
C11   H19   S    
C6    C7    A    
C28   H8    S    
C43   N4    A    
C15   H21   S    
C29   C35   A    
C10   O4    S    
C42   N3    A    
C32   C33   A    
Cu1   O6    S    
C2    C3    A    
C1    O5    A    
C41   N3    A    
C11   C13   A    
C24   N1    S    
C30   C31   A    
C43   H16   S    
C33   C35   A    
Cu1   N4    S    
C34   O10   A    
C2    H1    S    
Cu2   O9    S    
C7    H17   S    
C20   C21   A    
Cu1   Cu2   S    
C23   O8    A    
C27   C28   A    
C17   N2    S    
C14   C15   A    
C9    N2    A    
C4    C9    A    
C13   C14   A    
C44   O12   S    
C44   C48   A    
