data_mof_unit_14882.cif
_audit_creation_date              2013-03-05T15:48:16-0500
_audit_creation_method            fapswitch 2.2
_symmetry_space_group_name_H-M    P1
_symmetry_Int_Tables_number       1
_space_group_crystal_system       triclinic
_cell_length_a                    11.766191
_cell_length_b                    13.060572
_cell_length_c                    15.742496
_cell_angle_alpha                 95.047256
_cell_angle_beta                  75.107778
_cell_angle_gamma                 99.719921
_cell_volume                      2301.85348934

loop_
_atom_site_label
_atom_site_type_symbol
_atom_site_description
_atom_site_fract_x
_atom_site_fract_y
_atom_site_fract_z
_atom_type_partial_charge
O1    O     O_R   0.419950 0.645670 0.495380 -0.571118
O2    O     O_R   0.580050 0.354330 0.504620 -0.590593
O3    O     O_R   0.611110 0.658410 0.506370 -0.547975
O4    O     O_R   0.388890 0.341590 0.493630 -0.551287
C1    C     C_R   0.522573 0.701059 0.499044 0.819203
C2    C     C_R   0.476188 0.299675 0.505159 0.844000
O5    O     O_R   0.350820 0.490050 0.621260 -0.509361
O6    O     O_R   0.649180 0.509950 0.378740 -0.538493
O7    O     O_R   0.541970 0.502800 0.632250 -0.511327
O8    O     O_R   0.458030 0.497200 0.367750 -0.502774
C3    C     C_R   0.427885 0.485202 0.667296 0.876022
C4    C     C_R   0.572413 0.513304 0.332205 0.873492
Cu1   Cu    Cu3+1 0.386820 0.492450 0.493500 1.070102
Cu2   Cu    Cu3+1 0.613180 0.507550 0.506500 1.049326
C5    C     C_R   0.387843 0.457249 0.761412 -0.273016
C6    C     C_R   0.614076 0.539448 0.237302 -0.312619
C7    C     C_R   0.238520 0.386518 0.889054 0.243719
C8    C     C_R   0.771124 0.581508 0.103453 0.285457
C9    C     C_R   0.267258 0.421823 0.802363 0.321836
C10   C     C_R   0.736225 0.553137 0.192114 0.309516
C11   C     C_R   0.473935 0.452789 0.808934 0.228984
C12   C     C_R   0.530442 0.555870 0.190925 0.229047
C13   C     C_R   0.437706 0.463437 0.901678 -0.078919
C14   C     C_R   0.563492 0.546237 0.097854 -0.069329
C15   C     C_R   0.319831 0.418532 0.942736 -0.155606
C16   C     C_R   0.684038 0.577855 0.055228 -0.166896
C17   C     C_R   0.517060 0.510265 0.953709 0.075679
C18   C     C_R   0.482098 0.503797 0.046199 0.085253
C19   C     C_R   0.371028 0.446946 0.084112 -0.209172
C20   C     C_R   0.628350 0.568003 0.916087 -0.200631
C21   C     C_R   0.289868 0.406002 0.034541 0.384193
C22   C     C_R   0.712712 0.599768 0.965097 0.382900
H1    H     H_    0.345871 0.434733 0.153658 0.177316
H2    H     H_    0.652087 0.586015 0.847367 0.187949
C23   C     C_R   0.459853 0.186357 0.513988 -0.188349
C24   C     C_R   0.538299 0.815611 0.498330 -0.215309
C25   C     C_R   0.651261 0.987511 0.515787 0.294106
C26   C     C_R   0.341911 0.014424 0.513039 0.297474
C27   C     C_R   0.644724 0.878907 0.507802 0.336277
C28   C     C_R   0.347734 0.123385 0.522760 0.352201
C29   C     C_R   0.443531 0.862477 0.490976 -0.226067
C30   C     C_R   0.558551 0.140893 0.515534 -0.220467
C31   C     C_R   0.446353 0.969897 0.502396 -0.056692
C32   C     C_R   0.552995 0.033235 0.510854 -0.058233
H3    H     H_    0.639871 0.190181 0.521262 0.222917
H4    H     H_    0.366761 0.814346 0.476959 0.232146
N1    N     N_R   0.216750 0.481110 0.483710 -0.239172
N2    N     N_R   0.783250 0.518890 0.516290 -0.252636
C33   C     C_R   0.926631 0.563053 0.603916 -0.412384
C34   C     C_R   0.072173 0.433315 0.397595 -0.420253
C35   C     C_R   0.813904 0.567598 0.589736 0.627934
C36   C     C_R   0.186030 0.429620 0.411148 0.610430
C37   C     C_R   0.865092 0.470295 0.453666 0.543223
C38   C     C_R   0.135264 0.530628 0.545456 0.558433
C39   C     C_R   0.984316 0.475784 0.462319 -0.124119
C40   C     C_R   0.015467 0.523383 0.538019 -0.146474
H5    H     H_    0.943188 0.589295 0.667166 0.205389
H6    H     H_    0.051382 0.402277 0.337029 0.188355
N3    N     N_R   0.176277 0.355228 0.080137 0.134834
O9    O     O_R   0.158721 0.254962 0.087197 -0.331090
O10   O     O_R   0.099453 0.410544 0.128550 -0.350542
N4    N     N_R   0.822844 0.661031 0.923910 0.147478
O11   O     O_R   0.887593 0.628104 0.849894 -0.415095
O12   O     O_R   0.846436 0.757359 0.951140 -0.283124
O13   O     O_3   0.271675 0.379981 0.351321 -0.555870
C41   C     C_3   0.225451 0.301650 0.295927 -0.015763
H7    H     H_    0.197067 0.337036 0.245053 0.205226
H8    H     H_    0.148542 0.248300 0.333461 0.138530
C42   C     C_3   0.322666 0.238035 0.249183 -0.711551
H9    H     H_    0.351919 0.198321 0.297532 0.221037
H10   H     H_    0.288414 0.178442 0.203387 0.249621
H11   H     H_    0.400782 0.289319 0.211077 0.240335
O14   O     O_3   0.729163 0.612714 0.653187 -0.553851
C43   C     C_3   0.774615 0.714429 0.679371 0.043505
H12   H     H_    0.833129 0.758476 0.622883 0.192765
H13   H     H_    0.825504 0.711710 0.729216 0.191999
C44   C     C_3   0.671181 0.773110 0.721281 -0.625888
H14   H     H_    0.615607 0.735234 0.781737 0.211210
H15   H     H_    0.705618 0.854534 0.738956 0.245377
H16   H     H_    0.614670 0.773723 0.674774 0.247717
N5    N     N_R   0.430997 0.609577 0.234521 0.157059
O15   O     O_R   0.436898 0.668460 0.304868 -0.356531
O16   O     O_R   0.354495 0.625890 0.192354 -0.346892
N6    N     N_R   0.576481 0.401443 0.768133 0.169873
O17   O     O_R   0.652799 0.390140 0.812183 -0.350372
O18   O     O_R   0.574408 0.339645 0.698802 -0.329624
O19   O     O_3   0.821570 0.531706 0.231466 -0.503850
C45   C     C_3   0.882414 0.624939 0.261870 0.101616
H17   H     H_    0.849509 0.632158 0.334248 0.162980
H18   H     H_    0.870333 0.697059 0.234198 0.126945
C46   C     C_3   0.014981 0.618900 0.240943 -0.550667
H19   H     H_    0.051668 0.608239 0.169086 0.303483
H20   H     H_    0.063609 0.691403 0.264697 0.187635
H21   H     H_    0.030192 0.552589 0.273463 0.255591
O20   O     O_3   0.184099 0.401297 0.752255 -0.533255
C47   C     C_3   0.086605 0.455324 0.789060 0.127358
H22   H     H_    0.106740 0.535097 0.765459 0.203667
H23   H     H_    0.064329 0.465097 0.861716 0.197082
C48   C     C_3   0.976928 0.397188 0.762147 -0.569834
H24   H     H_    0.956875 0.316849 0.785632 0.274931
H25   H     H_    0.899104 0.437338 0.791403 0.254398
H26   H     H_    0.992196 0.393465 0.689594 0.219117
N7    N     N_R   0.136609 0.308051 0.915264 0.172260
O21   O     O_R   0.037122 0.331964 0.965063 -0.260367
O22   O     O_R   0.137430 0.215887 0.876521 -0.256367
N8    N     N_R   0.894995 0.596431 0.059952 0.159702
O23   O     O_R   0.959549 0.687193 0.063604 -0.321803
O24   O     O_R   0.944494 0.517950 0.019915 -0.292450
O25   O     O_3   0.245419 0.166569 0.560063 -0.512509
C49   C     C_3   0.179986 0.169231 0.497152 0.095377
H27   H     H_    0.147576 0.090518 0.472273 0.196943
H28   H     H_    0.235303 0.214072 0.441029 0.154069
C50   C     C_3   0.072464 0.222300 0.539659 -0.610034
H29   H     H_    0.101895 0.300218 0.567499 0.229621
H30   H     H_    0.023477 0.231345 0.489989 0.197447
H31   H     H_    0.012114 0.175282 0.593411 0.297932
O26   O     O_3   0.741609 0.835283 0.513100 -0.554039
C51   C     C_3   0.825129 0.840561 0.430668 0.085512
H32   H     H_    0.849001 0.920779 0.406501 0.187170
H33   H     H_    0.788833 0.788950 0.380897 0.109858
C52   C     C_3   0.938652 0.806836 0.439759 -0.700407
H34   H     H_    0.922191 0.723754 0.455771 0.203431
H35   H     H_    0.008290 0.818186 0.377359 0.223288
H36   H     H_    0.970679 0.854694 0.493211 0.305941
N9    N     N_R   0.756661 0.049845 0.532424 0.121976
O27   O     O_R   0.794989 0.032081 0.599426 -0.312055
O28   O     O_R   0.825465 0.109887 0.472314 -0.466980
N10   N     N_R   0.228953 0.949208 0.521425 0.072612
O29   O     O_R   0.145473 0.953751 0.593583 -0.333601
O30   O     O_R   0.204811 0.894959 0.453179 -0.427718
O31   O     O_3   0.169652 0.582332 0.617370 -0.587143
C53   C     C_3   0.176960 0.690987 0.613114 0.091803
H37   H     H_    0.088526 0.716384 0.635705 0.164393
H38   H     H_    0.215432 0.716541 0.545250 0.173448
C54   C     C_3   0.252083 0.746081 0.674086 -0.691361
H39   H     H_    0.340433 0.720042 0.657850 0.221460
H40   H     H_    0.264762 0.831453 0.667706 0.244406
H41   H     H_    0.206635 0.728238 0.743389 0.249920
O32   O     O_3   0.835028 0.427103 0.377226 -0.538638
C55   C     C_3   0.824442 0.317283 0.373269 0.043537
H42   H     H_    0.732052 0.283639 0.402583 0.182215
H43   H     H_    0.883070 0.287154 0.407253 0.160557
C56   C     C_3   0.851799 0.277000 0.277656 -0.629768
H44   H     H_    0.946510 0.301840 0.245062 0.276623
H45   H     H_    0.833851 0.190668 0.274494 0.207050
H46   H     H_    0.794981 0.306857 0.241976 0.275509

loop_
_geom_bond_atom_site_label_1
_geom_bond_atom_site_label_2
_geom_bond_distance
_ccdc_geom_bond_type
C15   C21   1.414227 A    
C54   H41   1.110556 S    
C41   H8    1.112758 S    
O19   C45   1.415468 S    
C1    C24   1.476866 S    
C16   C22   1.414830 A    
C56   H46   1.110893 S    
O14   C43   1.413434 S    
O20   C47   1.417476 S    
C8    C16   1.416172 A    
C55   C56   1.521446 S    
C39   C40   1.399355 A    
N10   O29   1.301149 A    
C51   H33   1.110183 S    
N5    O15   1.301644 A    
C54   H39   1.108677 S    
C44   H14   1.109865 S    
O5    C3    1.310234 A    
C38   O31   1.382040 S    
C43   H13   1.108654 S    
O1    C1    1.310794 A    
C18   C19   1.401731 A    
C26   C28   1.409767 A    
C14   C16   1.412223 A    
C41   C42   1.523443 S    
N8    O23   1.300699 A    
C56   H44   1.106207 S    
C47   C48   1.521492 S    
C19   H1    1.076993 S    
C33   H5    1.078881 S    
C2    C23   1.474133 S    
C56   H45   1.110655 S    
C21   N3    1.425714 S    
O4    Cu1   1.974763 S    
C42   H10   1.110256 S    
C23   C30   1.397046 A    
C49   H27   1.108707 S    
C52   H36   1.109815 S    
N4    O12   1.300762 A    
C51   H32   1.112269 S    
C3    C5    1.492892 S    
N2    C35   1.370799 A    
C4    C6    1.498581 S    
C53   H37   1.106697 S    
C33   C35   1.411989 A    
C43   C44   1.522195 S    
C47   H23   1.106691 S    
C34   C36   1.418841 A    
C29   H4    1.070564 S    
C45   C46   1.523361 S    
C13   C17   1.424404 A    
C6    C10   1.419059 A    
C50   H31   1.110273 S    
C44   H15   1.110362 S    
C41   H7    1.105118 S    
N3    O9    1.300911 A    
Cu1   Cu2   2.696324 S    
C17   C20   1.407355 A    
C29   C31   1.394519 A    
C24   C29   1.393091 A    
O2    C2    1.305459 A    
C30   C32   1.392817 A    
N5    O16   1.301174 A    
C25   N9    1.434542 S    
C37   C39   1.433216 A    
N2    C37   1.382153 A    
C38   C40   1.430860 A    
N3    O10   1.299778 A    
C43   H12   1.112345 S    
C20   H2    1.082108 S    
C34   H6    1.073147 S    
C12   N5    1.453216 S    
C35   O14   1.386369 S    
N6    O17   1.300720 A    
O4    C2    1.300333 A    
C46   H19   1.107677 S    
Cu1   N1    2.025938 S    
Cu2   N2    2.025936 S    
C27   O26   1.381181 S    
C6    C12   1.419686 A    
C30   H3    1.078977 S    
C42   H11   1.110266 S    
C5    C9    1.415425 A    
O7    Cu2   1.943262 S    
C8    N8    1.430308 S    
N4    O11   1.299687 A    
C46   H20   1.108424 S    
C48   H24   1.110466 S    
C11   N6    1.455053 S    
C5    C11   1.416445 A    
O6    C4    1.309035 A    
C47   H22   1.104175 S    
N7    O22   1.301052 A    
C55   H42   1.097414 S    
O7    C3    1.302522 A    
C49   C50   1.519235 S    
C52   H34   1.109308 S    
N1    C36   1.372136 A    
O3    Cu2   1.974763 S    
O8    C4    1.306414 A    
N1    C38   1.379169 A    
C53   H38   1.104902 S    
C48   H25   1.108359 S    
C45   H18   1.116439 S    
C11   C13   1.413177 A    
C31   C32   1.411551 A    
N9    O27   1.301016 A    
C12   C14   1.415973 A    
O1    Cu1   1.972182 S    
O31   C53   1.413610 S    
C17   C18   1.413648 A    
C9    O20   1.386526 S    
C50   H29   1.108218 S    
C44   H16   1.109609 S    
C54   H40   1.109691 S    
O6    Cu2   1.947894 S    
C37   O32   1.386867 S    
C24   C27   1.413650 A    
C14   C18   1.423879 A    
C55   H43   1.111444 S    
O3    C1    1.295295 A    
O8    Cu1   1.943262 S    
N10   O30   1.300739 A    
C26   N10   1.434139 S    
O32   C55   1.415838 S    
C28   O25   1.385581 S    
C33   C40   1.402898 A    
C34   C39   1.402588 A    
C7    C15   1.422198 A    
C25   C32   1.409595 A    
C23   C28   1.412727 A    
C7    N7    1.436492 S    
C22   N4    1.431476 S    
C26   C31   1.412365 A    
C19   C21   1.394285 A    
O25   C49   1.407761 S    
C46   H21   1.105268 S    
C20   C22   1.396766 A    
C10   O19   1.384077 S    
N8    O24   1.298592 A    
C53   C54   1.523211 S    
C7    C9    1.417864 A    
C8    C10   1.413885 A    
C13   C15   1.420068 A    
C42   H9    1.109620 S    
O2    Cu2   1.972181 S    
C49   H28   1.101806 S    
C52   H35   1.108691 S    
O5    Cu1   1.947892 S    
C48   H26   1.107645 S    
C45   H17   1.106224 S    
C25   C27   1.403715 A    
O13   C41   1.414853 S    
N7    O21   1.300416 A    
N9    O28   1.299324 A    
N6    O18   1.302033 A    
O26   C51   1.411332 S    
C51   C52   1.518783 S    
C36   O13   1.395770 S    
C50   H30   1.108376 S    
