data_mof_unit_55381.cif
_audit_creation_date              2013-03-05T15:46:53-0500
_audit_creation_method            fapswitch 2.2
_symmetry_space_group_name_H-M    P1
_symmetry_Int_Tables_number       1
_space_group_crystal_system       triclinic
_cell_length_a                    14.757406
_cell_length_b                    14.885164
_cell_length_c                    14.870083
_cell_angle_alpha                 109.227129
_cell_angle_beta                  109.670684
_cell_angle_gamma                 109.238837
_cell_volume                      2523.04318682

loop_
_atom_site_label
_atom_site_type_symbol
_atom_site_description
_atom_site_fract_x
_atom_site_fract_y
_atom_site_fract_z
_atom_type_partial_charge
C1    C     C_R   0.191801 0.990071 0.899825 -0.146751
C2    C     C_R   0.746208 0.931385 0.023134 -0.132352
H1    H     H_    0.163029 0.011443 0.837171 0.106368
H2    H     H_    0.753325 0.875684 0.052882 0.106890
N1    N     N_R   0.293810 0.002730 0.945950 -0.046378
N2    N     N_R   0.706190 0.997270 0.054050 -0.046304
C3    C     C_R   0.804620 0.208937 0.300585 -0.133439
C4    C     C_R   0.251750 0.777601 0.685411 -0.105183
H3    H     H_    0.832833 0.175933 0.351978 0.086228
H4    H     H_    0.241606 0.799785 0.622039 0.094917
N3    N     N_R   0.706160 0.152130 0.208910 -0.038662
N4    N     N_R   0.293840 0.847870 0.791090 -0.042387
C5    C     C_R   0.407089 0.973433 0.222466 -0.122671
C6    C     C_R   0.591574 0.095670 0.791283 -0.057181
H5    H     H_    0.321175 0.940725 0.200414 0.099975
H6    H     H_    0.676183 0.156416 0.824660 0.080018
N5    N     N_R   0.443140 0.945920 0.152090 -0.041939
N6    N     N_R   0.556860 0.054080 0.847910 -0.041986
C7    C     C_R   0.589410 0.315607 0.058564 -0.119157
C8    C     C_R   0.408924 0.705627 0.012188 -0.134389
H7    H     H_    0.674608 0.380691 0.108836 0.098097
H8    H     H_    0.323971 0.659226 0.990554 0.102283
N7    N     N_R   0.556830 0.208940 0.002760 -0.045045
N8    N     N_R   0.443170 0.791060 0.997240 -0.042002
C9    C     C_R   0.592194 0.065788 0.314619 -0.125570
C10   C     C_R   0.407957 0.004153 0.699692 -0.132617
H9    H     H_    0.678082 0.118658 0.377657 0.096111
H10   H     H_    0.322914 0.980373 0.648503 0.084430
N9    N     N_R   0.556790 0.002750 0.208910 -0.042101
N10   N     N_R   0.443210 0.997250 0.791090 -0.039469
C11   C     C_R   0.404753 0.219746 0.970969 -0.134209
C12   C     C_R   0.591848 0.794184 0.101207 -0.140445
H11   H     H_    0.318968 0.191597 0.945300 0.130048
H12   H     H_    0.677501 0.826746 0.158757 0.114908
N11   N     N_R   0.443180 0.152110 0.945950 -0.045680
N12   N     N_R   0.556820 0.847890 0.054050 -0.040892
C13   C     C_R   0.803826 0.300609 0.209179 -0.138268
C14   C     C_R   0.252150 0.685712 0.778093 -0.079085
H13   H     H_    0.830811 0.352197 0.176227 0.090250
H14   H     H_    0.242973 0.623095 0.801165 0.096158
N13   N     N_R   0.706170 0.208950 0.152090 -0.038974
N14   N     N_R   0.293830 0.791050 0.847910 -0.038398
C15   C     C_R   0.194882 0.903321 0.995196 -0.115568
C16   C     C_R   0.750137 0.026855 0.934568 -0.093280
H15   H     H_    0.172217 0.847915 0.025320 0.151885
H16   H     H_    0.764141 0.062923 0.885149 0.133779
N15   N     N_R   0.293800 0.945910 0.002760 -0.050097
N16   N     N_R   0.706200 0.054090 0.997240 -0.054118
C17   C     C_R   0.126229 0.925334 0.926853 0.109385
C18   C     C_R   0.771839 0.945516 0.944978 0.115565
C19   C     C_R   0.868380 0.302534 0.302796 0.053548
C20   C     C_R   0.226272 0.674629 0.674763 0.031886
C21   C     C_R   0.499379 0.050934 0.325606 0.044950
C22   C     C_R   0.499600 0.066683 0.697925 0.052730
C23   C     C_R   0.494053 0.324888 0.039833 0.055211
C24   C     C_R   0.500380 0.706141 0.080205 0.064606
Ni1   Ni    Ni4+2 0.369690 0.999990 0.869700 0.217344
Ni2   Ni    Ni4+2 0.630310 0.000010 0.130300 0.214185
Ni3   Ni    Ni4+2 0.369670 0.869670 0.000000 0.240307
Ni4   Ni    Ni4+2 0.630330 0.130330 0.000000 0.215849
H17   H     H_    0.997858 0.097724 0.687446 0.153595
H18   H     H_    0.969412 0.001987 0.497169 0.095723
C25   C     C_R   0.165121 0.211406 0.741767 -0.158042
C26   C     C_R   0.792381 0.912845 0.426094 -0.066542
H19   H     H_    0.154171 0.181281 0.659842 0.111473
H20   H     H_    0.789817 0.978807 0.482459 0.140860
C27   C     C_R   0.267411 0.297783 0.831826 -0.133453
C28   C     C_R   0.694320 0.814789 0.344640 -0.122655
H21   H     H_    0.335224 0.334318 0.818923 0.121153
H22   H     H_    0.616456 0.805978 0.339010 0.130071
C29   C     C_R   0.282205 0.336304 0.938409 0.100804
C30   C     C_R   0.696770 0.729028 0.270256 0.090380
C31   C     C_R   0.192795 0.289992 0.953538 -0.187140
C32   C     C_R   0.799300 0.742790 0.280077 -0.157489
H23   H     H_    0.202591 0.320330 0.035065 0.127831
H24   H     H_    0.803449 0.678523 0.223330 0.123879
C33   C     C_R   0.090561 0.203745 0.863159 -0.086415
C34   C     C_R   0.897115 0.840925 0.361847 -0.093309
H25   H     H_    0.022042 0.167832 0.875259 0.144506
H26   H     H_    0.975637 0.851323 0.368447 0.115278
C35   C     C_R   0.076869 0.164321 0.757432 -0.090038
C36   C     C_R   0.893629 0.925927 0.434539 -0.119988
C37   C     C_R   0.394175 0.530216 0.061658 -0.214806
C38   C     C_R   0.586476 0.525105 0.162931 -0.217483
H27   H     H_    0.317701 0.529789 0.022044 0.131191
H28   H     H_    0.660106 0.523872 0.209039 0.126299
C39   C     C_R   0.496319 0.625438 0.117806 0.043245
C40   C     C_R   0.488364 0.426487 0.079780 0.063378
C41   C     C_R   0.592188 0.626042 0.182360 0.041601
C42   C     C_R   0.389163 0.429952 0.032800 0.024191
C43   C     C_R   0.036504 0.477621 0.378217 -0.168622
C44   C     C_R   0.129232 0.471982 0.572152 -0.152624
H29   H     H_    0.001630 0.483074 0.304942 0.114387
H30   H     H_    0.162227 0.467683 0.646488 0.113562
C45   C     C_R   0.128333 0.570912 0.471502 -0.150409
C46   C     C_R   0.037294 0.378670 0.478947 -0.163294
H31   H     H_    0.160574 0.644601 0.466549 0.114086
H32   H     H_    0.002957 0.306127 0.485132 0.109108
C47   C     C_R   0.166973 0.571402 0.571707 0.141230
C48   C     C_R   0.984020 0.384463 0.384880 0.134824
C49   C     C_R   0.599529 0.159360 0.622434 -0.126784
C50   C     C_R   0.398872 0.058438 0.429231 -0.158368
H33   H     H_    0.678668 0.197356 0.695307 0.121707
H34   H     H_    0.319878 0.017199 0.355144 0.116901
C51   C     C_R   0.599399 0.157267 0.528718 -0.146824
C52   C     C_R   0.398897 0.060591 0.522970 -0.164115
H35   H     H_    0.678405 0.193873 0.533081 0.116354
H36   H     H_    0.319856 0.020854 0.517530 0.108276
C53   C     C_R   0.499154 0.095563 0.428862 0.131360
C54   C     C_R   0.499300 0.100882 0.616451 0.122618
C55   C     C_R   0.949205 0.820764 0.922544 0.365243
C56   C     C_R   0.854656 0.920182 0.821792 0.352015
C57   C     C_R   0.862351 0.831783 0.932165 -0.312551
C58   C     C_R   0.951284 0.922629 0.824973 -0.329168
H37   H     H_    0.827267 0.794380 0.972173 0.177037
H38   H     H_    0.983932 0.956368 0.781485 0.173968
C59   C     C_R   0.824337 0.893739 0.893920 -0.048183
C60   C     C_R   0.006416 0.884329 0.886687 -0.047037
N17   N     N_R   0.975102 0.743230 0.945584 0.220053
O1    O     O_R   0.992264 0.678059 0.878488 -0.410679
O2    O     O_R   0.963863 0.725081 0.022108 -0.430096
N18   N     N_R   0.786721 0.939832 0.743751 0.223995
O3    O     O_R   0.679642 0.888480 0.701440 -0.399268
O4    O     O_R   0.828151 0.993342 0.700881 -0.470114

loop_
_geom_bond_atom_site_label_1
_geom_bond_atom_site_label_2
_geom_bond_distance
_ccdc_geom_bond_type
C37   C39   1.394117 A    
C25   H19   1.082231 S    
C18   C59   1.474701 S    
N5    N9    1.372100 A    
C6    N6    1.333972 A    
C2    H2    1.077876 S    
C8    C24   1.383366 A    
C56   C58   1.398642 A    
C3    N3    1.334999 A    
C51   H35   1.080554 S    
N8    N12   1.372101 A    
N2    N16   1.378244 A    
C25   C35   1.397082 A    
C55   C60   1.414651 A    
C1    N1    1.343484 A    
C12   N12   1.339963 A    
C7    H7    1.079687 S    
C9    C21   1.388010 A    
C14   N14   1.333061 A    
N12   Ni2   1.857910 S    
C56   C59   1.410874 A    
C13   C19   1.381747 A    
C34   H26   1.082407 S    
C14   C20   1.389410 A    
C45   C47   1.401272 A    
C16   C18   1.392125 A    
N10   Ni1   1.843045 S    
C44   C46   1.383896 A    
C22   C54   1.459815 S    
C55   N17   1.434693 S    
C23   C40   1.473972 S    
N2    Ni2   1.842719 S    
N4    N14   1.378364 A    
C2    C18   1.393738 A    
C8    N8    1.326743 A    
C46   H32   1.080469 S    
C11   H11   1.069443 S    
N3    N13   1.378364 A    
N6    N10   1.372100 A    
C43   C48   1.402471 A    
N3    Ni2   1.857970 S    
C15   N15   1.333460 A    
C4    C20   1.391431 A    
C28   C30   1.407744 A    
C33   H25   1.081747 S    
H18   C36   1.081572 S    
C49   H33   1.080335 S    
C9    N9    1.332996 A    
C31   H23   1.083034 S    
C2    N2    1.337695 A    
C10   C22   1.380760 A    
C16   H16   1.077023 S    
N16   Ni4   1.838688 S    
C5    C21   1.389598 A    
N17   O2    1.302049 A    
C49   C51   1.382947 A    
N7    Ni4   1.839057 S    
C25   C27   1.396844 A    
C30   C32   1.407109 A    
C29   C31   1.403346 A    
C15   C17   1.382572 A    
C24   C39   1.475387 S    
C49   C54   1.401898 A    
N15   Ni3   1.838689 S    
C1    H1    1.080476 S    
C26   H20   1.082483 S    
C7    N7    1.342115 A    
C56   N18   1.439057 S    
C43   H29   1.080253 S    
N1    N15   1.378244 A    
C34   C36   1.396962 A    
C17   C60   1.480971 S    
C33   C35   1.399030 A    
C4    N4    1.334710 A    
C44   H30   1.080665 S    
C55   C57   1.391686 A    
C50   H34   1.080677 S    
C15   H15   1.074751 S    
C26   C36   1.397162 A    
C58   C60   1.405966 A    
C32   H24   1.082895 S    
N5    Ni3   1.850984 S    
C57   C59   1.400079 A    
N4    Ni1   1.857970 S    
N6    Ni4   1.850986 S    
C37   H27   1.079787 S    
C40   C42   1.420853 A    
C10   N10   1.333997 A    
N7    N11   1.372099 A    
C39   C41   1.412351 A    
C6    H6    1.079878 S    
C38   C41   1.400790 A    
N18   O4    1.300203 A    
C26   C28   1.398296 A    
C52   C54   1.402161 A    
C21   C53   1.460128 S    
C19   C48   1.461214 S    
C3    H3    1.080077 S    
C37   C42   1.378793 A    
C51   C53   1.401573 A    
C6    C22   1.380815 A    
C38   C40   1.406659 A    
N13   Ni4   1.851095 S    
C8    H8    1.078782 S    
N14   Ni3   1.851097 S    
C58   H38   1.080145 S    
N17   O1    1.302018 A    
C45   H31   1.080648 S    
N1    Ni1   1.842718 S    
C9    H9    1.077696 S    
C20   C47   1.461291 S    
C10   H10   1.080003 S    
C5    N5    1.334948 A    
N11   Ni1   1.857909 S    
C11   C23   1.382550 A    
C5    H5    1.077125 S    
C3    C19   1.382956 A    
C13   H13   1.079825 S    
H17   C35   1.080352 S    
C14   H14   1.078657 S    
C30   C41   1.484386 S    
C29   C42   1.474612 S    
C52   H36   1.080410 S    
N8    Ni3   1.839056 S    
C46   C48   1.402101 A    
C11   N11   1.321051 A    
C50   C52   1.383560 A    
C27   C29   1.405119 A    
C13   N13   1.332964 A    
C43   C45   1.383698 A    
C7    C23   1.402333 A    
N9    Ni2   1.843043 S    
C4    H4    1.077966 S    
C32   C34   1.398173 A    
C28   H22   1.083169 S    
C31   C33   1.397381 A    
C38   H28   1.082121 S    
C50   C53   1.401427 A    
C27   H21   1.083213 S    
N18   O3    1.301953 A    
C1    C17   1.388846 A    
C12   C24   1.384896 A    
C16   N16   1.335834 A    
C44   C47   1.402155 A    
C12   H12   1.076962 S    
C57   H37   1.080510 S    
