data_mof_unit_31861.cif
_audit_creation_date              2013-03-05T15:51:40-0500
_audit_creation_method            fapswitch 2.2
_symmetry_space_group_name_H-M    P1
_symmetry_Int_Tables_number       1
_space_group_crystal_system       triclinic
_cell_length_a                    31.352816
_cell_length_b                    18.421208
_cell_length_c                    25.741185
_cell_angle_alpha                 89.840225
_cell_angle_beta                  144.169835
_cell_angle_gamma                 90.089968
_cell_volume                      8702.87006143

loop_
_atom_site_label
_atom_site_type_symbol
_atom_site_description
_atom_site_fract_x
_atom_site_fract_y
_atom_site_fract_z
_atom_type_partial_charge
Zn1   Zn    Zn3+2 0.000000 0.086750 0.293940 1.084856
Zn2   Zn    Zn3+2 0.000000 0.913250 0.706060 1.073208
Zn3   Zn    Zn3+2 0.000000 0.086750 0.706060 1.110766
Zn4   Zn    Zn3+2 0.000000 0.913250 0.293940 1.102063
Zn5   Zn    Zn3+2 0.500000 0.586750 0.293940 1.101197
Zn6   Zn    Zn3+2 0.500000 0.413250 0.706060 1.056422
Zn7   Zn    Zn3+2 0.500000 0.586750 0.706060 1.111413
Zn8   Zn    Zn3+2 0.500000 0.413250 0.293940 1.105181
Zn9   Zn    Zn3+2 0.913220 1.000000 0.119290 1.105551
Zn10  Zn    Zn3+2 0.086780 1.000000 0.880710 1.119890
Zn11  Zn    Zn3+2 0.413220 0.500000 0.119290 1.128950
Zn12  Zn    Zn3+2 0.586780 0.500000 0.880710 1.138960
Zn13  Zn    Zn3+2 0.086730 0.000000 0.292800 1.142900
Zn14  Zn    Zn3+2 0.913270 1.000000 0.707200 1.167729
Zn15  Zn    Zn3+2 0.586730 0.500000 0.292800 1.175553
Zn16  Zn    Zn3+2 0.413270 0.500000 0.707200 1.174204
O1    O     O_3   0.999990 0.000000 0.249990 -0.548239
O2    O     O_3   0.000010 1.000000 0.750010 -0.543212
O3    O     O_3   0.499990 0.500000 0.249990 -0.550086
O4    O     O_3   0.500010 0.500000 0.750010 -0.546180
O5    O     O_R   0.914560 0.853840 0.195310 -0.614607
O6    O     O_R   0.085440 0.146160 0.804690 -0.631572
O7    O     O_R   0.085440 0.853840 0.804690 -0.627012
O8    O     O_R   0.914560 0.146160 0.195310 -0.624522
O9    O     O_R   0.414560 0.353840 0.195310 -0.643471
O10   O     O_R   0.585440 0.646160 0.804690 -0.640755
O11   O     O_R   0.585440 0.353840 0.804690 -0.649977
O12   O     O_R   0.414560 0.646160 0.195310 -0.614239
O13   O     O_R   0.085440 0.146150 0.366190 -0.610084
O14   O     O_R   0.914560 0.853850 0.633810 -0.617788
O15   O     O_R   0.914560 0.146150 0.633810 -0.581177
O16   O     O_R   0.085440 0.853850 0.366190 -0.565160
O17   O     O_R   0.585440 0.646150 0.366190 -0.621550
O18   O     O_R   0.414560 0.353850 0.633810 -0.620835
O19   O     O_R   0.414560 0.646150 0.633810 -0.586403
O20   O     O_R   0.585440 0.353850 0.366190 -0.583648
O21   O     O_R   0.853820 0.085430 0.073070 -0.599424
O22   O     O_R   0.146180 0.914570 0.926930 -0.628557
O23   O     O_R   0.146180 0.085430 0.926930 -0.605333
O24   O     O_R   0.853820 0.914570 0.073070 -0.627465
O25   O     O_R   0.353820 0.585430 0.073070 -0.598041
O26   O     O_R   0.646180 0.414570 0.926930 -0.621037
O27   O     O_R   0.646180 0.585430 0.926930 -0.576469
O28   O     O_R   0.353820 0.414570 0.073070 -0.628979
O29   O     O_R   0.146150 0.914540 0.365390 -0.585792
O30   O     O_R   0.853850 0.085460 0.634610 -0.586086
O31   O     O_R   0.853850 0.914540 0.634610 -0.587636
O32   O     O_R   0.146150 0.085460 0.365390 -0.584870
O33   O     O_R   0.646150 0.414540 0.365390 -0.590548
O34   O     O_R   0.353850 0.585460 0.634610 -0.576059
O35   O     O_R   0.353850 0.414540 0.634610 -0.608271
O36   O     O_R   0.646150 0.585460 0.365390 -0.578023
O37   O     O_R   0.939240 1.000000 0.071950 -0.567394
O38   O     O_R   0.060760 1.000000 0.928050 -0.567505
O39   O     O_R   0.439240 0.500000 0.071950 -0.574760
O40   O     O_R   0.560760 0.500000 0.928050 -0.572969
O41   O     O_R   0.000020 0.939290 0.367320 -0.621314
O42   O     O_R   0.999980 0.060710 0.632680 -0.622672
O43   O     O_R   0.999980 0.939290 0.632680 -0.631703
O44   O     O_R   0.000020 0.060710 0.367320 -0.626639
O45   O     O_R   0.500020 0.439290 0.367320 -0.607282
O46   O     O_R   0.499980 0.560710 0.632680 -0.614372
O47   O     O_R   0.499980 0.439290 0.632680 -0.631612
O48   O     O_R   0.500020 0.560710 0.367320 -0.633286
O49   O     O_R   0.060680 1.000000 0.193390 -0.610583
O50   O     O_R   0.939320 1.000000 0.806610 -0.604394
O51   O     O_R   0.560680 0.500000 0.193390 -0.597000
O52   O     O_R   0.439320 0.500000 0.806610 -0.573673
C1    C     C_R   0.855830 0.865410 0.110444 0.851525
C2    C     C_R   0.138828 0.141186 0.889602 0.879900
C3    C     C_R   0.143470 0.863517 0.889848 0.838670
C4    C     C_R   0.860493 0.140039 0.110076 0.873470
C5    C     C_R   0.358951 0.360956 0.110403 0.894105
C6    C     C_R   0.640328 0.640960 0.891238 0.877281
C7    C     C_R   0.640508 0.360330 0.889692 0.862791
C8    C     C_R   0.360303 0.640196 0.110325 0.863269
C9    C     C_R   0.138133 0.142904 0.384364 0.875144
C10   C     C_R   0.863392 0.856366 0.618084 0.891365
C11   C     C_R   0.860362 0.140357 0.610934 0.918222
C12   C     C_R   0.138748 0.858378 0.387840 0.863265
C13   C     C_R   0.638412 0.643130 0.385180 0.904309
C14   C     C_R   0.362174 0.356988 0.616143 0.872363
C15   C     C_R   0.359750 0.639613 0.609425 0.920504
C16   C     C_R   0.640009 0.359968 0.389838 0.920597
C17   C     C_R   0.000998 0.001135 0.109792 0.855069
C18   C     C_R   0.998565 0.000084 0.889789 0.872325
C19   C     C_R   0.500968 0.484027 0.111192 0.915637
C20   C     C_R   0.499302 0.504007 0.890976 0.877497
C21   C     C_R   0.000121 0.000089 0.391760 0.907720
C22   C     C_R   0.999355 0.999838 0.607858 0.917281
C23   C     C_R   0.501068 0.499630 0.392593 0.927462
C24   C     C_R   0.499757 0.500131 0.608194 0.917431
C25   C     C_3   0.048216 0.951568 0.530709 0.117198
C26   C     C_3   0.949309 0.047732 0.467574 0.126344
C27   C     C_3   0.981093 0.932851 0.498310 0.115474
C28   C     C_3   0.016319 0.066871 0.499855 0.124742
C29   C     C_3   0.518908 0.432229 0.502347 0.136735
C30   C     C_3   0.483552 0.566177 0.499887 0.135648
C31   C     C_3   0.451977 0.451217 0.469948 0.105041
C32   C     C_3   0.550705 0.546946 0.532632 0.101303
C33   C     C_3   0.064984 0.017749 0.582150 0.057103
C34   C     C_3   0.932687 0.981836 0.416035 0.064015
C35   C     C_3   0.567334 0.481075 0.584530 0.070363
C36   C     C_3   0.435049 0.517037 0.417808 0.065433
C37   C     C_3   0.998183 0.999021 0.549479 -0.241026
C38   C     C_3   0.999740 0.000609 0.448834 -0.245851
C39   C     C_3   0.500328 0.500274 0.551468 -0.257119
C40   C     C_3   0.502032 0.498270 0.450806 -0.246666
C41   C     C_R   0.107866 0.300847 0.376443 0.194192
C42   C     C_R   0.894073 0.699395 0.622401 0.200977
C43   C     C_R   0.882571 0.278197 0.687480 0.153524
C44   C     C_R   0.108811 0.703721 0.333892 0.137313
C45   C     C_R   0.612772 0.799073 0.394318 0.189278
C46   C     C_R   0.393466 0.195551 0.635571 0.201451
C47   C     C_R   0.379215 0.771816 0.689126 0.168537
C48   C     C_R   0.626635 0.231287 0.310676 0.182495
C49   C     C_R   0.094300 0.357335 0.398498 0.144910
C50   C     C_R   0.904900 0.645795 0.595102 0.131873
C51   C     C_R   0.888483 0.338927 0.725815 0.133642
C52   C     C_R   0.099156 0.644753 0.290292 0.132799
C53   C     C_R   0.604446 0.851812 0.425371 0.138583
C54   C     C_R   0.408673 0.131690 0.622516 0.127101
C55   C     C_R   0.396422 0.840237 0.726247 0.147285
C56   C     C_R   0.620180 0.169108 0.273402 0.160981
C57   C     C_R   0.665026 0.872887 0.514938 0.122477
C58   C     C_R   0.354603 0.102888 0.536608 0.142791
C59   C     C_R   0.347916 0.898011 0.672074 0.152932
C60   C     C_R   0.669202 0.112094 0.327490 0.147430
C61   C     C_R   0.151091 0.382899 0.486042 0.100864
C62   C     C_R   0.845922 0.623820 0.506175 0.115347
C63   C     C_R   0.829375 0.385378 0.673929 0.156682
C64   C     C_R   0.159851 0.609300 0.329353 0.143006
C65   C     C_R   0.735467 0.849507 0.570122 0.214883
C66   C     C_R   0.283377 0.131534 0.467623 0.228848
C67   C     C_R   0.281005 0.887367 0.580455 0.195997
C68   C     C_R   0.727416 0.117850 0.419957 0.170440
C69   C     C_R   0.223184 0.359564 0.547933 0.201694
C70   C     C_R   0.774889 0.647516 0.448339 0.216786
C71   C     C_R   0.764650 0.373595 0.582398 0.174160
C72   C     C_R   0.229848 0.626911 0.416539 0.168960
C73   C     C_R   0.744225 0.804979 0.534200 -0.070999
C74   C     C_R   0.265226 0.186883 0.486001 -0.069121
C75   C     C_R   0.263822 0.818555 0.540050 -0.081819
C76   C     C_R   0.740041 0.184167 0.460908 -0.095215
C77   C     C_R   0.237742 0.310215 0.520997 -0.071914
C78   C     C_R   0.762767 0.692328 0.480113 -0.081002
C79   C     C_R   0.757674 0.313207 0.540224 -0.093578
C80   C     C_R   0.239585 0.685117 0.462276 -0.099485
C81   C     C_R   0.178811 0.270768 0.442197 -0.106674
C82   C     C_R   0.823596 0.729140 0.560211 -0.112241
C83   C     C_R   0.815505 0.261993 0.594478 -0.092908
C84   C     C_R   0.180370 0.731166 0.414311 -0.086193
C85   C     C_R   0.682580 0.768434 0.453798 -0.109005
C86   C     C_R   0.323261 0.227458 0.563941 -0.106241
C87   C     C_R   0.316124 0.761708 0.595151 -0.078529
C88   C     C_R   0.687179 0.240546 0.405459 -0.099075
C89   C     C_R   0.812419 0.794003 0.576639 0.001301
C90   C     C_R   0.192591 0.203032 0.431413 -0.038338
C91   C     C_R   0.195307 0.802481 0.448340 -0.021916
C92   C     C_R   0.804167 0.196230 0.554655 -0.047550
C93   C     C_R   0.308857 0.296186 0.571429 0.003744
C94   C     C_R   0.692920 0.704220 0.434308 0.004107
C95   C     C_R   0.695889 0.303640 0.446020 -0.043616
C96   C     C_R   0.304727 0.696675 0.554847 -0.025992
C97   C     C_R   0.836020 0.774889 0.182723 -0.198008
C98   C     C_R   0.152447 0.259586 0.822594 -0.196866
C99   C     C_R   0.176193 0.768418 0.827247 -0.212549
C100  C     C_R   0.820979 0.228002 0.162231 -0.191010
C101  C     C_R   0.367590 0.220417 0.179655 -0.203193
C102  C     C_R   0.667246 0.750391 0.835461 -0.219531
C103  C     C_R   0.641043 0.233005 0.815640 -0.177475
C104  C     C_R   0.311426 0.727243 0.152095 -0.185517
C105  C     C_R   0.854063 0.714747 0.229514 0.141456
C106  C     C_R   0.141420 0.324177 0.784514 0.112279
C107  C     C_R   0.194711 0.725602 0.802851 0.137329
C108  C     C_R   0.819123 0.281850 0.198282 0.129946
C109  C     C_R   0.362423 0.174864 0.217730 0.117390
C110  C     C_R   0.663412 0.809669 0.797872 0.120264
C111  C     C_R   0.653923 0.196506 0.782070 0.121782
C112  C     C_R   0.301368 0.778044 0.181895 0.117362
C113  C     C_R   0.293346 0.156433 0.168871 0.223943
C114  C     C_R   0.681643 0.879186 0.833519 0.195795
C115  C     C_R   0.725120 0.176581 0.839544 0.242271
C116  C     C_R   0.286877 0.850784 0.154993 0.193071
C117  C     C_R   0.810330 0.653767 0.183021 0.189152
C118  C     C_R   0.165754 0.389940 0.829628 0.198141
C119  C     C_R   0.262720 0.691638 0.867763 0.232251
C120  C     C_R   0.799094 0.352745 0.164904 0.217226
C121  C     C_R   0.230992 0.170876 0.076425 0.232506
C122  C     C_R   0.711861 0.887182 0.913498 0.224335
C123  C     C_R   0.780297 0.182024 0.932227 0.246171
C124  C     C_R   0.272546 0.869251 0.088589 0.245933
C125  C     C_R   0.745653 0.657216 0.089253 0.235977
C126  C     C_R   0.209707 0.388772 0.918289 0.228241
C127  C     C_R   0.308773 0.693786 0.957062 0.198169
C128  C     C_R   0.773411 0.366501 0.088755 0.229718
C129  C     C_R   0.240333 0.205066 0.036354 -0.055903
C130  C     C_R   0.731288 0.823422 0.960850 -0.047999
C131  C     C_R   0.762854 0.208501 0.965409 -0.050286
C132  C     C_R   0.259301 0.812019 0.039885 -0.067483
C133  C     C_R   0.740873 0.708422 0.042502 -0.026293
C134  C     C_R   0.233571 0.320232 0.961380 -0.057965
C135  C     C_R   0.280426 0.720814 0.976912 -0.041558
C136  C     C_R   0.755509 0.306445 0.039212 -0.069999
C137  C     C_R   0.789111 0.768351 0.093149 0.025122
C138  C     C_R   0.191503 0.259076 0.908451 0.025245
C139  C     C_R   0.219584 0.768262 0.915605 0.042558
C140  C     C_R   0.794496 0.242574 0.085636 0.019114
C141  C     C_R   0.304125 0.244827 0.091249 0.001551
C142  C     C_R   0.695702 0.757995 0.914311 0.007401
C143  C     C_R   0.698639 0.248778 0.907423 0.015374
C144  C     C_R   0.294579 0.745998 0.083577 0.019663
C145  C     C_R   0.190296 0.201971 0.944710 -0.037562
C146  C     C_R   0.789397 0.821192 0.054090 -0.048863
C147  C     C_R   0.805785 0.197400 0.053378 -0.009737
C148  C     C_R   0.208084 0.815122 0.947867 -0.048018
C149  C     C_R   0.693743 0.701856 0.950652 -0.053458
C150  C     C_R   0.299046 0.308171 0.054550 -0.055110
C151  C     C_R   0.310217 0.701905 0.055629 -0.012427
C152  C     C_R   0.698318 0.304984 0.945310 -0.046684
H1    H     H_    0.861908 0.825339 0.218786 0.193682
H2    H     H_    0.132602 0.210617 0.785131 0.199667
H3    H     H_    0.127830 0.800536 0.775045 0.209904
H4    H     H_    0.839599 0.174540 0.191862 0.184978
H5    H     H_    0.421560 0.234777 0.220122 0.230504
H6    H     H_    0.653036 0.697944 0.805845 0.191021
H7    H     H_    0.585163 0.246684 0.767666 0.237986
H8    H     H_    0.327501 0.672604 0.178377 0.183346
H9    H     H_    0.054544 0.749637 0.102981 0.203863
H10   H     H_    0.915030 0.232080 0.870645 0.208475
H11   H     H_    0.725403 0.586632 0.253943 0.247353
H12   H     H_    0.415281 0.255247 0.852384 0.230876
C153  C     C_R   0.005085 0.134723 0.050451 0.216562
C154  C     C_R   0.032159 0.862311 0.978565 0.158692
C155  C     C_R   0.421194 0.361022 0.965041 0.188152
C156  C     C_R   0.564860 0.608612 0.032182 0.263836
C157  C     C_R   0.981321 0.195121 0.998838 -0.060825
C158  C     C_R   0.049794 0.800596 0.024552 -0.117045
C159  C     C_R   0.399020 0.305691 0.909726 -0.138699
C160  C     C_R   0.632449 0.627906 0.120405 -0.122738
C161  C     C_R   0.942422 0.185923 0.914985 -0.077073
C162  C     C_R   0.044458 0.800128 0.072554 -0.119330
C163  C     C_R   0.423386 0.303976 0.883068 -0.036978
C164  C     C_R   0.669467 0.577475 0.187938 -0.030291
C165  C     C_R   0.933961 0.116935 0.885791 0.204609
C166  C     C_R   0.023913 0.862120 0.079174 0.117381
C167  C     C_R   0.461634 0.362392 0.900303 0.160321
C168  C     C_R   0.631745 0.516990 0.169753 0.290937
C169  C     C_R   0.971370 0.056818 0.945582 -0.021960
C170  C     C_R   0.013296 0.929605 0.041355 0.016380
C171  C     C_R   0.471855 0.425830 0.940696 -0.002676
C172  C     C_R   0.557622 0.510433 0.084046 -0.079715
C173  C     C_R   0.994808 0.063175 0.020060 -0.005691
C174  C     C_R   0.014051 0.928965 0.986715 0.023456
C175  C     C_R   0.462787 0.420500 0.986778 0.020509
C176  C     C_R   0.535281 0.540485 0.015719 -0.045018
C177  C     C_R   0.992819 0.993856 0.939461 -0.072060
C178  C     C_R   0.004566 0.997920 0.057964 -0.069085
C179  C     C_R   0.497937 0.492781 0.945494 -0.078812
C180  C     C_R   0.506529 0.468597 0.060503 -0.095325
H13   H     H_    0.988356 0.249369 0.021068 0.214580
H14   H     H_    0.064399 0.750510 0.019609 0.198806
H15   H     H_    0.368874 0.259431 0.894599 0.200072
H16   H     H_    0.656735 0.680134 0.135923 0.196068
I1    I     I_    0.169595 0.045620 0.716485 -0.182757
I2    I     I_    0.828241 0.954626 0.281296 -0.158836
I3    I     I_    0.671784 0.452265 0.718672 -0.111147
I4    I     I_    0.329092 0.537585 0.281815 -0.119663
N1    N     N_R   0.159211 0.162293 0.027172 0.228910
O53   O     O_R   0.145076 0.110421 0.046048 -0.298489
O54   O     O_R   0.109475 0.210964 0.968769 -0.295817
N2    N     N_R   0.715603 0.957628 0.942093 0.248248
O55   O     O_R   0.704689 0.017417 0.905443 -0.305947
O56   O     O_R   0.721063 0.961831 0.997817 -0.363137
N3    N     N_R   0.854620 0.171929 0.990833 0.209149
O57   O     O_R   0.872150 0.120711 0.975950 -0.357201
O58   O     O_R   0.903583 0.218565 0.053813 -0.345106
N4    N     N_R   0.282514 0.942761 0.079554 0.260343
O59   O     O_R   0.296877 0.995837 0.125306 -0.310636
O60   O     O_R   0.287905 0.955037 0.035185 -0.351690
N5    N     N_R   0.681343 0.627574 0.048515 0.204618
O61   O     O_R   0.683043 0.564955 0.073398 -0.299622
O62   O     O_R   0.620837 0.664250 0.987157 -0.379369
N6    N     N_R   0.218801 0.453416 0.958462 0.240990
O63   O     O_R   0.210121 0.518001 0.930300 -0.296845
O64   O     O_R   0.228905 0.447572 0.018341 -0.363131
N7    N     N_R   0.386268 0.682589 0.027630 0.211141
O65   O     O_R   0.412558 0.642276 0.016693 -0.320744
O66   O     O_R   0.431291 0.722768 0.098274 -0.303458
N8    N     N_R   0.781877 0.437329 0.073834 0.260701
O67   O     O_R   0.782760 0.495647 0.102808 -0.296701
O68   O     O_R   0.792001 0.443484 0.033948 -0.327063
I5    I     I_    0.061112 0.163422 0.174164 -0.007717
I6    I     I_    0.030876 0.837218 0.896535 -0.137161
I7    I     I_    0.393792 0.336967 0.014602 -0.163030
I8    I     I_    0.494533 0.694612 0.943928 0.096871
I9    I     I_    0.835879 0.107635 0.745322 -0.000207
I10   I     I_    0.005521 0.836584 0.141005 -0.236401
I11   I     I_    0.526697 0.335413 0.899126 -0.136182
I12   I     I_    0.690809 0.425001 0.255746 0.015098
I13   I     I_    0.128337 0.878040 0.580218 -0.050728
I14   I     I_    0.868378 0.114871 0.423309 -0.076963
I15   I     I_    0.943677 0.830578 0.490918 -0.114070
I16   I     I_    0.048361 0.172830 0.505775 -0.099775
I17   I     I_    0.548590 0.325542 0.506606 -0.070728
I18   I     I_    0.457569 0.673551 0.499303 -0.031166
I19   I     I_    0.373645 0.374783 0.421499 -0.038247
I20   I     I_    0.630730 0.620750 0.581803 -0.065001
N9    N     N_R   0.371179 0.043118 0.519473 0.280855
O69   O     O_R   0.387511 0.980030 0.555271 -0.277407
O70   O     O_R   0.371901 0.052113 0.470042 -0.217020
N10   N     N_R   0.654912 0.919171 0.549086 0.280867
O71   O     O_R   0.624960 0.982771 0.513943 -0.250951
O72   O     O_R   0.671873 0.896175 0.612111 -0.246637
N11   N     N_R   0.657062 0.045436 0.287855 0.277993
O73   O     O_R   0.593662 0.013962 0.226950 -0.238379
O74   O     O_R   0.708515 0.017094 0.310475 -0.255456
N12   N     N_R   0.365501 0.967785 0.711051 0.271838
O75   O     O_R   0.320173 0.000310 0.697384 -0.254679
O76   O     O_R   0.428979 0.996770 0.765200 -0.234106
N13   N     N_R   0.857870 0.576269 0.474874 0.273921
O77   O     O_R   0.883755 0.511332 0.508059 -0.250744
O78   O     O_R   0.850541 0.600646 0.420478 -0.292079
N14   N     N_R   0.135492 0.432931 0.511754 0.282697
O79   O     O_R   0.105662 0.495443 0.471992 -0.236932
O80   O     O_R   0.145980 0.413844 0.570239 -0.246626
N15   N     N_R   0.150314 0.551595 0.283071 0.270606
O81   O     O_R   0.106148 0.498141 0.249454 -0.238327
O82   O     O_R   0.187266 0.551298 0.276419 -0.261299
N16   N     N_R   0.836126 0.447634 0.713808 0.278195
O83   O     O_R   0.790540 0.457683 0.706812 -0.253415
O84   O     O_R   0.888673 0.493935 0.758457 -0.245916
N17   N     N_R   0.053064 0.282519 0.285104 0.225435
O85   O     O_R   0.062834 0.302393 0.246780 -0.276447
O86   O     O_R   0.987713 0.266036 0.235994 -0.312694
N18   N     N_R   0.951311 0.716227 0.714827 0.229867
O87   O     O_R   0.017784 0.725862 0.764421 -0.325438
O88   O     O_R   0.938795 0.710254 0.752010 -0.294238
N19   N     N_R   0.947213 0.235900 0.744634 0.210209
O89   O     O_R   0.965129 0.187983 0.797256 -0.409705
O90   O     O_R   0.995250 0.256324 0.757875 -0.310348
N20   N     N_R   0.049085 0.723070 0.308031 0.246438
O91   O     O_R   0.056476 0.716290 0.365393 -0.287954
O92   O     O_R   0.984352 0.733633 0.224975 -0.337988
N21   N     N_R   0.553001 0.783330 0.301021 0.247490
O93   O     O_R   0.564350 0.778369 0.262468 -0.268206
O94   O     O_R   0.486781 0.778286 0.253259 -0.298234
N22   N     N_R   0.443785 0.219702 0.723807 0.232188
O95   O     O_R   0.511010 0.233542 0.777858 -0.376340
O96   O     O_R   0.426078 0.212460 0.754965 -0.304515
N23   N     N_R   0.418455 0.710902 0.748064 0.192297
O97   O     O_R   0.385707 0.666243 0.747227 -0.336144
O98   O     O_R   0.484998 0.697926 0.799071 -0.361332
N24   N     N_R   0.570929 0.284778 0.249601 0.193107
O99   O     O_R   0.511104 0.278523 0.217224 -0.387272
O100  O     O_R   0.572721 0.328169 0.211495 -0.409851
N25   N     N_R   0.022314 0.386929 0.332751 0.268495
O101  O     O_R   0.989316 0.385029 0.344874 -0.271416
O102  O     O_R   0.990159 0.417254 0.261448 -0.215406
N26   N     N_R   0.975659 0.614849 0.656747 0.277651
O103  O     O_R   0.006311 0.618901 0.641552 -0.255820
O104  O     O_R   0.008186 0.579709 0.726169 -0.230847
N27   N     N_R   0.954846 0.352106 0.819524 0.273312
O105  O     O_R   0.953244 0.361515 0.868008 -0.307854
O106  O     O_R   0.016136 0.360449 0.855373 -0.219284
N28   N     N_R   0.027427 0.619490 0.207042 0.278835
O107  O     O_R   0.003694 0.623466 0.136060 -0.297935
O108  O     O_R   0.989117 0.585297 0.204043 -0.213644
N29   N     N_R   0.534354 0.883018 0.366652 0.268878
O109  O     O_R   0.504384 0.875007 0.382517 -0.269692
O110  O     O_R   0.502187 0.922886 0.299931 -0.249445
N30   N     N_R   0.478889 0.097055 0.695690 0.256579
O111  O     O_R   0.512693 0.074980 0.687606 -0.276287
O112  O     O_R   0.507797 0.083958 0.769441 -0.210750
N31   N     N_R   0.460854 0.849426 0.820822 0.272355
O113  O     O_R   0.524760 0.836651 0.864078 -0.261675
O114  O     O_R   0.456211 0.875663 0.863009 -0.255660
N32   N     N_R   0.562759 0.163847 0.178924 0.272964
O115  O     O_R   0.578144 0.149532 0.145874 -0.283796
O116  O     O_R   0.494899 0.167702 0.126232 -0.269579
N33   N     N_R   0.796239 0.863157 0.664080 0.238422
O117  O     O_R   0.804278 0.925932 0.694262 -0.290895
O118  O     O_R   0.843052 0.811847 0.720114 -0.329577
N34   N     N_R   0.236681 0.117460 0.378227 0.234111
O119  O     O_R   0.231527 0.167244 0.337399 -0.292339
O120  O     O_R   0.219630 0.050908 0.349664 -0.269569
N35   N     N_R   0.232981 0.948516 0.530546 0.214738
O121  O     O_R   0.181703 0.955291 0.514461 -0.380485
O122  O     O_R   0.252692 0.005229 0.523321 -0.362939
N36   N     N_R   0.767073 0.052270 0.469253 0.208978
O123  O     O_R   0.738460 0.003581 0.471476 -0.343601
O124  O     O_R   0.821401 0.034093 0.493155 -0.389390
N37   N     N_R   0.278761 0.376258 0.640186 0.246306
O125  O     O_R   0.285013 0.441235 0.665581 -0.278349
O126  O     O_R   0.324710 0.326238 0.699543 -0.386619
N38   N     N_R   0.717116 0.631360 0.356248 0.216208
O127  O     O_R   0.670569 0.681108 0.296400 -0.337795
O128  O     O_R   0.705097 0.564170 0.332647 -0.368920
N39   N     N_R   0.706497 0.423721 0.534593 0.193985
O129  O     O_R   0.659880 0.409422 0.525210 -0.343611
O130  O     O_R   0.711053 0.489718 0.521236 -0.391921
N40   N     N_R   0.290483 0.587613 0.455498 0.203134
O131  O     O_R   0.296194 0.518026 0.469039 -0.388297
O132  O     O_R   0.332459 0.618783 0.462905 -0.326727
N41   N     N_R   0.674785 0.939983 0.792394 0.260997
O133  O     O_R   0.611159 0.959343 0.712040 -0.224581
O134  O     O_R   0.733018 0.972490 0.832908 -0.274399
N42   N     N_R   0.286362 0.128833 0.213854 0.258594
O135  O     O_R   0.318775 0.068938 0.259407 -0.201245
O136  O     O_R   0.253231 0.167268 0.216303 -0.264190
N43   N     N_R   0.282341 0.904115 0.190764 0.258601
O137  O     O_R   0.222812 0.941619 0.137981 -0.297272
O138  O     O_R   0.336056 0.912720 0.276182 -0.212498
N44   N     N_R   0.742418 0.157322 0.804118 0.252767
O139  O     O_R   0.711358 0.101890 0.751509 -0.224946
O140  O     O_R   0.784912 0.198950 0.818679 -0.343265
N45   N     N_R   0.146342 0.456788 0.785620 0.261955
O141  O     O_R   0.078152 0.474685 0.713156 -0.221586
O142  O     O_R   0.196192 0.495526 0.812000 -0.276120
N46   N     N_R   0.829604 0.591028 0.231638 0.284684
O143  O     O_R   0.887122 0.554671 0.274466 -0.200123
O144  O     O_R   0.807198 0.585532 0.257198 -0.307190
N47   N     N_R   0.800649 0.408797 0.204742 0.266948
O145  O     O_R   0.739416 0.435654 0.160817 -0.305002
O146  O     O_R   0.859997 0.421167 0.289470 -0.202319
N48   N     N_R   0.285787 0.658331 0.843059 0.258743
O147  O     O_R   0.294591 0.588337 0.849398 -0.249096
O148  O     O_R   0.294459 0.697451 0.809925 -0.290950
I21   I     I_    0.946618 0.719291 0.369775 0.048445
I22   I     I_    0.083796 0.319777 0.656322 0.010400
I23   I     I_    0.119248 0.714233 0.666827 0.042921
I24   I     I_    0.848461 0.254756 0.303793 -0.058941
I25   I     I_    0.460492 0.145285 0.352810 0.054141
I26   I     I_    0.632526 0.791483 0.689295 -0.001093
I27   I     I_    0.565549 0.185393 0.642252 0.021065
I28   I     I_    0.303221 0.743319 0.261903 -0.071365

loop_
_geom_bond_atom_site_label_1
_geom_bond_atom_site_label_2
_geom_bond_distance
_ccdc_geom_bond_type
C169  C173  1.394911 A    
N25   O101  1.300881 A    
N43   O138  1.301008 A    
C86   C93   1.410082 A    
C103  C111  1.389891 A    
C42   C50   1.405548 A    
O41   C21   1.284853 A    
C97   H1    1.079321 S    
N17   O85   1.299484 A    
C143  C152  1.429972 A    
O26   C7    1.295059 A    
C102  C110  1.396061 A    
C161  C165  1.389674 A    
C154  I6    2.131100 S    
C121  N1    1.438976 S    
N46   O143  1.300733 A    
N38   O128  1.294031 A    
C114  N41   1.430460 S    
O30   C11   1.278066 A    
C127  C135  1.427594 A    
C166  I10   2.137790 S    
C3    C148  1.490493 S    
C176  C179  1.408712 A    
C160  C164  1.398162 A    
C125  C133  1.436008 A    
N30   O111  1.300550 A    
C51   N27   1.438803 S    
C153  C157  1.395478 A    
C58   N9    1.432870 S    
Zn12  O26   1.940722 S    
C78   C82   1.405639 A    
C173  C178  1.414617 A    
C64   N15   1.437765 S    
C136  C140  1.390914 A    
N14   O79   1.301144 A    
C21   C38   1.478894 S    
C100  C140  1.411395 A    
C31   I19   2.145177 S    
C35   I3    2.142076 S    
C76   C92   1.431574 A    
C111  C115  1.396730 A    
C27   C34   1.544248 S    
C53   N29   1.434397 S    
C71   N39   1.432512 S    
C74   C90   1.435325 A    
O11   C7    1.287601 A    
O34   C15   1.280585 A    
C108  C120  1.399830 A    
C98   C106  1.393336 A    
C47   C55   1.400492 A    
N16   O83   1.301077 A    
C41   C49   1.407931 A    
C61   N14   1.434006 S    
Zn14  O30   1.946467 S    
Zn1   O44   1.947055 S    
C25   C33   1.547319 S    
C11   C92   1.456317 S    
C44   C52   1.409289 A    
Zn2   O43   1.947055 S    
C12   C91   1.465918 S    
N36   O124  1.301275 A    
C108  I24   2.101142 S    
Zn5   O48   1.947055 S    
Zn6   O47   1.947055 S    
Zn7   O46   1.949649 S    
C44   N20   1.433962 S    
O16   C12   1.265089 A    
C41   C81   1.418931 A    
Zn16  O4    1.936699 S    
Zn12  O4    1.969465 S    
Zn1   O13   1.937996 S    
C26   C28   1.548310 S    
C29   C35   1.545409 S    
N16   O84   1.301287 A    
C119  N48   1.432896 S    
C73   C89   1.420699 A    
N42   O136  1.301167 A    
C137  C146  1.402704 A    
N1    O54   1.300442 A    
N33   O117  1.300370 A    
N35   O121  1.301041 A    
C62   C70   1.410665 A    
C31   C39   1.538235 S    
C172  C180  1.397105 A    
O38   C18   1.287772 A    
C121  C129  1.425476 A    
N39   O130  1.301307 A    
N6    O63   1.300506 A    
C125  N5    1.426353 S    
C49   N25   1.435381 S    
C118  N45   1.430622 S    
C107  I23   2.114504 S    
C1    C146  1.485957 S    
C22   C37   1.473242 S    
C122  N2    1.450648 S    
N18   O87   1.300284 A    
C42   C82   1.417261 A    
N34   O120  1.301919 A    
N31   O113  1.300877 A    
C128  N8    1.442814 S    
C110  C114  1.400858 A    
N37   O125  1.301654 A    
Zn10  O22   1.940722 S    
C156  I8    2.097866 S    
N41   O133  1.300932 A    
O25   C8    1.291293 A    
Zn13  O29   1.946469 S    
H9    C162  1.083429 S    
C77   C93   1.424740 A    
Zn10  O2    1.969465 S    
C139  C148  1.433642 A    
O29   C12   1.292871 A    
C124  C132  1.420396 A    
Zn16  O34   1.946467 S    
C48   C88   1.441055 A    
C155  I7    2.082032 S    
C4    C147  1.458263 S    
C61   C69   1.411388 A    
C26   C34   1.546310 S    
N13   O77   1.300960 A    
O5    C1    1.297822 A    
C27   I15   2.143573 S    
O37   C17   1.280654 A    
C114  C122  1.412900 A    
O48   C23   1.285173 A    
N32   O115  1.301190 A    
C97   C137  1.412881 A    
C46   C86   1.416774 A    
C112  C116  1.402860 A    
C15   C96   1.456788 S    
C106  I22   2.119772 S    
C54   C58   1.403739 A    
C82   C89   1.404900 A    
H12   C163  1.082591 S    
C13   C94   1.511207 S    
C67   N35   1.430757 S    
N23   O97   1.301168 A    
Zn16  O35   1.950161 S    
Zn15  O33   1.946469 S    
C105  C117  1.384211 A    
Zn7   O10   1.948770 S    
C131  C147  1.427300 A    
O33   C16   1.279086 A    
Zn8   O20   1.936889 S    
O40   C20   1.283493 A    
C59   N12   1.438979 S    
C8    C151  1.467003 S    
N39   O129  1.300236 A    
N10   O71   1.301108 A    
C43   C51   1.403068 A    
C65   N33   1.439690 S    
N22   O95   1.299377 A    
N12   O76   1.300581 A    
C24   C39   1.474777 S    
C20   C179  1.452513 S    
C75   C87   1.422344 A    
C48   N24   1.427380 S    
Zn5   O17   1.937996 S    
C51   C63   1.391226 A    
C112  I28   2.110217 S    
C49   C61   1.402628 A    
C81   C90   1.420822 A    
C154  C174  1.438992 A    
C67   C75   1.440642 A    
C84   C91   1.432391 A    
C25   C27   1.548111 S    
C126  N6    1.447884 S    
C159  H15   1.083354 S    
C160  H16   1.082413 S    
C123  N3    1.428291 S    
N26   O103  1.300500 A    
N45   O142  1.300518 A    
N9    O70   1.300973 A    
C32   C40   1.537369 S    
Zn8   O3    1.955242 S    
C157  H13   1.082866 S    
C80   C96   1.415881 A    
N15   O82   1.301247 A    
N2    O55   1.300813 A    
C174  C177  1.425862 A    
C50   N26   1.433648 S    
O32   C9    1.274460 A    
C76   C88   1.422695 A    
C79   C83   1.421275 A    
C53   C57   1.405644 A    
C165  I9    2.128837 S    
C25   C38   1.538702 S    
C55   C59   1.395751 A    
C102  C142  1.414266 A    
Zn15  O51   1.956081 S    
C44   C84   1.430317 A    
Zn11  O28   1.941361 S    
C74   C86   1.406870 A    
C55   N31   1.436305 S    
C58   C66   1.409617 A    
C16   C95   1.458244 S    
C140  C147  1.410182 A    
C128  C136  1.417954 A    
O8    C4    1.292303 A    
C99   C107  1.396057 A    
N40   O131  1.301457 A    
Zn9   O1    1.969465 S    
C100  C108  1.393335 A    
C165  C169  1.427686 A    
C175  C180  1.432719 A    
C54   N30   1.440590 S    
C118  C126  1.417113 A    
C80   C84   1.404637 A    
N35   O122  1.300453 A    
O50   C18   1.259270 A    
C159  C163  1.380507 A    
C167  C171  1.419412 A    
N5    O62   1.299784 A    
C60   N11   1.438559 S    
C29   I17   2.139998 S    
C157  C161  1.381271 A    
Zn2   O14   1.937995 S    
C134  C150  1.424995 A    
N6    O64   1.301994 A    
H11   C164  1.076985 S    
C155  C175  1.424748 A    
C79   C95   1.431161 A    
C73   C85   1.410537 A    
C70   C78   1.415504 A    
C109  C113  1.403870 A    
C110  I26   2.115922 S    
N30   O112  1.300701 A    
C5    C150  1.470923 S    
O9    C5    1.286097 A    
O39   C19   1.297159 A    
O36   C13   1.284994 A    
C130  C142  1.403243 A    
C63   C71   1.401793 A    
C107  C119  1.396837 A    
C168  C172  1.403427 A    
C45   C53   1.412240 A    
Zn1   O8    1.945543 S    
N2    O56   1.302014 A    
N24   O99   1.300440 A    
Zn2   O7    1.945540 S    
C133  C137  1.418226 A    
N4    O59   1.300318 A    
C168  I12   2.131378 S    
Zn3   O6    1.948770 S    
C127  N7    1.445167 S    
C28   I16   2.142346 S    
O31   C10   1.276235 A    
N1    O53   1.300310 A    
O6    C2    1.286275 A    
C115  N44   1.433869 S    
N29   O110  1.301111 A    
C170  C174  1.425852 A    
C113  N42   1.433428 S    
N44   O140  1.300846 A    
C26   C37   1.534099 S    
N3    O57   1.297724 A    
C98   H2    1.077491 S    
C66   N34   1.430121 S    
N47   O146  1.300757 A    
Zn15  O3    1.936697 S    
C78   C94   1.430761 A    
Zn11  O3    1.969465 S    
C162  C166  1.389036 A    
C142  C149  1.426846 A    
C70   N38   1.424329 S    
C136  C152  1.425063 A    
C116  N43   1.432149 S    
C69   C77   1.426000 A    
C59   C67   1.407197 A    
C60   C68   1.401555 A    
N20   O92   1.300319 A    
C30   I18   2.135692 S    
N48   O147  1.300854 A    
C126  C134  1.426092 A    
N8    O67   1.296914 A    
C154  C158  1.390184 A    
N28   O107  1.300916 A    
C171  C179  1.427906 A    
O17   C13   1.297717 A    
C113  C121  1.417759 A    
C88   C95   1.434931 A    
N27   O105  1.301172 A    
C116  C124  1.411115 A    
C105  I21   2.115555 S    
N21   O94   1.300665 A    
C9    C90   1.502442 S    
C56   C60   1.389544 A    
C47   C87   1.428817 A    
C104  C112  1.400253 A    
C31   C36   1.546307 S    
N11   O73   1.301334 A    
N25   O102  1.301095 A    
C28   C33   1.544976 S    
Zn8   O9    1.948773 S    
N17   O86   1.299454 A    
O7    C3    1.296661 A    
N38   O127  1.301418 A    
N18   O88   1.300174 A    
C45   C85   1.420712 A    
O19   C15   1.269753 A    
O44   C21   1.278951 A    
C32   C35   1.546772 S    
C30   C39   1.540776 S    
C164  C168  1.400151 A    
C43   C83   1.442638 A    
Zn10  O23   1.941359 S    
C50   C62   1.400836 A    
C66   C74   1.424158 A    
C171  C175  1.429566 A    
N7    O65   1.299801 A    
O14   C10   1.298760 A    
N22   O96   1.300192 A    
Zn15  O36   1.950161 S    
C156  C176  1.405935 A    
O15   C11   1.273940 A    
O42   C22   1.284378 A    
C99   H3    1.072105 S    
C117  N46   1.426486 S    
Zn4   O1    1.955242 S    
C138  C145  1.425078 A    
C45   N21   1.438058 S    
C103  H7    1.072101 S    
C30   C32   1.546592 S    
N44   O139  1.300434 A    
C101  H5    1.077172 S    
C158  H14   1.083325 S    
Zn9   O37   1.939709 S    
N32   O116  1.300772 A    
O12   C8    1.287631 A    
C36   C40   1.536090 S    
Zn11  O39   1.939709 S    
C122  C130  1.423618 A    
C33   I1    2.143031 S    
C48   C56   1.401436 A    
N20   O91   1.301432 A    
C2    C145  1.470172 S    
C155  C159  1.396558 A    
C23   C40   1.474224 S    
C52   N28   1.433221 S    
C19   C180  1.478114 S    
N23   O98   1.300666 A    
C75   C91   1.433228 A    
N36   O123  1.301107 A    
Zn5   O3    1.960390 S    
C144  C151  1.412154 A    
Zn13  O1    1.936697 S    
C64   C72   1.404882 A    
Zn6   O4    1.960391 S    
C65   C73   1.421234 A    
C85   C94   1.422773 A    
C169  C177  1.413360 A    
N15   O81   1.301295 A    
C68   C76   1.445458 A    
C104  H8    1.081524 S    
C7    C152  1.471148 S    
C46   C54   1.409936 A    
N46   O144  1.298311 A    
C153  I5    2.107651 S    
C101  C109  1.394067 A    
Zn9   O24   1.941361 S    
O28   C5    1.292020 A    
Zn3   O42   1.949649 S    
Zn6   O18   1.937995 S    
N42   O135  1.299659 A    
Zn7   O4    1.955240 S    
O21   C4    1.282447 A    
N43   O137  1.301412 A    
N33   O118  1.300777 A    
C56   N32   1.437459 S    
C98   C138  1.412643 A    
C97   C105  1.373987 A    
C77   C81   1.408268 A    
C124  N4    1.449220 S    
C26   I14   2.140144 S    
N4    O60   1.302145 A    
Zn2   O2    1.960391 S    
Zn14  O2    1.936699 S    
N34   O119  1.300543 A    
C72   C80   1.432563 A    
N26   O104  1.301141 A    
N45   O141  1.300465 A    
C18   C177  1.432832 S    
Zn13  O49   1.956081 S    
N9    O69   1.301047 A    
N37   O126  1.298485 A    
C71   C79   1.443878 A    
C132  C144  1.395309 A    
C111  I27   2.122440 S    
C141  C150  1.424736 A    
C25   I13   2.139862 S    
N3    O58   1.300394 A    
C123  C131  1.423787 A    
Zn12  O27   1.941359 S    
C109  I25   2.121326 S    
N41   O134  1.300843 A    
C120  N47   1.429958 S    
C68   N36   1.432979 S    
Zn3   O2    1.955240 S    
C27   C37   1.539588 S    
C132  C148  1.422807 A    
C29   C40   1.541074 S    
N19   O89   1.300244 A    
N13   O78   1.300063 A    
O46   C24   1.280382 A    
Zn4   O41   1.949649 S    
C42   N18   1.433971 S    
C34   C38   1.540574 S    
Zn16  O52   1.956083 S    
C17   C178  1.427741 S    
C131  C143  1.399118 A    
N10   O72   1.300839 A    
C153  C173  1.431299 A    
Zn8   O45   1.949649 S    
C172  C176  1.374291 A    
C62   N13   1.432199 S    
O27   C6    1.283038 A    
N7    O66   1.299662 A    
N27   O106  1.300869 A    
C100  H4    1.080762 S    
C29   C31   1.544143 S    
N40   O132  1.299767 A    
N31   O114  1.301344 A    
C33   C37   1.534947 S    
N11   O74   1.300712 A    
O24   C1    1.283198 A    
N47   O145  1.299627 A    
C63   N16   1.437791 S    
N5    O61   1.297859 A    
C135  C139  1.417549 A    
C156  C160  1.404634 A    
C167  I11   2.124304 S    
O43   C22   1.276120 A    
C99   C139  1.416494 A    
O47   C24   1.281541 A    
Zn3   O15   1.936889 S    
N12   O75   1.301245 A    
Zn5   O12   1.945543 S    
C103  C143  1.418248 A    
C10   C89   1.499469 S    
Zn6   O11   1.945540 S    
C101  C141  1.412400 A    
Zn9   O21   1.940722 S    
Zn14  O50   1.956083 S    
O13   C9    1.303360 A    
Zn4   O16   1.936889 S    
C57   N10   1.434259 S    
O35   C14   1.273923 A    
Zn12  O40   1.939706 S    
N14   O80   1.301122 A    
N19   O90   1.301003 A    
N24   O100  1.299636 A    
C34   I2    2.142910 S    
O52   C20   1.279224 A    
C43   N19   1.429259 S    
N29   O109  1.301112 A    
C166  C170  1.439802 A    
C57   C65   1.411903 A    
C28   C38   1.544343 S    
O22   C3    1.294614 A    
C119  C127  1.410221 A    
C52   C64   1.398705 A    
Zn7   O19   1.936889 S    
C36   I4    2.138523 S    
C117  C125  1.415984 A    
C104  C144  1.412699 A    
C115  C123  1.415290 A    
Zn13  O32   1.950161 S    
O49   C17   1.266152 A    
Zn14  O31   1.950161 S    
C14   C93   1.501703 S    
C87   C96   1.429575 A    
O18   C14   1.302617 A    
C158  C162  1.374755 A    
O51   C19   1.283352 A    
C135  C151  1.423966 A    
C35   C39   1.537624 S    
C83   C92   1.435081 A    
C102  H6    1.079391 S    
C133  C149  1.457450 A    
H10   C161  1.081990 S    
C106  C118  1.402344 A    
C41   N17   1.430477 S    
Zn4   O5    1.948773 S    
N48   O148  1.301021 A    
O20   C16   1.273348 A    
C30   C36   1.546736 S    
C6    C149  1.500860 S    
C47   N23   1.429230 S    
O10   C6    1.310181 A    
O23   C2    1.291299 A    
Zn11  O25   1.940722 S    
N8    O68   1.302086 A    
Zn10  O38   1.939706 S    
C163  C167  1.388774 A    
N28   O108  1.301151 A    
C129  C141  1.397104 A    
C32   I20   2.143597 S    
C129  C145  1.424402 A    
Zn1   O1    1.960390 S    
C120  C128  1.411861 A    
C134  C138  1.398245 A    
C72   N40   1.432725 S    
N21   O93   1.301179 A    
C69   N37   1.436256 S    
C170  C178  1.426605 A    
O45   C23   1.276359 A    
C46   N22   1.427839 S    
C130  C146  1.410929 A    
