data_mof_unit_51770.cif
_audit_creation_date              2012-10-26T20:34:03-0400
_audit_creation_method            fapswitch 2.2
_symmetry_space_group_name_H-M    P1
_symmetry_Int_Tables_number       1
_space_group_crystal_system       triclinic
_cell_length_a                    15.908507
_cell_length_b                    9.220879
_cell_length_c                    8.127038
_cell_angle_alpha                 91.104502
_cell_angle_beta                  88.019574
_cell_angle_gamma                 89.877682
_cell_volume                      1191.22046545

loop_
_atom_site_label
_atom_site_type_symbol
_atom_type_description
_atom_site_fract_x
_atom_site_fract_y
_atom_site_fract_z
_atom_type_partial_charge
C1    C     C_R   0.500026 0.221132 0.499046 0.535763
C2    C     C_3   0.052610 0.375001 0.367179 0.495211
C3    C     C_3   0.942111 0.442364 0.664459 0.496249
C4    C     C_3   0.952115 0.395991 0.350881 0.530219
C5    C     C_1   0.748443 0.502708 0.490059 -0.083033
C6    C     C_1   0.251474 0.498884 0.508442 -0.045515
C7    C     C_3   0.083476 0.498798 0.492674 0.040090
C8    C     C_3   0.916504 0.509295 0.493802 0.005901
C9    C     C_3   0.953893 0.675752 0.471031 0.270883
C10   C     C_3   0.056282 0.663312 0.445812 0.266975
C11   C     C_3   0.125078 0.829533 0.695015 -0.270002
C12   C     C_1   0.824091 0.506254 0.487795 0.001629
C13   C     C_3   0.088221 0.826583 0.205692 -0.333508
C14   C     C_3   0.937450 0.926331 0.608266 -0.253969
C15   C     C_3   0.826064 0.794865 0.339804 -0.300647
C16   C     C_3   0.841375 0.247733 0.714213 -0.077917
C17   C     C_3   0.930881 0.154133 0.240961 -0.066788
C18   C     C_3   0.057262 0.230371 0.826322 -0.068844
C19   C     C_3   0.136461 0.159225 0.403521 -0.098520
C20   C     C_3   0.175486 0.402999 0.171323 -0.161934
C21   C     C_3   0.058452 0.573607 0.924134 -0.079919
C22   C     C_3   0.848727 0.422167 0.145859 -0.080224
C23   C     C_1   0.176102 0.497308 0.504585 0.052624
C24   C     C_3   0.831890 0.593460 0.826843 -0.156051
C25   C     C_R   0.340890 0.500026 0.502722 0.519240
C26   C     C_R   0.659088 0.500126 0.497195 0.517543
C27   C     C_1   0.500039 0.934614 0.501271 -0.057077
C28   C     C_1   0.500040 0.065390 0.498716 -0.056950
C29   C     C_R   0.500018 0.778874 0.500949 0.535238
C30   C     C_3   0.044244 0.457424 0.668161 0.547925
Cu1   Cu    Cu3+1 0.500000 0.500010 0.669080 1.004572
Cu2   Cu    Cu3+1 0.500000 0.500010 0.330920 0.995977
H1    H     H_    0.167679 0.784558 0.466899 0.250211
H2    H     H_    0.935528 0.972650 0.735380 0.094659
H3    H     H_    0.881916 0.970026 0.549828 0.170408
H4    H     H_    0.994587 0.964526 0.542246 0.212903
H5    H     H_    0.928032 0.709714 0.210874 0.268318
H6    H     H_    0.785532 0.728235 0.260773 0.124472
H7    H     H_    0.822790 0.906793 0.293641 0.122156
H8    H     H_    0.798368 0.793298 0.466714 0.163162
H9    H     H_    0.844785 0.182457 0.826875 0.076409
H10   H     H_    0.795310 0.334305 0.735150 0.128888
H11   H     H_    0.814879 0.177765 0.616949 0.142204
H12   H     H_    0.171926 0.759427 0.753428 0.180597
H13   H     H_    0.945444 0.049496 0.295330 0.138136
H14   H     H_    0.984609 0.182811 0.158457 0.163012
H15   H     H_    0.874618 0.135558 0.166779 0.066671
H16   H     H_    0.044005 0.133195 0.750551 0.158802
H17   H     H_    0.000026 0.264385 0.897591 0.162040
H18   H     H_    0.104148 0.196431 0.915687 0.111351
H19   H     H_    0.131934 0.054057 0.463533 0.123696
H20   H     H_    0.191620 0.212797 0.457164 0.133587
H21   H     H_    0.143918 0.132863 0.270010 0.123159
H22   H     H_    0.190582 0.379475 0.039369 0.157803
H23   H     H_    0.068255 0.844958 0.773792 0.155627
H24   H     H_    0.190472 0.518728 0.190357 0.150933
H25   H     H_    0.219908 0.335797 0.237215 0.111870
H26   H     H_    0.037667 0.470458 0.970918 0.254564
H27   H     H_    0.009446 0.653207 0.962701 0.143094
H28   H     H_    0.120235 0.605028 0.971094 0.145208
H29   H     H_    0.808143 0.356184 0.228244 0.140187
H30   H     H_    0.850664 0.360889 0.028593 0.164308
H31   H     H_    0.814959 0.524879 0.134451 0.120718
H32   H     H_    0.776005 0.529391 0.864002 0.111764
H33   H     H_    0.815808 0.660553 0.723434 0.143610
H34   H     H_    0.155334 0.937532 0.690460 0.089780
H35   H     H_    0.839925 0.675428 0.926650 0.117589
H36   H     H_    0.044214 0.611958 0.205087 0.278743
H37   H     H_    0.062239 0.836572 0.082386 0.093479
H38   H     H_    0.156307 0.852135 0.195145 0.137466
H39   H     H_    0.055845 0.908883 0.284425 0.179981
H40   H     H_    0.955794 0.734776 0.724982 0.294328
N1    N     N_1   0.500000 0.499970 0.076820 -0.092140
N2    N     N_1   0.500000 0.499970 0.923180 -0.091889
N3    N     N_2   0.109819 0.777031 0.527947 -0.457354
N4    N     N_2   0.076815 0.681597 0.272775 -0.547239
N5    N     N_2   0.935066 0.769121 0.615819 -0.508637
N6    N     N_2   0.913051 0.743564 0.328970 -0.485525
O1    O     O_R   0.500000 0.288400 0.642760 -0.493932
O2    O     O_3   0.912554 0.256394 0.370639 -0.520930
O3    O     O_3   0.093978 0.337176 0.724311 -0.538879
O4    O     O_3   0.061607 0.236068 0.441620 -0.516598
O5    O     O_3   0.088798 0.371307 0.201778 -0.621680
O6    O     O_3   0.065459 0.580230 0.756931 -0.619847
O7    O     O_3   0.932739 0.449979 0.193242 -0.611127
O8    O     O_3   0.907416 0.508279 0.815329 -0.596275
O9    O     O_R   0.500000 0.288400 0.357240 -0.495221
O10   O     O_R   0.379440 0.500020 0.642850 -0.489751
O11   O     O_R   0.379440 0.500020 0.357150 -0.508391
O12   O     O_R   0.620560 0.500020 0.642850 -0.508494
O13   O     O_R   0.620560 0.500020 0.357150 -0.505983
O14   O     O_R   0.500000 0.711620 0.642810 -0.494568
O15   O     O_R   0.500000 0.711620 0.357190 -0.494022
O16   O     O_3   0.923569 0.290596 0.663408 -0.532548

loop_
_geom_bond_atom_site_label_1
_geom_bond_atom_site_label_2
_ccdc_geom_bond_type
C1    O9    A    
C7    C10   S    
C27   C29   S    
N1    N2    T    
C2    C7    S    
C20   H24   S    
C17   H13   S    
C4    O2    S    
C14   H4    S    
C14   N5    S    
Cu2   O13   S    
C13   H38   S    
C18   O3    S    
C22   O7    S    
C24   H35   S    
C22   H31   S    
C10   N4    S    
C19   H20   S    
H1    N3    S    
Cu1   Cu2   S    
C8    C9    S    
C1    C28   S    
C21   O6    S    
C19   O4    S    
C9    C10   S    
C11   H34   S    
C4    C8    S    
C19   H21   S    
Cu2   O15   S    
C24   H32   S    
C21   H27   S    
C3    O8    S    
C2    O5    S    
C17   H14   S    
C5    C12   T    
C20   H22   S    
C3    C8    S    
C14   H3    S    
Cu1   N2    S    
C4    O7    S    
C13   H39   S    
C26   O13   A    
Cu2   O9    S    
C17   O2    S    
C3    C30   S    
C2    C4    S    
C15   H6    S    
H40   N5    S    
C22   H30   S    
C10   N3    S    
Cu2   O11   S    
C13   N4    S    
C8    C12   S    
Cu1   O12   S    
C11   H12   S    
C9    N5    S    
C16   H11   S    
C15   H7    S    
C24   H33   S    
C21   H28   S    
C1    O1    A    
C2    O4    S    
H36   N4    S    
C16   H10   S    
Cu2   N1    S    
C11   H23   S    
C18   H18   S    
Cu1   O10   S    
C16   O16   S    
C17   H15   S    
C18   H16   S    
C14   H2    S    
Cu1   O1    S    
C26   O12   A    
H5    N6    S    
C25   O11   A    
C30   O3    S    
C21   H26   S    
C11   N3    S    
C22   H29   S    
C29   O15   A    
C6    C25   S    
C13   H37   S    
C7    C23   S    
C6    C23   T    
C3    O16   S    
C9    N6    S    
C25   O10   A    
C30   O6    S    
C15   H8    S    
C5    C26   S    
C15   N6    S    
C19   H19   S    
Cu1   O14   S    
C20   O5    S    
C27   C28   T    
C7    C30   S    
C20   H25   S    
C24   O8    S    
C16   H9    S    
C29   O14   A    
C18   H17   S    
