data_mof_unit_62942.cif
_audit_creation_date              2012-12-11T14:17:55-0500
_audit_creation_method            fapswitch 2.2
_symmetry_space_group_name_H-M    P1
_symmetry_Int_Tables_number       1
_space_group_crystal_system       triclinic
_cell_length_a                    11.667491
_cell_length_b                    12.020545
_cell_length_c                    18.832801
_cell_angle_alpha                 90.722065
_cell_angle_beta                  89.456029
_cell_angle_gamma                 119.163909
_cell_volume                      2306.25388508

loop_
_atom_site_label
_atom_site_type_symbol
_atom_type_description
_atom_site_fract_x
_atom_site_fract_y
_atom_site_fract_z
_atom_type_partial_charge
C1    C     C_R   0.522968 0.456116 0.146291 0.508818
C2    C     C_R   0.928201 0.381991 0.555733 0.008926
C3    C     C_3   0.909871 0.200168 0.416699 -0.356745
C4    C     C_3   0.404414 0.658445 0.416367 -0.275312
C5    C     C_3   0.259587 0.566631 0.398775 -0.445937
C6    C     C_3   0.890856 0.265842 0.601850 -0.276285
C7    C     C_3   0.767818 0.232853 0.645129 -0.457056
C8    C     C_3   0.338882 0.059971 0.579764 -0.265707
C9    C     C_3   0.431355 0.171405 0.626996 -0.449948
C10   C     C_3   0.647937 0.616912 0.532805 -0.248480
C11   C     C_3   0.639187 0.484461 0.534279 -0.423621
C12   C     C_R   0.410769 0.004639 0.535818 0.000491
C13   C     C_R   0.518962 0.609656 0.514825 0.003850
C14   C     C_R   0.701366 0.950731 0.551322 -0.086901
C15   C     C_R   0.923256 0.676446 0.595223 -0.071421
C16   C     C_R   0.199761 0.319141 0.557847 -0.085361
C17   C     C_R   0.964099 0.709326 0.451737 -0.104968
C18   C     C_R   0.652959 0.908313 0.408181 -0.083076
C19   C     C_R   0.240955 0.270244 0.420934 -0.103221
C20   C     C_R   0.780793 0.924268 0.508459 -0.158804
C21   C     C_R   0.542172 0.065850 0.148048 0.533484
C22   C     C_R   0.957317 0.793083 0.567361 -0.124702
C23   C     C_R   0.127373 0.197300 0.530588 -0.156507
C24   C     C_R   0.978088 0.808790 0.495129 -0.158613
C25   C     C_R   0.752825 0.894495 0.437561 -0.132362
C26   C     C_R   0.147928 0.173350 0.461321 -0.178622
C27   C     C_R   0.512433 0.452359 0.351260 0.526474
C28   C     C_R   0.542933 0.061850 0.351355 0.518489
C29   C     C_R   0.903576 0.468867 0.360608 0.522880
C30   C     C_R   0.419922 0.541112 0.639641 0.557275
C31   C     C_R   0.058496 0.543723 0.650821 0.532858
C32   C     C_R   0.931740 0.475884 0.148021 0.524677
C33   C     C_R   0.478179 0.927036 0.644005 0.542474
C34   C     C_R   0.480842 0.993973 0.923209 -0.010912
C35   C     C_R   0.037314 0.509008 0.928173 -0.009587
C36   C     C_R   0.520746 0.526980 0.921081 0.017495
C37   C     C_R   0.985044 0.488520 0.075504 -0.010541
C38   C     C_R   0.504243 0.028401 0.072921 0.000409
C39   C     C_R   0.529937 0.494380 0.066788 0.004131
C40   C     C_R   0.370534 0.989172 0.961495 -0.010857
C41   C     C_R   0.050117 0.411678 0.966388 0.002969
C42   C     C_R   0.586075 0.637557 0.964516 0.014546
C43   C     C_R   0.457492 0.526078 0.852177 0.540373
C44   C     C_R   0.050354 0.423359 0.045013 0.004543
C45   C     C_R   0.374099 0.981893 0.040336 -0.010357
C46   C     C_R   0.562343 0.616451 0.040812 0.004202
C47   C     C_R   0.611333 0.084878 0.027090 -0.030639
C48   C     C_R   0.950246 0.556041 0.029576 -0.050495
C49   C     C_R   0.564179 0.425622 0.015841 -0.035809
C50   C     C_R   0.020234 0.594423 0.968934 -0.035260
C51   C     C_R   0.594171 0.032566 0.961341 -0.026342
C52   C     C_R   0.554395 0.437144 0.941038 -0.008193
C53   C     C_R   0.265077 0.004465 0.928591 0.035321
C54   C     C_R   0.076689 0.548887 0.853943 0.541854
C55   C     C_R   0.083454 0.319612 0.934296 0.070816
C56   C     C_R   0.712252 0.740682 0.942850 0.018054
C57   C     C_R   0.112740 0.369039 0.086768 0.024472
C58   C     C_R   0.257850 0.963421 0.080225 0.014285
C59   C     C_R   0.625542 0.720467 0.087388 0.050492
C60   C     C_R   0.174547 0.013312 0.974633 -0.164539
C61   C     C_R   0.150916 0.279550 0.978236 -0.146768
C62   C     C_R   0.788781 0.823222 0.997596 -0.171310
C63   C     C_R   0.152809 0.292486 0.051369 -0.159332
C64   C     C_R   0.173031 0.996857 0.046639 -0.180664
C65   C     C_R   0.474631 0.932851 0.852523 0.545982
C66   C     C_R   0.745519 0.815703 0.066982 -0.152276
C67   C     C_R   0.498491 0.970922 0.568579 -0.006463
C68   C     C_R   0.969192 0.499021 0.588918 -0.001280
C69   C     C_R   0.413795 0.527481 0.559088 -0.006715
C70   C     C_R   0.927469 0.482072 0.440598 -0.034048
C71   C     C_R   0.497600 0.990414 0.418882 -0.016407
C72   C     C_R   0.450929 0.481229 0.414729 0.016937
C73   C     C_R   0.589190 0.952299 0.524767 0.001133
C74   C     C_R   0.944092 0.587855 0.554960 0.025938
C75   C     C_R   0.315581 0.411876 0.524242 0.011891
C76   C     C_R   0.401484 0.999930 0.460482 0.001905
C77   C     C_R   0.947800 0.593671 0.480251 0.010798
C78   C     C_R   0.577786 0.948428 0.450281 -0.008621
C79   C     C_R   0.338535 0.384819 0.452727 0.032831
C80   C     C_3   0.750537 0.188092 0.046558 -0.216550
C81   C     C_3   0.838752 0.136602 0.074819 -0.373776
C82   C     C_3   0.859867 0.608949 0.047153 -0.218511
C83   C     C_3   0.933275 0.734626 0.088081 -0.365161
C84   C     C_3   0.557368 0.311300 0.041055 -0.287612
C85   C     C_3   0.413794 0.231868 0.043156 -0.377247
C86   C     C_3   0.091874 0.731042 0.955353 -0.211249
C87   C     C_R   0.898042 0.372185 0.482121 -0.035531
C88   C     C_3   0.999261 0.760827 0.914817 -0.365389
C89   C     C_3   0.669276 0.967436 0.952263 -0.223711
C90   C     C_3   0.792205 0.050019 0.911702 -0.406887
C91   C     C_3   0.581845 0.359162 0.885881 -0.296052
C92   C     C_3   0.722831 0.382939 0.884901 -0.462570
C93   C     C_3   0.237846 0.022046 0.849634 -0.243422
C94   C     C_3   0.337997 0.137620 0.811026 -0.445267
C95   C     C_3   0.053351 0.246367 0.859892 -0.201478
C96   C     C_3   0.953409 0.239026 0.803335 -0.400134
C97   C     C_3   0.767465 0.785021 0.865961 -0.246223
C98   C     C_R   0.490914 0.602200 0.441087 0.000854
C99   C     C_3   0.773017 0.693207 0.809318 -0.419104
C100  C     C_3   0.131668 0.371750 0.168258 -0.252048
C101  C     C_3   0.175383 0.496904 0.208102 -0.422145
C102  C     C_3   0.223449 0.935411 0.159520 -0.239435
C103  C     C_3   0.242563 0.828135 0.186481 -0.448962
C104  C     C_3   0.570822 0.735507 0.157290 -0.274377
C105  C     C_3   0.438865 0.723109 0.144550 -0.466763
C106  C     C_3   0.283620 0.994127 0.424077 -0.253063
C107  C     C_3   0.225084 0.888342 0.367867 -0.427554
C108  C     C_3   0.818907 0.244248 0.449942 -0.213247
Cr1   Cr    Cr6+3 0.768550 0.541320 0.250660 0.946312
Cr2   Cr    Cr6+3 0.458680 0.227230 0.250660 0.931369
Cr3   Cr    Cr6+3 0.772770 0.231450 0.250660 0.923055
Cr4   Cr    Cr6+3 0.541320 0.768550 0.749340 0.939409
Cr5   Cr    Cr6+3 0.227230 0.458680 0.749340 0.924674
Cr6   Cr    Cr6+3 0.231450 0.772770 0.749340 0.952352
H1    H     H_    0.781949 0.041044 0.095836 0.156044
H2    H     H_    0.777696 0.538687 0.078279 0.191120
H3    H     H_    0.971953 0.734470 0.397461 0.161962
H4    H     H_    0.636817 0.889988 0.351714 0.125414
H5    H     H_    0.225516 0.254234 0.364558 0.142055
H6    H     H_    0.869967 0.939385 0.530649 0.097193
H7    H     H_    0.963290 0.868483 0.601721 0.084589
H8    H     H_    0.047414 0.125389 0.561098 0.086060
H9    H     H_    0.997700 0.895976 0.470833 0.088985
H10   H     H_    0.814551 0.871683 0.404133 0.098796
H11   H     H_    0.080447 0.085761 0.435211 0.089474
H12   H     H_    0.387316 0.179504 0.091300 0.226918
H13   H     H_    0.355806 0.279310 0.049133 0.147721
H14   H     H_    0.386397 0.196150 0.990282 0.164338
H15   H     H_    0.602323 0.275027 0.003608 0.150160
H16   H     H_    0.604683 0.322152 0.093233 0.162848
H17   H     H_    0.038747 0.813001 0.866236 0.150728
H18   H     H_    0.909010 0.673284 0.900101 0.176335
H19   H     H_    0.975056 0.818291 0.946335 0.135559
H20   H     H_    0.123322 0.779778 0.005507 0.155163
H21   H     H_    0.907729 0.137223 0.035137 0.131635
H22   H     H_    0.187567 0.759989 0.929287 0.182282
H23   H     H_    0.786135 0.019547 0.856848 0.170798
H24   H     H_    0.813886 0.149569 0.912860 0.167894
H25   H     H_    0.875048 0.047312 0.935125 0.112821
H26   H     H_    0.690629 0.948924 0.003728 0.165083
H27   H     H_    0.606713 0.868371 0.935363 0.177173
H28   H     H_    0.768821 0.414350 0.937285 0.159145
H29   H     H_    0.721467 0.292405 0.871221 0.131366
H30   H     H_    0.784062 0.453675 0.844587 0.144372
H31   H     H_    0.520123 0.258163 0.898696 0.155838
H32   H     H_    0.892730 0.188863 0.121375 0.180585
H33   H     H_    0.558319 0.375360 0.831331 0.147457
H34   H     H_    0.344883 0.222583 0.838064 0.170246
H35   H     H_    0.432353 0.137058 0.805629 0.158533
H36   H     H_    0.300751 0.136405 0.757007 0.129354
H37   H     H_    0.207765 0.939048 0.814593 0.194596
H38   H     H_    0.147588 0.030935 0.846062 0.077955
H39   H     H_    0.887752 0.274846 0.822723 0.145585
H40   H     H_    0.005276 0.293102 0.755919 0.190633
H41   H     H_    0.898573 0.143177 0.779008 0.078768
H42   H     H_    0.142198 0.271271 0.830260 0.197590
H43   H     H_    0.797663 0.251576 0.001118 0.113255
H44   H     H_    0.031208 0.147477 0.868898 0.058626
H45   H     H_    0.874155 0.720381 0.792255 0.109140
H46   H     H_    0.722166 0.594557 0.827458 0.167757
H47   H     H_    0.727195 0.698574 0.759067 0.175501
H48   H     H_    0.711690 0.824890 0.841677 0.212322
H49   H     H_    0.866567 0.869823 0.867625 0.082735
H50   H     H_    0.271989 0.528231 0.233375 0.125213
H51   H     H_    0.180912 0.570719 0.172449 0.145057
H52   H     H_    0.105819 0.484636 0.251642 0.185952
H53   H     H_    0.045710 0.294513 0.195255 0.142754
H54   H     H_    0.744014 0.253073 0.085312 0.173983
H55   H     H_    0.208751 0.345581 0.179790 0.152633
H56   H     H_    0.167134 0.772108 0.227022 0.152846
H57   H     H_    0.232489 0.763676 0.141652 0.146275
H58   H     H_    0.340276 0.869265 0.211262 0.155648
H59   H     H_    0.262429 0.019126 0.195199 0.181940
H60   H     H_    0.119263 0.907442 0.169747 0.085214
H61   H     H_    0.399508 0.728117 0.197183 0.128998
H62   H     H_    0.447889 0.800554 0.110052 0.160976
H63   H     H_    0.373759 0.630968 0.117862 0.170110
H64   H     H_    0.561044 0.667176 0.198366 0.173440
H65   H     H_    0.877414 0.739506 0.134916 0.176062
H66   H     H_    0.634439 0.831342 0.181124 0.143525
H67   H     H_    0.097186 0.028824 0.954582 0.093531
H68   H     H_    0.198417 0.230796 0.955023 0.120179
H69   H     H_    0.880904 0.905949 0.987861 0.095965
H70   H     H_    0.174288 0.230741 0.082750 0.105337
H71   H     H_    0.101531 0.010636 0.077128 0.093783
H72   H     H_    0.809678 0.884765 0.105555 0.080470
H73   H     H_    0.296118 0.896880 0.326701 0.164655
H74   H     H_    0.192604 0.795299 0.393219 0.154350
H75   H     H_    0.142521 0.891400 0.340927 0.112699
H76   H     H_    0.026550 0.745348 0.106439 0.185799
H77   H     H_    0.205941 0.971896 0.462760 0.139196
H78   H     H_    0.307509 0.087290 0.401513 0.193000
H79   H     H_    0.007639 0.281254 0.403032 0.158312
H80   H     H_    0.921928 0.141372 0.455953 0.141261
H81   H     H_    0.871015 0.141956 0.368174 0.180380
H82   H     H_    0.752005 0.176791 0.488832 0.138460
H83   H     H_    0.748169 0.248994 0.413979 0.188007
H84   H     H_    0.202859 0.520715 0.447500 0.168001
H85   H     H_    0.215259 0.620447 0.374933 0.131680
H86   H     H_    0.249412 0.493527 0.359132 0.147739
H87   H     H_    0.961677 0.815051 0.055859 0.125334
H88   H     H_    0.401367 0.722176 0.458301 0.168509
H89   H     H_    0.446982 0.711396 0.366800 0.133935
H90   H     H_    0.781079 0.315096 0.678523 0.146480
H91   H     H_    0.685366 0.206174 0.608475 0.152461
H92   H     H_    0.745347 0.151954 0.680721 0.159350
H93   H     H_    0.879406 0.184404 0.570113 0.130492
H94   H     H_    0.966100 0.275781 0.639027 0.147125
H95   H     H_    0.466225 0.139373 0.672779 0.158961
H96   H     H_    0.516795 0.239174 0.595653 0.139880
H97   H     H_    0.380250 0.222830 0.647157 0.169689
H98   H     H_    0.811553 0.616884 0.999790 0.155787
H99   H     H_    0.294683 0.102336 0.545497 0.155457
H100  H     H_    0.257304 0.985479 0.611125 0.178048
H101  H     H_    0.537773 0.405019 0.535753 0.154318
H102  H     H_    0.684274 0.469098 0.485751 0.153277
H103  H     H_    0.687168 0.474255 0.582293 0.137585
H104  H     H_    0.720689 0.674004 0.491942 0.175382
H105  H     H_    0.684339 0.667043 0.584161 0.173142
H106  H     H_    0.743483 0.986138 0.602642 0.144872
H107  H     H_    0.894350 0.660415 0.650689 0.119942
H108  H     H_    0.161678 0.336921 0.605274 0.175687
O1    O     O_R   0.910960 0.572410 0.171010 -0.542412
O2    O     O_R   0.528530 0.639750 0.824400 -0.527372
O3    O     O_R   0.111220 0.471470 0.824400 -0.515439
O4    O     O_R   0.360250 0.888780 0.824400 -0.529511
O5    O     O_R   0.909330 0.572400 0.331540 -0.546842
O6    O     O_R   0.427600 0.336930 0.331540 -0.552305
O7    O     O_R   0.663070 0.090670 0.331540 -0.560852
O8    O     O_R   0.572400 0.909330 0.668460 -0.556176
O9    O     O_R   0.336930 0.427600 0.668460 -0.557528
O10   O     O_R   0.090670 0.663070 0.668460 -0.528239
O11   O     O_R   0.638240 0.528520 0.324410 -0.503271
O12   O     O_R   0.427590 0.338550 0.171010 -0.554363
O13   O     O_R   0.471480 0.109720 0.324410 -0.512948
O14   O     O_R   0.890280 0.361760 0.324410 -0.525378
O15   O     O_R   0.528520 0.638240 0.675590 -0.523318
O16   O     O_R   0.109720 0.471480 0.675590 -0.561788
O17   O     O_R   0.361760 0.890280 0.675590 -0.505135
O18   O     O_3   0.666667 0.333333 0.250630 -0.286805
O19   O     O_3   0.333333 0.666667 0.749370 -0.291972
O20   O     O_R   0.661450 0.089040 0.171010 -0.541482
O21   O     O_R   0.572410 0.910960 0.828990 -0.558554
O22   O     O_R   0.338550 0.427590 0.828990 -0.552736
O23   O     O_R   0.089040 0.661450 0.828990 -0.551853
O24   O     O_R   0.639750 0.528530 0.175600 -0.530895
O25   O     O_R   0.471470 0.111220 0.175600 -0.541756
O26   O     O_R   0.888780 0.360250 0.175600 -0.536285

loop_
_geom_bond_atom_site_label_1
_geom_bond_atom_site_label_2
_ccdc_geom_bond_type
Cr2   O25   S    
C15   H107  S    
C93   C94   S    
C99   H45   S    
C46   C59   A    
C16   C75   A    
Cr6   O19   S    
C83   H76   S    
C16   H108  S    
C95   C96   S    
C106  H78   S    
C7    H91   S    
C36   C43   S    
C90   H23   S    
C91   H33   S    
C90   H25   S    
Cr1   O5    S    
C91   H31   S    
C5    H85   S    
C72   C98   A    
C102  H59   S    
C65   O21   A    
C10   H104  S    
C61   H68   S    
C3    H79   S    
C32   O26   A    
C100  H53   S    
C34   C40   A    
C59   C104  S    
C56   C97   S    
C49   C84   S    
C88   H19   S    
C72   C79   A    
C2    C68   A    
C1    O24   A    
C59   C66   A    
Cr6   O10   S    
C71   C76   A    
Cr2   O18   S    
C27   O6    A    
C54   O23   A    
C96   H41   S    
Cr6   O4    S    
C106  C107  S    
C68   C74   A    
C95   H44   S    
C107  H73   S    
C84   H15   S    
C108  H83   S    
Cr4   O8    S    
C95   H42   S    
C42   C46   A    
C23   C26   A    
C13   C98   A    
C61   C63   A    
C19   C26   A    
C41   C55   A    
C38   C45   A    
C42   C56   A    
C62   H69   S    
C99   H47   S    
C36   C42   A    
C86   H20   S    
C15   C22   A    
C104  H64   S    
C87   C108  S    
C9    H95   S    
Cr3   O26   S    
C97   H49   S    
C74   C77   A    
C4    C98   S    
C65   O4    A    
C103  H56   S    
C73   C78   A    
C57   C63   A    
C58   C102  S    
C3    C108  S    
C23   H8    S    
C32   O1    A    
C92   H28   S    
C1    O12   A    
C6    H94   S    
C64   H71   S    
C36   C52   A    
C83   H87   S    
C11   H102  S    
C89   H26   S    
C44   C57   A    
C48   C50   A    
C19   H5    S    
C99   H46   S    
C35   C54   S    
C103  H57   S    
Cr4   O2    S    
C14   H106  S    
C85   H12   S    
C2    C6    S    
C18   C25   A    
C47   C80   S    
C7    H92   S    
C35   C41   A    
C70   C87   A    
C34   C65   S    
C104  C105  S    
C97   C99   S    
C53   C60   A    
C10   H105  S    
C81   H21   S    
C5    H86   S    
C82   H98   S    
Cr4   O21   S    
C94   H34   S    
C31   C68   S    
C12   C67   A    
C96   H40   S    
C45   C58   A    
C17   C24   A    
C21   C38   S    
C86   C88   S    
C106  H77   S    
C107  H75   S    
C3    H80   S    
C14   C73   A    
C14   C20   A    
C20   C25   A    
C84   C85   S    
C21   O25   A    
C8    H99   S    
C91   C92   S    
C62   C66   A    
C8    C9    S    
C4    H89   S    
C47   C51   A    
C58   C64   A    
C57   C100  S    
C53   C93   S    
C107  H74   S    
C105  H62   S    
C24   H9    S    
C3    H81   S    
C94   H35   S    
C26   H11   S    
C30   O9    A    
C90   H24   S    
C50   C86   S    
C19   C79   A    
C101  H52   S    
C54   O3    A    
C7    H90   S    
C33   O17   A    
C92   H29   S    
C4    H88   S    
C96   H39   S    
C9    H96   S    
C8    C12   S    
Cr5   O22   S    
C31   O10   A    
C81   H1    S    
C35   C50   A    
C17   C77   A    
Cr3   O14   S    
C34   C51   A    
C2    C87   A    
C81   H32   S    
C32   C37   S    
C37   C48   A    
C101  H51   S    
C6    H93   S    
C6    C7    S    
C39   C46   A    
C67   C73   A    
C55   C95   S    
Cr4   O19   S    
C39   C49   A    
C31   O16   A    
Cr1   O24   S    
Cr4   O15   S    
C16   C23   A    
Cr5   O19   S    
C66   H72   S    
C103  H58   S    
Cr3   O7    S    
Cr5   O9    S    
C22   C24   A    
C93   H37   S    
C28   C71   S    
C108  H82   S    
C29   O5    A    
C30   O15   A    
C33   O8    A    
Cr5   O3    S    
C20   H6    S    
C30   C69   S    
Cr2   O13   S    
C33   C67   S    
C22   H7    S    
C18   C78   A    
C29   C70   S    
Cr1   O18   S    
C86   H22   S    
C60   H67   S    
C18   H4    S    
Cr5   O16   S    
C76   C106  S    
C63   H70   S    
C100  H55   S    
C38   C47   A    
C101  H50   S    
Cr3   O20   S    
C49   C52   A    
C105  H63   S    
C80   C81   S    
C85   H14   S    
C10   C13   S    
Cr1   O1    S    
C40   C53   A    
C5    H84   S    
C17   H3    S    
C43   O22   A    
C102  H60   S    
C8    H100  S    
Cr3   O18   S    
C83   H65   S    
C60   C64   A    
C37   C44   A    
C12   C76   A    
C43   O2    A    
C82   H2    S    
Cr2   O6    S    
C11   H103  S    
C51   C89   S    
C80   H43   S    
C104  H66   S    
C13   C69   A    
C9    H97   S    
C89   H27   S    
C55   C61   A    
C84   H16   S    
C100  C101  S    
C41   C44   A    
C48   C82   S    
C93   H38   S    
C69   C75   A    
C27   O11   A    
C56   C62   A    
C102  C103  S    
C92   H30   S    
C25   H10   S    
C85   H13   S    
C10   C11   S    
C1    C39   S    
C28   O13   A    
Cr6   O23   S    
C94   H36   S    
C4    C5    S    
C15   C74   A    
C40   C45   A    
C97   H48   S    
C105  H61   S    
C88   H18   S    
Cr6   O17   S    
C52   C91   S    
C88   H17   S    
C82   C83   S    
C89   C90   S    
C29   O14   A    
C75   C79   A    
C28   O7    A    
C80   H54   S    
C71   C78   A    
C27   C72   S    
Cr2   O12   S    
C11   H101  S    
C21   O20   A    
C70   C77   A    
Cr1   O11   S    
