data_mof_unit_51835.cif
_audit_creation_date              2013-03-05T16:33:00-0500
_audit_creation_method            fapswitch 2.2
_symmetry_space_group_name_H-M    P1
_symmetry_Int_Tables_number       1
_space_group_crystal_system       triclinic
_cell_length_a                    23.496887
_cell_length_b                    10.830464
_cell_length_c                    9.557375
_cell_angle_alpha                 90.035068
_cell_angle_beta                  90.472997
_cell_angle_gamma                 90.162526
_cell_volume                      2432.08855577

loop_
_atom_site_label
_atom_site_type_symbol
_atom_site_description
_atom_site_fract_x
_atom_site_fract_y
_atom_site_fract_z
_atom_type_partial_charge
O1    O     O_R   0.500000 0.319640 0.618810 -0.549849
O2    O     O_R   0.500010 0.319680 0.381230 -0.565129
C1    C     C_R   0.498052 0.262607 0.499973 0.887837
O3    O     O_R   0.417880 0.499940 0.618820 -0.600049
O4    O     O_R   0.417880 0.499980 0.381240 -0.591130
C2    C     C_R   0.391012 0.499856 0.499510 0.811156
Cu1   Cu    Cu3+1 0.500000 0.499980 0.640670 1.017011
Cu2   Cu    Cu3+1 0.500000 0.500020 0.359330 1.042460
O5    O     O_R   0.499990 0.680320 0.618770 -0.595229
O6    O     O_R   0.500000 0.680360 0.381190 -0.541925
O7    O     O_R   0.582120 0.500020 0.618760 -0.544983
O8    O     O_R   0.582120 0.500060 0.381180 -0.546373
C3    C     C_R   0.497494 0.737808 0.499411 0.838192
C4    C     C_R   0.608728 0.499762 0.500187 0.911505
C5    C     C_R   0.880361 0.575244 0.405834 0.638039
N1    N     N_R   0.851157 0.511041 0.505122 -0.455228
C6    C     C_R   0.878598 0.443825 0.606272 0.657092
C7    C     C_R   0.938720 0.436400 0.608856 -0.181279
C8    C     C_R   0.969392 0.504670 0.508405 -0.035357
C9    C     C_R   0.939940 0.575205 0.406784 -0.000296
C10   C     C_R   0.969030 0.365612 0.709501 0.250995
C11   C     C_R   0.028936 0.364276 0.710145 0.249283
C12   C     C_R   0.059706 0.430979 0.607761 -0.177259
C13   C     C_R   0.029584 0.502785 0.508641 -0.036059
C14   C     C_R   0.059605 0.573086 0.408827 0.010965
C15   C     C_R   0.029640 0.643657 0.309821 -0.101120
C16   C     C_R   0.970491 0.644053 0.308224 -0.095974
C17   C     C_R   0.119742 0.426403 0.598280 0.639474
N2    N     N_R   0.147851 0.496643 0.501705 -0.460623
C18   C     C_R   0.119166 0.570994 0.409842 0.621363
O9    O     O_2   0.851680 0.638999 0.306671 -0.450976
O10   O     O_2   0.847386 0.386147 0.704475 -0.416302
O11   O     O_2   0.150088 0.350751 0.682254 -0.434879
O12   O     O_2   0.148334 0.642231 0.319252 -0.491542
H1    H     H_    0.051796 0.698090 0.232242 0.206981
H2    H     H_    0.948795 0.698977 0.229660 0.211623
C19   C     C_R   0.238714 0.446976 0.382076 0.378739
C20   C     C_R   0.298407 0.452543 0.382234 -0.254734
H3    H     H_    0.321520 0.416624 0.293529 0.184236
C21   C     C_R   0.328508 0.498817 0.498448 -0.087809
C22   C     C_R   0.298615 0.542271 0.614585 -0.180555
H4    H     H_    0.321001 0.578850 0.705145 0.175387
C23   C     C_R   0.239434 0.541089 0.613988 -0.113428
H5    H     H_    0.216911 0.577320 0.703434 0.186218
C24   C     C_R   0.209023 0.493804 0.498964 0.213860
C25   C     C_R   0.761785 0.403343 0.458744 -0.150612
H6    H     H_    0.786701 0.323826 0.428464 0.210062
C26   C     C_R   0.702339 0.395817 0.458842 0.336455
C27   C     C_R   0.670875 0.500337 0.500116 -0.156044
C28   C     C_R   0.699012 0.609964 0.536658 -0.195793
H7    H     H_    0.674158 0.690224 0.564984 0.199028
C29   C     C_R   0.758556 0.616208 0.541318 0.414132
C30   C     C_R   0.790055 0.511076 0.501697 0.149789
C31   C     C_R   0.493711 0.063957 0.624554 0.095761
C32   C     C_R   0.490829 0.130093 0.499996 -0.192143
C33   C     C_R   0.477290 0.066810 0.375963 -0.171792
H8    H     H_    0.469833 0.116932 0.279463 0.220798
C34   C     C_R   0.475989 0.937835 0.373740 0.389897
C35   C     C_R   0.489586 0.871209 0.497826 -0.172069
C36   C     C_R   0.493274 0.937061 0.623447 0.013068
C37   C     C_3   0.535093 0.929974 0.741754 -0.450866
C38   C     C_3   0.535915 0.070285 0.741849 0.270530
H9    H     H_    0.515482 0.889647 0.836806 0.244636
H10   H     H_    0.576311 0.888602 0.710129 0.193307
H11   H     H_    0.577409 0.111201 0.710992 0.171134
C39   C     C_R   0.548938 0.522385 0.075196 0.187407
N3    N     N_R   0.500360 0.500930 0.147930 -0.211379
C40   C     C_R   0.453028 0.465818 0.073260 0.004687
H12   H     H_    0.414698 0.439286 0.127304 0.147102
C41   C     C_R   0.452965 0.466142 0.924783 0.003620
H13   H     H_    0.414551 0.439841 0.869395 0.158146
N4    N     N_R   0.500360 0.500890 0.852020 -0.216579
C42   C     C_R   0.549366 0.520598 0.927679 0.225290
C43   C     C_3   0.586444 0.633138 0.923202 0.093464
C44   C     C_3   0.584330 0.636822 0.082761 0.046436
H14   H     H_    0.564984 0.712010 0.872434 0.101707
H15   H     H_    0.560912 0.717816 0.124439 0.150283
N5    N     N_R   0.939746 0.293851 0.812444 0.196170
O13   O     O_R   0.916913 0.188591 0.777379 -0.221528
O14   O     O_R   0.943147 0.324425 0.943911 -0.248882
N6    N     N_R   0.675102 0.281770 0.418754 0.152769
O15   O     O_R   0.628883 0.245146 0.480284 -0.385279
O16   O     O_R   0.699960 0.207066 0.331952 -0.248773
N7    N     N_R   0.785987 0.728082 0.588424 0.171308
O17   O     O_R   0.835373 0.724793 0.650878 -0.288520
O18   O     O_R   0.759287 0.833032 0.580928 -0.256641
Cl1   Cl    Cl    0.458771 0.868065 0.211797 -0.570015
Cl2   Cl    Cl    0.505746 0.135669 0.895911 -0.526159
N8    N     N_R   0.057775 0.296087 0.817850 0.194414
O19   O     O_R   0.082956 0.354672 0.920001 -0.233892
O20   O     O_R   0.052411 0.176636 0.824048 -0.235957
Cl3   Cl    Cl    0.655190 0.601406 0.853296 -0.456207
N9    N     N_R   0.639375 0.617417 0.152565 0.201363
O21   O     O_R   0.662973 0.707926 0.221396 -0.291587
O22   O     O_R   0.664452 0.510311 0.150100 -0.258051
N10   N     N_R   0.209218 0.391750 0.264977 0.154947
O23   O     O_R   0.232897 0.388740 0.142392 -0.298253
O24   O     O_R   0.161251 0.333665 0.282512 -0.285015

loop_
_geom_bond_atom_site_label_1
_geom_bond_atom_site_label_2
_geom_bond_distance
_ccdc_geom_bond_type
C32   C33   1.402753 A    
N9    O21   1.300456 A    
C7    C10   1.418772 A    
C42   C43   1.497031 S    
C8    C9    1.413710 A    
C34   Cl1   1.765418 S    
N6    O15   1.300368 A    
Cu1   Cu2   2.688872 S    
C31   C36   1.374391 A    
C33   H8    1.083736 S    
Cu1   O7    1.942608 S    
C15   C16   1.389787 A    
C19   C20   1.403725 A    
C43   H14   1.103764 S    
C17   N2    1.369294 A    
N7    O18   1.301580 A    
C20   H3    1.083245 S    
O7    C4    1.298784 A    
N5    O14   1.300934 A    
C4    C27   1.460279 S    
C5    N1    1.365190 A    
C26   N6    1.439775 S    
C37   H9    1.111131 S    
C7    C8    1.413169 A    
C22   H4    1.083336 S    
C43   Cl3   1.787290 S    
C29   N7    1.440960 S    
O5    C3    1.300927 A    
N1    C30   1.435794 S    
C25   H6    1.083309 S    
C1    C32   1.444712 S    
C40   H12   1.080226 S    
N10   O24   1.301280 A    
C10   N5    1.433379 S    
C28   C29   1.400887 A    
C12   C13   1.412843 A    
C41   H13   1.080071 S    
N8    O20   1.300911 A    
C39   N3    1.360838 A    
C35   C36   1.398039 A    
N9    O22   1.302860 A    
C10   C11   1.407683 A    
C22   C23   1.390561 A    
O3    Cu1   1.939116 S    
N6    O16   1.301486 A    
C28   H7    1.084028 S    
C5    C9    1.399877 A    
C25   C26   1.398940 A    
C43   C44   1.526687 S    
C18   O12   1.349895 S    
N3    C40   1.369289 A    
C13   C14   1.412899 A    
O3    C2    1.298820 A    
Cu1   N4    2.019918 S    
N5    O13   1.301112 A    
N1    C6    1.368754 A    
C31   C38   1.491969 S    
C14   C15   1.402935 A    
C39   C42   1.410113 A    
C38   Cl2   1.786296 S    
C19   N10   1.440361 S    
N2    C24   1.438213 S    
C36   C37   1.494029 S    
O1    C1    1.292952 A    
C37   H10   1.112308 S    
C23   H5    1.083097 S    
N2    C18   1.366643 A    
C23   C24   1.402017 A    
Cu2   O8    1.939116 S    
N10   O23   1.301565 A    
C6    C7    1.415228 A    
C12   C17   1.415323 A    
N7    O17   1.301127 A    
C44   H15   1.112139 S    
Cu2   O6    1.964180 S    
C21   C22   1.400337 A    
O8    C4    1.293378 A    
C17   O11   1.348524 S    
C2    C21   1.468617 S    
C19   C24   1.416372 A    
C29   C30   1.412994 A    
C44   N9    1.466132 S    
C14   C18   1.399711 A    
Cu1   O5    1.964478 S    
C31   C32   1.390975 A    
C26   C27   1.411591 A    
C38   H11   1.111922 S    
O1    Cu1   1.964181 S    
O2    Cu2   1.964478 S    
N4    C42   1.370786 A    
O6    C3    1.291380 A    
O4    Cu2   1.942613 S    
C5    O9    1.349831 S    
C3    C35   1.457282 S    
C9    C16   1.402721 A    
C16   H2    1.083274 S    
C8    C13   1.414525 A    
C34   C35   1.423127 A    
C20   C21   1.403349 A    
O4    C2    1.299245 A    
C39   C44   1.491982 S    
C25   C30   1.400609 A    
C11   N8    1.434033 S    
C33   C34   1.397258 A    
O2    C1    1.293712 A    
C37   C38   1.519699 S    
C15   H1    1.083273 S    
Cu2   N3    2.020546 S    
C40   C41   1.419054 A    
C27   C28   1.399995 A    
C6    O10   1.348496 S    
C11   C12   1.418355 A    
C41   N4    1.369719 A    
N8    O19   1.301314 A    
