data_mof_unit_62582.cif
_audit_creation_date              2012-12-10T18:14:37-0500
_audit_creation_method            fapswitch 2.2
_symmetry_space_group_name_H-M    P1
_symmetry_Int_Tables_number       1
_space_group_crystal_system       triclinic
_cell_length_a                    42.336579
_cell_length_b                    29.205041
_cell_length_c                    30.599749
_cell_angle_alpha                 90.012753
_cell_angle_beta                  136.380409
_cell_angle_gamma                 89.990256
_cell_volume                      26100.9840044

loop_
_atom_site_label
_atom_site_type_symbol
_atom_type_description
_atom_site_fract_x
_atom_site_fract_y
_atom_site_fract_z
_atom_type_partial_charge
C1    C     C_R   0.586687 0.500000 0.587097 0.909583
C2    C     C_1   0.003244 0.999820 0.338318 -0.070948
C3    C     C_3   0.533134 0.540337 0.253962 -0.014147
C4    C     C_3   0.026839 0.953926 0.248545 -0.020830
C5    C     C_3   0.031951 0.041272 0.252792 -0.014186
C6    C     C_1   0.500496 0.499519 0.121030 -0.219727
C7    C     C_1   0.000497 0.999554 0.121032 -0.219739
C8    C     C_3   0.504224 0.499466 0.293162 0.258089
C9    C     C_3   0.004230 0.999556 0.293169 0.258107
C10   C     C_3   0.503296 0.498859 0.208040 0.257113
C11   C     C_3   0.003310 0.998965 0.208055 0.257115
C12   C     C_3   0.488986 0.411637 0.278190 -0.850181
C13   C     C_1   0.501479 0.499938 0.374620 -0.218848
C14   C     C_3   0.537323 0.582862 0.333616 -0.857023
C15   C     C_3   0.991515 0.911327 0.280691 -0.850149
C16   C     C_3   0.034930 0.083863 0.331250 -0.857060
C17   C     C_3   0.509958 0.409398 0.207123 -0.860420
C18   C     C_3   0.514792 0.587274 0.219389 -0.851808
C19   C     C_3   0.012527 0.909733 0.209660 -0.860514
C20   C     C_3   0.012271 0.087671 0.216900 -0.851809
C21   C     C_1   0.001480 0.999948 0.374621 -0.218861
C22   C     C_1   0.637269 0.500000 0.637561 -0.224473
C23   C     C_1   0.137269 1.000000 0.637561 -0.224471
C24   C     C_1   0.679407 0.500000 0.679603 0.002758
C25   C     C_1   0.179407 1.000000 0.679603 0.002755
C26   C     C_1   0.729143 0.500000 0.729235 0.005287
C27   C     C_1   0.229143 0.000000 0.729235 0.005284
C28   C     C_1   0.771280 0.500000 0.771298 0.005125
C29   C     C_R   0.086687 1.000000 0.587097 0.909602
C30   C     C_1   0.271280 0.000000 0.771298 0.005122
C31   C     C_1   0.821015 0.500000 0.820969 0.003504
C32   C     C_1   0.321015 0.000000 0.820969 0.003502
C33   C     C_R   0.499346 0.499991 0.417047 0.952103
C34   C     C_R   0.999345 0.999992 0.417045 0.952163
C35   C     C_1   0.863154 0.500000 0.863087 -0.215076
C36   C     C_1   0.363154 0.000000 0.863087 -0.215077
C37   C     C_1   0.499960 0.500012 0.636023 -0.222484
C38   C     C_1   0.999960 0.000012 0.636023 -0.222484
C39   C     C_1   0.499950 0.500012 0.677183 0.015586
C40   C     C_3   0.453777 0.503357 0.176124 -0.397349
C41   C     C_1   0.999950 0.000013 0.677183 0.015586
C42   C     C_1   0.499938 0.500011 0.726175 0.002725
C43   C     C_1   0.999938 0.000011 0.726175 0.002725
C44   C     C_1   0.499931 0.500008 0.767339 0.002714
C45   C     C_1   0.999931 0.000009 0.767339 0.002714
C46   C     C_1   0.499928 0.500005 0.816340 0.015311
C47   C     C_1   0.999928 0.000005 0.816340 0.015311
C48   C     C_1   0.499940 0.500003 0.857522 -0.221473
C49   C     C_1   0.999940 0.000003 0.857522 -0.221473
C50   C     C_1   0.362675 0.500000 0.363002 -0.223614
C51   C     C_3   0.953685 0.002035 0.176038 -0.397329
C52   C     C_1   0.862675 0.000001 0.363002 -0.223613
C53   C     C_1   0.320539 0.500000 0.320824 0.002620
C54   C     C_1   0.820539 0.000000 0.320825 0.002621
C55   C     C_1   0.270807 0.500000 0.271054 0.005331
C56   C     C_1   0.770807 0.000000 0.271054 0.005331
C57   C     C_R   0.413254 0.500000 0.413647 0.906573
C58   C     C_R   0.913254 0.000000 0.413647 0.906587
C59   C     C_1   0.228671 0.500000 0.228888 0.005238
C60   C     C_1   0.728672 0.000000 0.228888 0.005238
C61   C     C_1   0.178940 0.500000 0.179118 0.003536
C62   C     C_3   0.455263 0.509918 0.227217 -0.400497
C63   C     C_1   0.678940 0.000000 0.179118 0.003536
C64   C     C_1   0.136803 0.500000 0.136939 -0.215054
C65   C     C_1   0.636803 0.000000 0.136939 -0.215055
C66   C     C_R   0.500031 0.586641 0.994582 0.906775
C67   C     C_R   0.500032 0.413359 0.994587 0.907824
C68   C     C_R   0.000031 0.086641 0.994582 0.906824
C69   C     C_R   0.000032 0.913359 0.994587 0.907801
C70   C     C_R   0.500086 0.500144 0.076021 0.951618
C71   C     C_R   0.000087 0.000128 0.076021 0.951658
C72   C     C_R   0.499993 0.500000 0.907462 0.892511
C73   C     C_3   0.954988 0.008610 0.226951 -0.400532
C74   C     C_R   0.999993 0.000000 0.907462 0.892512
C75   C     C_R   0.000015 0.413727 0.999129 0.897549
C76   C     C_R   0.000015 0.586273 0.999138 0.897550
C77   C     C_R   0.500015 0.913727 0.999129 0.897549
C78   C     C_R   0.500015 0.086273 0.999138 0.897550
C79   C     C_R   0.913737 0.500000 0.913716 0.897724
C80   C     C_R   0.413737 1.000000 0.913716 0.897724
C81   C     C_R   0.086224 0.500000 0.086286 0.897723
C82   C     C_R   0.586224 1.000000 0.086286 0.897723
C83   C     C_1   0.500042 0.637229 0.995425 -0.224108
C84   C     C_1   0.501683 0.499020 0.160304 -0.068230
C85   C     C_1   0.500044 0.362772 0.995440 -0.224167
C86   C     C_1   0.000042 0.137229 0.995426 -0.224115
C87   C     C_1   0.000044 0.862772 0.995440 -0.224141
C88   C     C_R   0.499972 0.500005 0.586148 0.892509
C89   C     C_R   0.999972 0.000005 0.586148 0.892510
C90   C     C_1   0.500045 0.679368 0.996170 0.002913
C91   C     C_1   0.500047 0.320633 0.996192 0.003105
C92   C     C_1   0.000045 0.179368 0.996170 0.002916
C93   C     C_1   0.000047 0.820633 0.996192 0.003110
C94   C     C_1   0.500043 0.729107 0.997047 0.005424
C95   C     C_1   0.001691 0.999098 0.160313 -0.068249
C96   C     C_1   0.500045 0.270894 0.997076 0.005508
C97   C     C_1   0.000043 0.229107 0.997047 0.005423
C98   C     C_1   0.000045 0.770894 0.997076 0.005511
C99   C     C_1   0.000039 0.271246 0.997751 0.005246
C100  C     C_1   0.000040 0.728755 0.997783 0.005268
C101  C     C_1   0.500039 0.771246 0.997751 0.005249
C102  C     C_1   0.500040 0.228755 0.997783 0.005264
C103  C     C_1   0.000032 0.320988 0.998483 0.003648
C104  C     C_1   0.000033 0.679013 0.998514 0.003666
C105  C     C_1   0.500032 0.820988 0.998483 0.003649
C106  C     C_1   0.503241 0.499775 0.338314 -0.070894
C107  C     C_1   0.500033 0.179013 0.998514 0.003663
C108  C     C_1   0.000025 0.363132 0.998937 -0.215011
C109  C     C_1   0.000026 0.636869 0.998963 -0.215006
C110  C     C_1   0.500025 0.863132 0.998937 -0.215009
C111  C     C_1   0.500026 0.136869 0.998963 -0.215009
C112  C     C_3   0.538694 0.536526 0.310276 -0.022745
C113  C     C_3   0.520099 0.451052 0.292670 -0.014747
C114  C     C_3   0.037623 0.037596 0.309216 -0.022701
C115  C     C_3   0.021483 0.951624 0.294036 -0.014794
C116  C     C_3   0.525525 0.453174 0.247249 -0.020903
H1    H     H_    0.567925 0.536864 0.274159 0.126411
H2    H     H_    0.429310 0.487388 0.216915 0.178200
H3    H     H_    0.944089 0.044043 0.224278 0.180242
H4    H     H_    0.929693 0.985337 0.217299 0.178233
H5    H     H_    0.435420 0.532628 0.142419 0.179367
H6    H     H_    0.433591 0.472189 0.147930 0.180473
H7    H     H_    0.934497 0.030777 0.141515 0.179413
H8    H     H_    0.934398 0.970307 0.148731 0.180440
H9    H     H_    0.504803 0.377931 0.286863 0.239938
H10   H     H_    0.484821 0.413092 0.310020 0.238827
H11   H     H_    0.454522 0.412834 0.228516 0.247207
H12   H     H_    0.562956 0.455483 0.277908 0.115141
H13   H     H_    0.562986 0.606823 0.345464 0.240246
H14   H     H_    0.502900 0.598800 0.297829 0.249273
H15   H     H_    0.546852 0.578156 0.377983 0.239711
H16   H     H_    0.008290 0.878092 0.290310 0.239921
H17   H     H_    0.987314 0.912648 0.312485 0.238896
H18   H     H_    0.957029 0.911543 0.230998 0.247220
H19   H     H_    0.059892 0.108556 0.342403 0.240242
H20   H     H_    0.000064 0.098808 0.295032 0.249243
H21   H     H_    0.044597 0.079417 0.375752 0.239845
H22   H     H_    0.519739 0.411143 0.181911 0.235840
H23   H     H_    0.066825 0.038801 0.273068 0.126377
H24   H     H_    0.527629 0.378863 0.238280 0.241399
H25   H     H_    0.472392 0.404389 0.171496 0.249217
H26   H     H_    0.540041 0.614740 0.251469 0.240478
H27   H     H_    0.509650 0.587251 0.178327 0.233977
H28   H     H_    0.481839 0.596309 0.202178 0.247848
H29   H     H_    0.022250 0.911771 0.184390 0.235914
H30   H     H_    0.031065 0.879710 0.241672 0.241416
H31   H     H_    0.975119 0.903650 0.174193 0.249180
H32   H     H_    0.036726 0.115846 0.248192 0.240466
H33   H     H_    0.007126 0.087516 0.175835 0.233980
H34   H     H_    0.064187 0.957307 0.279118 0.115162
H35   H     H_    0.979076 0.095754 0.199454 0.247872
H36   H     H_    0.573870 0.523168 0.351677 0.114071
H37   H     H_    0.554631 0.444030 0.341287 0.125611
H38   H     H_    0.073169 0.025249 0.350977 0.114074
H39   H     H_    0.056205 0.945588 0.342835 0.125564
H40   H     H_    0.445382 0.545653 0.225547 0.180281
O1    O     O_R   0.563110 0.535630 0.563620 -0.597068
O2    O     O_R   0.500010 0.063160 0.964010 -0.593427
O3    O     O_R   0.000000 0.436830 0.034310 -0.594450
O4    O     O_R   0.000000 0.563170 0.034310 -0.594455
O5    O     O_R   0.500000 0.936830 0.034310 -0.594449
O6    O     O_R   0.500000 0.063170 0.034310 -0.594456
O7    O     O_R   0.936840 0.500000 0.901700 -0.593665
O8    O     O_R   0.436840 0.000000 0.901700 -0.593666
O9    O     O_R   0.936840 0.500000 0.972000 -0.594328
O10   O     O_R   0.436840 0.000000 0.972000 -0.594328
O11   O     O_R   0.063130 0.500000 0.028000 -0.593492
O12   O     O_R   0.563110 0.464370 0.563620 -0.596728
O13   O     O_R   0.563130 0.000000 0.028000 -0.593492
O14   O     O_R   0.063120 0.500000 0.098300 -0.594359
O15   O     O_R   0.563120 0.000000 0.098300 -0.594359
O16   O     O_R   0.499970 0.535640 0.438200 -0.614262
O17   O     O_R   0.499970 0.464360 0.438200 -0.615582
O18   O     O_R   0.999970 0.035640 0.438200 -0.614334
O19   O     O_R   0.999970 0.964360 0.438200 -0.615583
O20   O     O_R   0.436830 0.535630 0.437320 -0.597611
O21   O     O_R   0.436830 0.464370 0.437320 -0.597866
O22   O     O_R   0.936830 0.035630 0.437320 -0.597610
O23   O     O_R   0.063110 0.035630 0.563620 -0.597070
O24   O     O_R   0.936830 0.964370 0.437320 -0.597860
O25   O     O_R   0.499970 0.535630 0.562740 -0.591902
O26   O     O_R   0.499970 0.464370 0.562740 -0.591889
O27   O     O_R   0.999970 0.035630 0.562740 -0.591902
O28   O     O_R   0.999970 0.964370 0.562740 -0.591890
O29   O     O_R   0.535670 0.563060 0.029670 -0.597187
O30   O     O_R   0.535670 0.436940 0.029670 -0.597223
O31   O     O_R   0.035670 0.063060 0.029670 -0.597170
O32   O     O_R   0.035670 0.936940 0.029670 -0.597243
O33   O     O_R   0.464380 0.563080 0.958370 -0.597315
O34   O     O_R   0.063110 0.964370 0.563620 -0.596727
O35   O     O_R   0.464380 0.436920 0.958370 -0.596791
O36   O     O_R   0.964380 0.063080 0.958370 -0.597309
O37   O     O_R   0.964380 0.936920 0.958370 -0.596803
O38   O     O_R   0.535670 0.500000 0.091080 -0.613967
O39   O     O_R   0.035670 0.000000 0.091080 -0.613984
O40   O     O_R   0.464370 0.500000 0.019780 -0.612080
O41   O     O_R   0.964370 0.000000 0.019780 -0.612105
O42   O     O_R   0.535670 0.500000 0.966540 -0.593053
O43   O     O_R   0.035670 0.000000 0.966540 -0.593053
O44   O     O_R   0.464380 0.500000 0.895240 -0.593143
O45   O     O_R   0.964380 0.000000 0.895240 -0.593143
O46   O     O_R   0.000010 0.436840 0.964010 -0.593437
O47   O     O_R   0.000010 0.563160 0.964010 -0.593427
O48   O     O_R   0.500010 0.936840 0.964010 -0.593438
Zn1   Zn    Zn3+2 0.499970 0.547590 0.500630 0.964300
Zn2   Zn    Zn3+2 0.499990 0.000000 0.953050 0.968311
Zn3   Zn    Zn3+2 0.999980 0.500000 0.046950 0.964957
Zn4   Zn    Zn3+2 0.499980 1.000000 0.046950 0.964955
Zn5   Zn    Zn3+2 0.499970 0.452410 0.500630 0.963815
Zn6   Zn    Zn3+2 0.999970 0.047590 0.500630 0.964264
Zn7   Zn    Zn3+2 0.999970 0.952410 0.500630 0.963819
Zn8   Zn    Zn3+2 0.547630 0.500000 0.040770 0.963721
Zn9   Zn    Zn3+2 0.047630 0.000000 0.040770 0.963708
Zn10  Zn    Zn3+2 0.452420 0.500000 0.945550 0.964876
Zn11  Zn    Zn3+2 0.952420 1.000000 0.945550 0.964865
Zn12  Zn    Zn3+2 0.999990 0.500000 0.953050 0.968313

loop_
_geom_bond_atom_site_label_1
_geom_bond_atom_site_label_2
_ccdc_geom_bond_type
C99   C103  S    
C105  C110  T    
O31   Zn9   S    
C73   H3    S    
C96   C102  T    
C5    C114  S    
O24   Zn7   S    
C51   H7    S    
C55   C59   T    
C37   C88   S    
C16   H21   S    
C63   C65   T    
C85   C91   T    
C76   O47   A    
C10   C116  S    
C47   C49   T    
C15   H18   S    
O27   Zn6   S    
C14   C112  S    
C40   H5    S    
O23   Zn6   S    
C19   H29   S    
C9    C73   S    
C60   C63   S    
C9    C114  S    
C89   O27   A    
C22   C24   T    
C17   H25   S    
C18   H27   S    
C24   C26   S    
C5    C11   S    
O30   Zn8   S    
C8    C112  S    
O35   Zn10  S    
C7    C71   S    
C104  C109  T    
C67   O35   A    
C12   H10   S    
C68   O36   A    
C75   O3    A    
C66   O33   A    
C100  C104  S    
O32   Zn9   S    
C40   C62   S    
C20   H33   S    
O22   Zn6   S    
C3    C18   S    
C10   C40   S    
O21   Zn5   S    
O45   Zn11  S    
C34   O19   A    
C3    H1    S    
C91   C96   S    
C20   H32   S    
C4    C19   S    
C88   O26   A    
C78   O2    A    
C80   O8    A    
C15   H16   S    
C94   C101  T    
C52   C54   T    
C76   C109  S    
O39   Zn9   S    
O44   Zn10  S    
C57   O21   A    
C112  H36   S    
O5    Zn4   S    
C71   O41   A    
C78   C111  S    
O19   Zn7   S    
O42   Zn8   S    
O36   Zn11  S    
C69   C87   S    
C67   O30   A    
C113  C116  S    
C115  H39   S    
C45   C47   S    
C66   C83   S    
C82   O13   A    
C1    C22   S    
C49   C74   S    
C73   H4    S    
O43   Zn9   S    
C27   C30   T    
C77   O5    A    
C51   H8    S    
C41   C43   S    
O10   Zn4   S    
O11   Zn12  S    
C48   C72   S    
C5    H23   S    
C80   O10   A    
C97   C99   T    
C75   O46   A    
C44   C46   S    
C92   C97   S    
C90   C94   S    
C39   C42   S    
C54   C56   S    
C14   H15   S    
C53   C55   S    
C101  C105  S    
C46   C48   T    
C59   C61   S    
C19   H30   S    
C6    C84   T    
C50   C53   T    
C89   O28   A    
O47   Zn12  S    
C18   H26   S    
O1    Zn1   S    
C68   O31   A    
C38   C41   T    
C36   C80   S    
C79   O7    A    
O13   Zn2   S    
C12   H11   S    
C21   C34   S    
C1    O12   A    
O41   Zn11  S    
C72   O42   A    
O26   Zn5   S    
C19   H31   S    
C56   C60   T    
C8    C106  S    
C9    C115  S    
O20   Zn1   S    
C61   C64   T    
O25   Zn1   S    
O34   Zn7   S    
C13   C33   S    
C34   O18   A    
C7    C95   T    
C72   O44   A    
C57   O20   A    
O40   Zn10  S    
O7    Zn12  S    
C71   O39   A    
C38   C89   S    
C3    C112  S    
C70   O38   A    
C2    C21   T    
C69   O37   A    
C81   O11   A    
O29   Zn8   S    
C102  C107  S    
C58   O22   A    
C81   O14   A    
C79   O9    A    
C4    C11   S    
O9    Zn3   S    
C69   O32   A    
C17   H22   S    
C52   C58   S    
C8    C113  S    
C68   C86   S    
C14   H13   S    
C70   O40   A    
O48   Zn2   S    
C78   O6    A    
C98   C100  T    
C116  H12   S    
C15   C115  S    
C16   H20   S    
C77   O48   A    
C32   C36   T    
C33   O17   A    
O28   Zn7   S    
C12   C113  S    
C14   H14   S    
C11   C95   S    
C6    C70   S    
C83   C90   T    
C82   O15   A    
O16   Zn1   S    
O6    Zn4   S    
O18   Zn6   S    
C50   C57   S    
C107  C111  T    
O12   Zn5   S    
C28   C31   S    
O17   Zn5   S    
C51   C73   S    
C113  H37   S    
C13   C106  T    
C16   C114  S    
C58   O24   A    
C23   C29   S    
C4    C115  S    
O3    Zn3   S    
C15   H17   S    
C74   O45   A    
C25   C27   S    
C4    H34   S    
C26   C28   T    
C12   H9    S    
C20   H35   S    
C93   C98   S    
C18   H28   S    
C42   C44   T    
O14   Zn3   S    
C43   C45   T    
C3    C10   S    
O8    Zn2   S    
O4    Zn3   S    
C30   C32   S    
C2    C9    S    
C40   H6    S    
C65   C82   S    
C67   C85   S    
C87   C93   T    
C76   O4    A    
C35   C79   S    
C62   H40   S    
C17   H24   S    
C31   C35   T    
C23   C25   T    
C77   C110  S    
C5    C20   S    
C64   C81   S    
C62   H2    S    
C11   C51   S    
O33   Zn10  S    
O38   Zn8   S    
C75   C108  S    
C74   O43   A    
C17   C116  S    
C37   C39   T    
C29   O23   A    
C66   O29   A    
C88   O25   A    
C29   O34   A    
C103  C108  T    
C86   C92   T    
C10   C84   S    
O46   Zn12  S    
O15   Zn4   S    
C33   O16   A    
C16   H19   S    
O2    Zn2   S    
C114  H38   S    
O37   Zn11  S    
C8    C62   S    
C1    O1    A    
