data_mof_unit_59651.cif
_audit_creation_date              2013-03-05T15:55:04-0500
_audit_creation_method            fapswitch 2.2
_symmetry_space_group_name_H-M    P1
_symmetry_Int_Tables_number       1
_space_group_crystal_system       triclinic
_cell_length_a                    15.133726
_cell_length_b                    14.991554
_cell_length_c                    14.935983
_cell_angle_alpha                 109.553996
_cell_angle_beta                  110.11432
_cell_angle_gamma                 109.0736
_cell_volume                      2597.7994726

loop_
_atom_site_label
_atom_site_type_symbol
_atom_site_description
_atom_site_fract_x
_atom_site_fract_y
_atom_site_fract_z
_atom_type_partial_charge
C1    C     C_R   0.187521 0.280046 0.252717 -0.144604
H1    H     H_    0.127014 0.303785 0.247717 0.109128
N1    N     N_R   0.291070 0.347930 0.293870 -0.043504
C2    C     C_R   0.593311 0.501197 0.802278 -0.128856
H2    H     H_    0.654427 0.479189 0.829788 0.148146
N2    N     N_R   0.554050 0.497220 0.706150 -0.042072
C3    C     C_R   0.504430 0.201599 0.408454 -0.166442
H3    H     H_    0.486043 0.155009 0.325219 0.107730
N3    N     N_R   0.497240 0.291100 0.443210 -0.042319
C4    C     C_R   0.293158 0.591044 0.594624 -0.146339
H4    H     H_    0.321883 0.642542 0.680758 0.097186
N4    N     N_R   0.347890 0.554050 0.556810 -0.037719
C5    C     C_R   0.592278 0.290398 0.591973 -0.103042
H5    H     H_    0.650536 0.322040 0.676955 0.113180
N5    N     N_R   0.554050 0.347900 0.556830 -0.039238
C6    C     C_R   0.198433 0.499442 0.410619 -0.127016
H6    H     H_    0.138642 0.467872 0.326190 0.100475
N6    N     N_R   0.291070 0.497250 0.443190 -0.041594
C7    C     C_R   0.501873 0.591624 0.803190 -0.123048
H7    H     H_    0.477366 0.650480 0.831526 0.086638
N7    N     N_R   0.497240 0.554030 0.706140 -0.043368
C8    C     C_R   0.275488 0.185272 0.248590 -0.122030
H8    H     H_    0.294302 0.120079 0.236493 0.100761
N8    N     N_R   0.347890 0.291110 0.293870 -0.043876
C9    C     C_R   0.174022 0.177026 0.222390 0.074829
C10   C     C_R   0.563303 0.560870 0.865807 0.055854
C11   C     C_R   0.562970 0.198093 0.499750 0.068960
C12   C     C_R   0.198188 0.555995 0.504652 0.054215
C13   C     C_R   0.457633 0.723342 0.408447 -0.137666
H9    H     H_    0.414139 0.701968 0.324524 0.100329
N9    N     N_R   0.445950 0.652100 0.443170 -0.038666
C14   C     C_R   0.807500 0.514767 0.591245 -0.072577
H10   H     H_    0.871337 0.556215 0.675538 0.178321
N10   N     N_R   0.708930 0.502750 0.556810 -0.043622
C15   C     C_R   0.560712 0.468326 0.247161 -0.143351
H11   H     H_    0.616820 0.440756 0.242696 0.106214
N11   N     N_R   0.502760 0.445970 0.293860 -0.041634
C16   C     C_R   0.708342 0.799831 0.803644 -0.219075
H12   H     H_    0.673935 0.848044 0.832225 0.127386
N12   N     N_R   0.652110 0.708890 0.706130 -0.059220
C17   C     C_R   0.801826 0.712544 0.803963 0.358405
N13   N     N_R   0.708930 0.652070 0.706130 -0.088589
C18   C     C_R   0.461089 0.550088 0.234332 -0.125862
H13   H     H_    0.416780 0.586773 0.204245 0.086735
N14   N     N_R   0.445950 0.502780 0.293850 -0.041037
C19   C     C_R   0.556021 0.815401 0.592768 -0.126325
H14   H     H_    0.608973 0.878534 0.678484 0.094551
N15   N     N_R   0.502760 0.708900 0.556790 -0.038329
C20   C     C_R   0.712265 0.416552 0.407346 -0.160280
H15   H     H_    0.685634 0.361654 0.322912 0.096029
N16   N     N_R   0.652110 0.445950 0.443190 -0.040885
Ni1   Ni    Ni4+2 0.369690 0.500010 0.369700 0.212541
Ni2   Ni    Ni4+2 0.630310 0.499990 0.630300 0.271146
Ni3   Ni    Ni4+2 0.500000 0.369720 0.369720 0.207502
Ni4   Ni    Ni4+2 0.500000 0.630280 0.630280 0.201038
C21   C     C_R   0.531370 0.826342 0.499911 0.067743
C22   C     C_R   0.810729 0.462440 0.498439 0.031404
C23   C     C_R   0.538299 0.535595 0.210931 0.072533
C24   C     C_R   0.802979 0.805325 0.868141 -0.066054
H16   H     H_    0.099002 0.722009 0.182952 0.118941
C25   C     C_R   0.159686 0.743842 0.346395 -0.127850
H17   H     H_    0.232962 0.820114 0.383025 0.112834
C26   C     C_R   0.140585 0.700967 0.412095 -0.123739
H18   H     H_    0.199551 0.745379 0.499515 0.111122
C27   C     C_R   0.045678 0.601762 0.365271 0.121708
C28   C     C_R   0.970021 0.546992 0.251719 -0.183411
H19   H     H_    0.896917 0.470012 0.213502 0.106163
C29   C     C_R   0.989334 0.590357 0.186397 -0.093746
H20   H     H_    0.930983 0.547565 0.099008 0.120469
C30   C     C_R   0.084127 0.688621 0.233657 -0.095441
C31   C     C_R   0.925791 0.520648 0.428508 -0.237778
H21   H     H_    0.864159 0.529569 0.374310 0.131822
C32   C     C_R   0.907143 0.479780 0.496004 0.076709
C33   C     C_R   0.986845 0.473478 0.571581 0.010325
C34   C     C_R   0.085778 0.508751 0.578705 -0.229935
H22   H     H_    0.146037 0.498626 0.633115 0.136594
C35   C     C_R   0.104270 0.547250 0.509801 0.063740
C36   C     C_R   0.025368 0.555563 0.434854 0.014991
C37   C     C_R   0.016929 0.488055 0.752502 -0.127255
H23   H     H_    0.064399 0.576143 0.792637 0.142650
C38   C     C_R   0.005113 0.439267 0.815815 -0.047979
H24   H     H_    0.042353 0.489545 0.904149 0.115350
C39   C     C_R   0.946971 0.325495 0.765340 -0.126384
H25   H     H_    0.939190 0.287623 0.814554 0.108638
C40   C     C_R   0.899789 0.260545 0.651400 -0.109196
H26   H     H_    0.857058 0.172454 0.612694 0.128862
C41   C     C_R   0.908340 0.309087 0.587332 -0.128949
H27   H     H_    0.871822 0.257921 0.499196 0.109954
C42   C     C_R   0.967533 0.423131 0.637694 0.088505
C43   C     C_R   0.652734 0.547687 0.030308 0.170762
C44   C     C_R   0.602113 0.595793 0.981843 0.035888
C45   C     C_R   0.572654 0.663035 0.041837 -0.201440
H28   H     H_    0.541954 0.709801 0.013111 0.125317
C46   C     C_R   0.564996 0.655335 0.129802 -0.200284
H29   H     H_    0.529355 0.696825 0.166366 0.123999
C47   C     C_R   0.586897 0.580589 0.156494 0.034776
C48   C     C_R   0.645018 0.540017 0.116872 0.165546
C49   C     C_3   0.634184 0.428951 0.075625 -0.529996
C50   C     C_3   0.642813 0.437352 0.981074 -0.516706
H30   H     H_    0.704759 0.428866 0.132146 0.186257
H31   H     H_    0.553114 0.363144 0.048044 0.203061
H32   H     H_    0.718484 0.442244 0.983239 0.195082
H33   H     H_    0.566675 0.375972 0.900339 0.200707
C51   C     C_R   0.539586 0.927354 0.398081 0.158018
C52   C     C_R   0.575668 0.926685 0.497595 0.044508
C53   C     C_R   0.647695 0.027360 0.596613 -0.225156
H34   H     H_    0.686006 0.032078 0.675201 0.131416
C54   C     C_R   0.656709 0.122892 0.596919 -0.214781
H35   H     H_    0.700377 0.197052 0.675784 0.139595
C55   C     C_R   0.596189 0.117458 0.497819 0.044460
C56   C     C_R   0.550886 0.022247 0.398217 0.148694
C57   C     C_3   0.444298 0.962487 0.292876 -0.510176
C58   C     C_3   0.431529 0.858951 0.293180 -0.523834
H36   H     H_    0.381818 0.981174 0.302923 0.197142
H37   H     H_    0.454397 0.966496 0.223774 0.192180
H38   H     H_    0.362378 0.821392 0.304311 0.195891
H39   H     H_    0.433316 0.802750 0.223720 0.187888
C59   C     C_R   0.974172 0.083174 0.109983 0.148273
C60   C     C_R   0.068110 0.079399 0.163643 0.034264
C61   C     C_R   0.057244 0.977272 0.145759 -0.210673
H40   H     H_    0.125573 0.971037 0.192196 0.133665
C62   C     C_R   0.960895 0.881666 0.057094 -0.133971
H41   H     H_    0.956143 0.804075 0.040975 0.178995
C63   C     C_R   0.879045 0.889739 0.984331 0.043422
C64   C     C_R   0.881103 0.989570 0.021427 0.161814
C65   C     C_3   0.853602 0.047189 0.960718 -0.507361
C66   C     C_3   0.955695 0.149997 0.057470 -0.517227
H42   H     H_    0.857347 0.020076 0.883733 0.205752
H43   H     H_    0.778550 0.049758 0.951626 0.183818
H44   H     H_    0.017835 0.181720 0.035707 0.204258
H45   H     H_    0.938983 0.211640 0.103434 0.188125
N17   N     N_R   0.871805 0.672673 0.842706 0.194564
O1    O     O_R   0.974638 0.727531 0.877108 -0.458251
O2    O     O_R   0.831124 0.575024 0.829210 -0.486739

loop_
_geom_bond_atom_site_label_1
_geom_bond_atom_site_label_2
_geom_bond_distance
_ccdc_geom_bond_type
C25   C30   1.397194 A    
C6    C12   1.378370 A    
N15   Ni4   1.860407 S    
C28   C29   1.398747 A    
C41   H27   1.083221 S    
C26   C27   1.407387 A    
C65   C66   1.505999 S    
C17   N13   1.341964 A    
C50   H33   1.112265 S    
C56   C57   1.498830 S    
N9    Ni1   1.862562 S    
C18   H13   1.073906 S    
C57   H36   1.112487 S    
C38   H24   1.082460 S    
N6    Ni1   1.875810 S    
C3    H3    1.079180 S    
C35   C36   1.402038 A    
N10   N16   1.376548 A    
C15   C23   1.373852 A    
N5    Ni2   1.862562 S    
C33   C42   1.477636 S    
C15   N11   1.324053 A    
N13   Ni2   1.862302 S    
C16   H12   1.080792 S    
C6    H6    1.081090 S    
C53   H34   1.080974 S    
N8    Ni3   1.873770 S    
C3    C11   1.376424 A    
C54   H35   1.080769 S    
C1    H1    1.074463 S    
C32   C33   1.395516 A    
C22   C32   1.411659 S    
C25   C26   1.398394 A    
C7    C10   1.386469 A    
C23   C47   1.452989 S    
C59   C60   1.402097 A    
C57   C58   1.501963 S    
C18   C23   1.389497 A    
C55   C56   1.399304 A    
C15   H11   1.070588 S    
C11   C55   1.448686 S    
C29   H20   1.082353 S    
C20   N16   1.322541 A    
C8    C9    1.398788 A    
C59   C64   1.373655 A    
C43   C48   1.375895 A    
C58   H38   1.112236 S    
C16   C24   1.380902 A    
N12   N13   1.394184 A    
C28   H19   1.082541 S    
C5    H5    1.080451 S    
C1    C9    1.376238 A    
N1    N8    1.394185 A    
C46   H29   1.081933 S    
C14   C22   1.372217 A    
C9    C60   1.456341 S    
C51   C52   1.401006 A    
C38   C39   1.397809 A    
C61   C62   1.403428 A    
C48   C49   1.498094 S    
C40   C41   1.397063 A    
C19   N15   1.332040 A    
C33   C34   1.366721 A    
C26   H18   1.082984 S    
C17   C24   1.390671 A    
C2    N2    1.323179 A    
C44   C45   1.407718 A    
C31   C32   1.402657 A    
N17   O1    1.301140 A    
N14   Ni1   1.875246 S    
C10   C44   1.454057 S    
C40   H26   1.081714 S    
N2    N7    1.393938 A    
C37   H23   1.083154 S    
C1    N1    1.321251 A    
C14   N10   1.325477 A    
C34   H22   1.085547 S    
C13   H9    1.064402 S    
C51   C56   1.375450 A    
C18   N14   1.342256 A    
C39   H25   1.082461 S    
H16   C30   1.082652 S    
N1    Ni1   1.862302 S    
N12   Ni4   1.873768 S    
C47   C48   1.400200 A    
C45   C46   1.396584 A    
C46   C47   1.405457 A    
C12   C35   1.415432 S    
C34   C35   1.400266 A    
C4    N4    1.313379 A    
C58   H39   1.111745 S    
N11   Ni3   1.860257 S    
C6    N6    1.332260 A    
C39   C40   1.398112 A    
C27   C28   1.406907 A    
C49   H30   1.111258 S    
N9    N15   1.376548 A    
C5    N5    1.331659 A    
C64   C65   1.497088 S    
C20   H15   1.081217 S    
C8    N8    1.345841 A    
C59   C66   1.501705 S    
N2    Ni2   1.875246 S    
C62   C63   1.410763 A    
C43   C50   1.498943 S    
C61   H40   1.082766 S    
N7    Ni4   1.860258 S    
C4    C12   1.361246 A    
C24   C63   1.463588 S    
C3    N3    1.322741 A    
C19   H14   1.079155 S    
C65   H42   1.112470 S    
C27   C36   1.488846 S    
C7    N7    1.334595 A    
N4    N6    1.376548 A    
C2    H2    1.077949 S    
C17   N17   1.427392 S    
C2    C10   1.378605 A    
C60   C61   1.404987 A    
C13   C21   1.381711 A    
C49   H31   1.112434 S    
C52   C53   1.405411 A    
C37   C38   1.398206 A    
C65   H43   1.111756 S    
N16   Ni3   1.874333 S    
C14   H10   1.073284 S    
C7    H7    1.080308 S    
C41   C42   1.402158 A    
N3    N5    1.376547 A    
C66   H44   1.112484 S    
C31   H21   1.085272 S    
C13   N9    1.323384 A    
C16   N12   1.328262 A    
C43   C44   1.400053 A    
C20   C22   1.361591 A    
C53   C54   1.391852 A    
C45   H28   1.081038 S    
C54   C55   1.405157 A    
C57   H37   1.111859 S    
C25   H17   1.082484 S    
C66   H45   1.112094 S    
C21   C52   1.450931 S    
C37   C42   1.404354 A    
N4    Ni4   1.874333 S    
C4    H4    1.082242 S    
C51   C58   1.498971 S    
C50   H32   1.111731 S    
N10   Ni2   1.875812 S    
N17   O2    1.300299 A    
C49   C50   1.504122 S    
C19   C21   1.387810 A    
C29   C30   1.397366 A    
C8    H8    1.080720 S    
C5    C11   1.382636 A    
N3    Ni3   1.860408 S    
C62   H41   1.078033 S    
N11   N14   1.393936 A    
C31   C36   1.380930 A    
C63   C64   1.396577 A    
