data_mof_unit_11017.cif
_audit_creation_date              2012-12-10T17:36:18-0500
_audit_creation_method            fapswitch 2.2
_symmetry_space_group_name_H-M    P1
_symmetry_Int_Tables_number       1
_space_group_crystal_system       triclinic
_cell_length_a                    12.320608
_cell_length_b                    13.183723
_cell_length_c                    15.874455
_cell_angle_alpha                 77.918976
_cell_angle_beta                  101.1978
_cell_angle_gamma                 116.411878
_cell_volume                      2243.12203696

loop_
_atom_site_label
_atom_site_type_symbol
_atom_type_description
_atom_site_fract_x
_atom_site_fract_y
_atom_site_fract_z
_atom_type_partial_charge
C1    C     C_R   0.854668 0.286543 0.506966 0.799446
C2    C     C_3   0.023351 0.399786 0.068830 0.186428
C3    C     C_3   0.004190 0.504462 0.082772 0.037488
C4    C     C_3   0.109856 0.617859 0.044381 0.248753
C5    C     C_3   0.102286 0.617222 0.944553 -0.388162
C6    C     C_1   0.002568 0.502368 0.175334 0.066470
C7    C     C_1   0.999600 0.501937 0.824206 -0.026985
C8    C     C_1   0.999427 0.500799 0.748886 -0.115747
C9    C     C_R   0.266987 0.031453 0.421424 -0.160748
C10   C     C_R   0.227010 0.834984 0.478093 -0.078230
C11   C     C_R   0.815917 0.084790 0.560519 -0.287299
C12   C     C_R   0.999634 0.499888 0.659526 0.824995
C13   C     C_R   0.736363 0.974391 0.592358 -0.026528
C14   C     C_R   0.610194 0.944872 0.580638 0.333814
C15   C     C_R   0.562454 0.015268 0.519092 -0.002551
C16   C     C_R   0.644995 0.125822 0.485208 0.045009
C17   C     C_R   0.435696 0.981297 0.490906 0.104874
C18   C     C_R   0.392562 0.062193 0.442564 0.146443
C19   C     C_R   0.475192 0.169174 0.409221 -0.218710
C20   C     C_R   0.598914 0.196648 0.424586 -0.141320
C21   C     C_R   0.351893 0.866923 0.501237 -0.108919
C22   C     C_R   0.184069 0.918401 0.441165 -0.157521
C23   C     C_R   0.144935 0.713332 0.488222 0.829415
C24   C     C_R   0.771329 0.163721 0.514036 -0.117699
C25   C     C_R   0.355450 0.344832 0.649709 -0.109413
C26   C     C_R   0.762596 0.648002 0.385820 0.008526
C27   C     C_R   0.675774 0.691948 0.368372 -0.254382
C28   C     C_R   0.576273 0.645128 0.416109 0.384649
C29   C     C_R   0.557814 0.545497 0.478549 -0.071137
C30   C     C_R   0.654907 0.509383 0.498004 0.231641
C31   C     C_R   0.452080 0.483245 0.525493 -0.005343
C32   C     C_R   0.454746 0.400679 0.598992 0.088473
C33   C     C_R   0.553322 0.371197 0.617575 -0.190848
C34   C     C_R   0.000373 0.500186 0.340451 0.823393
C35   C     C_R   0.648967 0.422513 0.567607 -0.147497
C36   C     C_R   0.340641 0.494115 0.500135 0.085338
C37   C     C_R   0.251882 0.365707 0.622385 0.044912
C38   C     C_3   0.027644 0.403711 0.971022 -0.401095
C39   C     C_3   0.873382 0.487429 0.935519 -0.151668
C40   C     C_3   0.879303 0.496479 0.032481 -0.366013
C41   C     C_1   0.001479 0.501038 0.250908 -0.070897
C42   C     C_3   0.000219 0.503657 0.916275 0.068492
Cu1   Cu    Cu3+1 0.098280 0.475420 0.519630 0.996825
Cu2   Cu    Cu3+1 0.901720 0.524580 0.480370 0.951187
H1    H     H_    0.119663 0.414964 0.961301 0.195079
H2    H     H_    0.111176 0.402712 0.105310 0.139919
H3    H     H_    0.087553 0.895290 0.422556 0.166700
H4    H     H_    0.443874 0.228950 0.366465 0.152528
H5    H     H_    0.233395 0.093780 0.386692 0.151416
H6    H     H_    0.384024 0.800857 0.521654 0.234130
H7    H     H_    0.913390 0.111400 0.576740 0.211356
H8    H     H_    0.961185 0.321307 0.948283 0.229357
H9    H     H_    0.657261 0.273990 0.387407 0.179005
H10   H     H_    0.175387 0.325598 0.660219 0.166218
H11   H     H_    0.555944 0.303959 0.669114 0.189490
H12   H     H_    0.324547 0.542730 0.439755 0.190833
H13   H     H_    0.841361 0.688153 0.350338 0.162914
H14   H     H_    0.689772 0.767068 0.320431 0.202008
H15   H     H_    0.717934 0.391997 0.587361 0.204330
H16   H     H_    0.807090 0.398668 0.924761 0.177235
H17   H     H_    0.802927 0.420382 0.061406 0.211801
H18   H     H_    0.864220 0.571167 0.039695 0.233387
H19   H     H_    0.189990 0.629974 0.925397 0.211766
H20   H     H_    0.085451 0.690488 0.906105 0.252487
N1    N     N_R   0.246300 0.438200 0.549400 -0.209895
N2    N     N_R   0.754300 0.561180 0.451130 -0.206033
O1    O     O_R   0.972520 0.318130 0.524690 -0.578631
O2    O     O_R   0.806530 0.359650 0.491530 -0.617937
O3    O     O_R   0.083030 0.479240 0.637150 -0.568759
O4    O     O_R   0.917040 0.520750 0.603990 -0.585466
O5    O     O_R   0.193470 0.640350 0.508470 -0.557154
O6    O     O_R   0.027480 0.681870 0.475310 -0.588173
O7    O     O_R   0.082960 0.479250 0.396010 -0.572561
O8    O     O_R   0.916970 0.520760 0.362850 -0.588480
Cl1   Cl    Cl    0.908192 0.265398 0.110737 -0.585570
Cl2   Cl    Cl    0.092777 0.742335 0.058140 -0.523409
Cl3   Cl    Cl    0.523104 0.840515 0.661039 -0.556390
C43   C     C_2   0.786924 0.892610 0.641231 0.920601
O9    O     O_2   0.891696 0.927935 0.676999 -0.578438
O10   O     O_R   0.716198 0.774779 0.643683 -0.686869
H21   H     H_    0.761635 0.727971 0.676787 0.347358
C44   C     C_2   0.356364 0.267479 0.732399 0.839779
O11   O     O_2   0.448168 0.290300 0.784669 -0.541559
O12   O     O_R   0.249446 0.171023 0.752362 -0.737384
H22   H     H_    0.260405 0.125799 0.810891 0.365422
Cl4   Cl    Cl    0.497652 0.731792 0.405460 -0.618574
C45   C     C_2   0.824434 0.567632 0.875959 0.867326
O13   O     O_2   0.735721 0.529251 0.822594 -0.553611
O14   O     O_R   0.878812 0.684492 0.882474 -0.710304
H23   H     H_    0.836780 0.728193 0.839626 0.361977
C46   C     C_2   0.234444 0.629164 0.091987 0.837261
O15   O     O_2   0.264874 0.656406 0.164986 -0.522116
O16   O     O_R   0.313028 0.605476 0.054523 -0.777997
H24   H     H_    0.391517 0.614990 0.093645 0.355770

loop_
_geom_bond_atom_site_label_1
_geom_bond_atom_site_label_2
_ccdc_geom_bond_type
C33   H11   S    
C45   O13   D    
Cu1   O7    S    
O16   H24   S    
Cu2   N2    S    
C19   C20   A    
C39   C45   S    
C12   O3    A    
C3    C6    S    
C7    C8    T    
C10   C22   A    
C26   C27   A    
C30   C35   A    
C16   C20   A    
C38   C42   S    
C43   O10   S    
C9    C22   A    
C14   Cl3   S    
C38   H8    S    
C15   C16   A    
C11   C24   A    
C1    O2    A    
C40   H18   S    
C5    H19   S    
C35   H15   S    
C18   C19   A    
C7    C42   S    
C38   H1    S    
C19   H4    S    
C25   C37   A    
C6    C41   T    
C37   N1    A    
Cu2   O4    S    
Cu1   N1    S    
C4    C46   S    
C25   C32   A    
C22   H3    S    
C16   C24   A    
C13   C14   A    
C34   C41   S    
C21   H6    S    
C39   C42   S    
C10   C21   A    
C26   N2    A    
C23   O5    A    
C9    H5    S    
O12   H22   S    
C46   O15   D    
C43   O9    D    
C20   H9    S    
C2    H2    S    
C40   H17   S    
C5    H20   S    
Cu1   Cu2   S    
C29   C30   A    
C36   H12   S    
C46   O16   S    
C2    C38   S    
C31   C32   A    
C14   C15   A    
C8    C12   S    
C17   C18   A    
Cu2   O8    S    
C30   N2    A    
C34   O8    A    
C37   H10   S    
C3    C40   S    
C44   O12   S    
C45   O14   S    
C28   Cl4   S    
C25   C44   S    
Cu2   O2    S    
C3    C4    S    
C39   C40   S    
C5    C42   S    
C15   C17   A    
C12   O4    A    
C13   C43   S    
C28   C29   A    
Cu1   O5    S    
C36   N1    A    
C23   O6    A    
O10   H21   S    
C27   H14   S    
C1    O1    A    
C10   C23   S    
C32   C33   A    
C2    C3    S    
C29   C31   A    
C11   C13   A    
C39   H16   S    
C33   C35   A    
Cu2   O6    S    
C26   H13   S    
C17   C21   A    
C4    Cl2   S    
C11   H7    S    
C34   O7    A    
C9    C18   A    
C4    C5    S    
C1    C24   S    
Cu1   O1    S    
C44   O11   D    
C27   C28   A    
C31   C36   A    
O14   H23   S    
Cu1   O3    S    
C2    Cl1   S    
