data_mof_unit_15409.cif
_audit_creation_date              2012-12-11T15:39:20-0500
_audit_creation_method            fapswitch 2.2
_symmetry_space_group_name_H-M    P1
_symmetry_Int_Tables_number       1
_space_group_crystal_system       triclinic
_cell_length_a                    17.361133
_cell_length_b                    24.60879
_cell_length_c                    14.854603
_cell_angle_alpha                 89.691521
_cell_angle_beta                  125.428155
_cell_angle_gamma                 89.994792
_cell_volume                      5171.22775521

loop_
_atom_site_label
_atom_site_type_symbol
_atom_type_description
_atom_site_fract_x
_atom_site_fract_y
_atom_site_fract_z
_atom_type_partial_charge
C1    C     C_R   0.346714 0.350758 0.906999 -0.182132
C2    C     C_R   0.688677 0.374253 0.093391 -0.171030
C3    C     C_R   0.846714 0.850758 0.906999 -0.182134
C4    C     C_R   0.188677 0.874253 0.093391 -0.171026
C5    C     C_R   0.372679 0.678248 0.999275 0.037605
C6    C     C_R   0.684447 0.637592 0.997350 0.014682
C7    C     C_R   0.872680 0.178249 0.999274 0.037603
C8    C     C_R   0.184446 0.137594 0.997353 0.014687
C9    C     C_R   0.440330 0.502526 0.263945 0.054351
C10   C     C_R   0.445662 0.503899 0.635695 0.047933
C11   C     C_R   0.940330 0.002528 0.263944 0.054351
C12   C     C_R   0.945662 0.003900 0.635695 0.047932
C13   C     C_R   0.174237 0.500471 0.719817 0.059280
C14   C     C_R   0.800519 0.500252 0.369681 0.071734
C15   C     C_R   0.674237 0.000471 0.719815 0.059283
C16   C     C_R   0.300517 0.000252 0.369683 0.071733
C17   C     C_R   0.019422 0.549855 0.622981 0.063989
C18   C     C_R   0.923633 0.549511 0.541149 0.067253
C19   C     C_R   0.519420 0.049854 0.622983 0.063984
C20   C     C_R   0.423631 0.049510 0.541154 0.067266
C21   C     C_R   0.071700 0.501375 0.662625 0.050706
C22   C     C_R   0.879247 0.500909 0.487035 0.041284
C23   C     C_R   0.571700 0.001374 0.662623 0.050709
C24   C     C_R   0.379245 0.000908 0.487038 0.041281
C25   C     C_R   0.020337 0.452443 0.631834 -0.197621
C26   C     C_R   0.924533 0.452082 0.543105 -0.196203
C27   C     C_R   0.520337 0.952442 0.631832 -0.197617
C28   C     C_R   0.424532 0.952080 0.543105 -0.196202
C29   C     C_3   0.924880 0.606100 0.503303 -0.265478
C30   C     C_3   0.031973 0.605246 0.588944 -0.271411
C31   C     C_3   0.424874 0.106101 0.503312 -0.265483
C32   C     C_3   0.531969 0.105245 0.588946 -0.271409
C33   C     C_R   0.229839 0.718683 0.962505 -0.015947
C34   C     C_R   0.838217 0.677414 0.052246 -0.044641
C35   C     C_R   0.729839 0.218685 0.962500 -0.015937
C36   C     C_R   0.338217 0.177413 0.052238 -0.044691
C37   C     C_R   0.685988 0.264056 0.966546 -0.163349
C38   C     C_R   0.384062 0.223455 0.049877 -0.158754
C39   C     C_R   0.185988 0.764054 0.966552 -0.163351
C40   C     C_R   0.884064 0.723456 0.049887 -0.158763
C41   C     C_R   0.734892 0.313024 0.004681 0.095285
C42   C     C_R   0.330703 0.269440 0.990673 0.099941
C43   C     C_R   0.234891 0.813022 0.004683 0.095284
C44   C     C_R   0.830705 0.769438 0.990673 0.099937
C45   C     C_R   0.438656 0.649670 0.091559 -0.131849
C46   C     C_R   0.596634 0.623026 0.906271 -0.126544
C47   C     C_R   0.938657 0.149670 0.091558 -0.131842
C48   C     C_R   0.096633 0.123028 0.906272 -0.126541
C49   C     C_R   0.829130 0.317794 0.043865 -0.192873
C50   C     C_R   0.232767 0.269534 0.927776 -0.208768
C51   C     C_R   0.329127 0.817793 0.043863 -0.192875
C52   C     C_R   0.732769 0.769528 0.927762 -0.208763
C53   C     C_R   0.374665 0.772616 0.041395 -0.173743
C54   C     C_R   0.687112 0.724840 0.928609 -0.157195
C55   C     C_R   0.874667 0.272617 0.041397 -0.173744
C56   C     C_R   0.187110 0.224847 0.928628 -0.157194
C57   C     C_R   0.324537 0.724076 0.999314 0.041265
C58   C     C_R   0.738828 0.679229 0.991479 0.034752
C59   C     C_R   0.824539 0.224077 0.999313 0.041272
C60   C     C_R   0.238827 0.179233 0.991486 0.034766
C61   C     C_R   0.418902 0.556307 0.472065 -0.043316
C62   C     C_R   0.389858 0.555528 0.362201 -0.027550
C63   C     C_R   0.918902 0.056311 0.472067 -0.043311
C64   C     C_R   0.889860 0.055532 0.362202 -0.027546
C65   C     C_R   0.391116 0.505461 0.317707 0.064233
C66   C     C_R   0.416376 0.506842 0.520589 0.065093
C67   C     C_R   0.891116 0.005464 0.317707 0.064229
C68   C     C_R   0.916376 0.006845 0.520589 0.065096
C69   C     C_R   0.379663 0.457650 0.359631 -0.191493
C70   C     C_R   0.387853 0.458861 0.458003 -0.181391
C71   C     C_R   0.879661 0.957654 0.359630 -0.191485
C72   C     C_R   0.887852 0.958864 0.458002 -0.181387
C73   C     C_R   0.472906 0.456141 0.241637 -0.121728
C74   C     C_R   0.453366 0.457569 0.694613 -0.127265
C75   C     C_R   0.972905 0.956142 0.241636 -0.121723
C76   C     C_R   0.953367 0.957570 0.694613 -0.127266
C77   C     C_R   0.232069 0.545610 0.752322 -0.108032
C78   C     C_R   0.751597 0.545038 0.305223 -0.162948
C79   C     C_R   0.732068 0.045610 0.752320 -0.108022
C80   C     C_R   0.251595 0.045038 0.305224 -0.162952
C81   C     C_R   0.477840 0.546547 0.244346 -0.118422
C82   C     C_R   0.455018 0.547162 0.699150 -0.130131
C83   C     C_R   0.977841 0.046547 0.244346 -0.118426
C84   C     C_R   0.955017 0.047162 0.699151 -0.130127
C85   C     C_R   0.230745 0.454640 0.745901 -0.130946
C86   C     C_R   0.755061 0.454893 0.305171 -0.129601
C87   C     C_R   0.730745 0.954640 0.745900 -0.130944
C88   C     C_R   0.255060 0.954893 0.305172 -0.129597
C89   C     C_R   0.347130 0.649727 0.907401 -0.188847
C90   C     C_R   0.688961 0.625027 0.091334 -0.134151
C91   C     C_R   0.847131 0.149728 0.907401 -0.188851
C92   C     C_R   0.188960 0.125029 0.091336 -0.134166
C93   C     C_R   0.439562 0.348816 0.091034 0.016871
C94   C     C_R   0.595502 0.372334 0.908361 0.031441
C95   C     C_R   0.939562 0.848816 0.091035 0.016873
C96   C     C_R   0.095501 0.872332 0.908361 0.031441
C97   C     C_R   0.373464 0.320079 0.997653 0.013677
C98   C     C_R   0.683858 0.358574 0.001591 -0.003016
C99   C     C_R   0.873463 0.820079 0.997654 0.013680
C100  C     C_R   0.183857 0.858573 0.001591 -0.003012
H1    H     H_    0.304595 0.337589 0.821912 0.097897
H2    H     H_    0.744311 0.365324 0.178871 0.107321
H3    H     H_    0.804594 0.837589 0.821913 0.097895
H4    H     H_    0.244311 0.865323 0.178872 0.107321
H5    H     H_    0.904310 0.608233 0.417143 0.139324
H6    H     H_    0.057864 0.636006 0.655212 0.154086
H7    H     H_    0.404300 0.108238 0.417150 0.139307
H8    H     H_    0.557865 0.136005 0.655217 0.154084
H9    H     H_    0.613645 0.261459 0.941384 0.160693
H10   H     H_    0.460443 0.224410 0.096125 0.161811
H11   H     H_    0.113645 0.761457 0.941391 0.160689
H12   H     H_    0.960444 0.724413 0.096143 0.161813
H13   H     H_    0.866133 0.356094 0.074485 0.125743
H14   H     H_    0.191606 0.305325 0.882253 0.123164
H15   H     H_    0.366130 0.856093 0.074480 0.125748
H16   H     H_    0.691607 0.805317 0.882231 0.123163
H17   H     H_    0.448164 0.775339 0.071091 0.123372
H18   H     H_    0.610856 0.727028 0.883580 0.126698
H19   H     H_    0.948168 0.275339 0.071095 0.123369
H20   H     H_    0.110854 0.227037 0.883608 0.126696
H21   H     H_    0.372812 0.418669 0.322332 0.121070
H22   H     H_    0.381214 0.420703 0.488987 0.126893
H23   H     H_    0.872808 0.918672 0.322329 0.121068
H24   H     H_    0.881212 0.920706 0.488985 0.126890
H25   H     H_    0.479679 0.663787 0.175983 0.095989
H26   H     H_    0.568082 0.630431 0.820609 0.124911
H27   H     H_    0.979681 0.163788 0.175983 0.095989
H28   H     H_    0.068081 0.130435 0.820611 0.124916
H29   H     H_    0.456864 0.415075 0.249222 0.113329
H30   H     H_    0.426782 0.418666 0.658203 0.118835
H31   H     H_    0.956861 0.915076 0.249221 0.113327
H32   H     H_    0.926785 0.918667 0.658203 0.118836
H33   H     H_    0.212503 0.587210 0.750159 0.099814
H34   H     H_    0.753777 0.585325 0.333333 0.110920
H35   H     H_    0.712502 0.087210 0.750157 0.099812
H36   H     H_    0.253774 0.085325 0.333333 0.110914
H37   H     H_    0.471136 0.588504 0.256653 0.105056
H38   H     H_    0.431248 0.588217 0.671902 0.113096
H39   H     H_    0.971140 0.088504 0.256654 0.105061
H40   H     H_    0.931245 0.088218 0.671903 0.113099
H41   H     H_    0.209135 0.412697 0.732295 0.090562
H42   H     H_    0.766192 0.413312 0.333722 0.078068
H43   H     H_    0.709135 0.912696 0.732294 0.090561
H44   H     H_    0.266190 0.913312 0.333722 0.078068
H45   H     H_    0.303314 0.663582 0.822447 0.101495
H46   H     H_    0.745770 0.633609 0.176267 0.089339
H47   H     H_    0.803315 0.163582 0.822446 0.101495
H48   H     H_    0.245767 0.133611 0.176269 0.089329
H49   H     H_    0.055363 0.413790 0.665878 0.118836
H50   H     H_    0.890728 0.413152 0.511448 0.118122
H51   H     H_    0.555364 0.913788 0.665874 0.118835
H52   H     H_    0.390728 0.913151 0.511446 0.118122
N1    N     N_R   0.394180 0.396910 0.943210 -0.042783
N2    N     N_R   0.605820 0.396910 0.056790 -0.053147
N3    N     N_R   0.894180 0.896910 0.943210 -0.042783
N4    N     N_R   0.105820 0.896910 0.056790 -0.053148
N5    N     N_R   0.450950 0.603070 0.056740 -0.038838
N6    N     N_R   0.549050 0.603070 0.943260 -0.039422
N7    N     N_R   0.950950 0.103070 0.056740 -0.038839
N8    N     N_R   0.049050 0.103070 0.943260 -0.039422
N9    N     N_R   0.525650 0.471570 0.206150 -0.042128
N10   N     N_R   0.474350 0.471570 0.793850 -0.043445
N11   N     N_R   0.025650 0.971570 0.206150 -0.042127
N12   N     N_R   0.974350 0.971570 0.793850 -0.043444
N13   N     N_R   0.319480 0.528420 0.793810 -0.041901
N14   N     N_R   0.680520 0.528420 0.206190 -0.038227
N15   N     N_R   0.819480 0.028420 0.793810 -0.041902
N16   N     N_R   0.180520 0.028420 0.206190 -0.038226
N17   N     N_R   0.525640 0.528390 0.206120 -0.042705
N18   N     N_R   0.474360 0.528390 0.793880 -0.042628
N19   N     N_R   0.025640 0.028390 0.206120 -0.042706
N20   N     N_R   0.974360 0.028390 0.793880 -0.042628
N21   N     N_R   0.319490 0.471590 0.793840 -0.040871
N22   N     N_R   0.680510 0.471590 0.206160 -0.038667
N23   N     N_R   0.819490 0.971590 0.793840 -0.040872
N24   N     N_R   0.180510 0.971590 0.206160 -0.038667
N25   N     N_R   0.394130 0.603080 0.943110 -0.036461
N26   N     N_R   0.605870 0.603080 0.056890 -0.036055
N27   N     N_R   0.894130 0.103080 0.943110 -0.036461
N28   N     N_R   0.105870 0.103080 0.056890 -0.036052
N29   N     N_R   0.450990 0.396900 0.056840 -0.058040
N30   N     N_R   0.549010 0.396900 0.943160 -0.059777
N31   N     N_R   0.950990 0.896900 0.056840 -0.058040
N32   N     N_R   0.049010 0.896900 0.943160 -0.059778
Ni1   Ni    Ni4+2 0.434860 0.434850 0.869700 0.202345
Ni2   Ni    Ni4+2 0.565140 0.434850 0.130300 0.207598
Ni3   Ni    Ni4+2 0.934860 0.934850 0.869700 0.202346
Ni4   Ni    Ni4+2 0.065140 0.934850 0.130300 0.207599
Ni5   Ni    Ni4+2 0.565130 0.565140 0.130240 0.211327
Ni6   Ni    Ni4+2 0.434870 0.565140 0.869760 0.212942
Ni7   Ni    Ni4+2 0.065130 0.065140 0.130240 0.211324
Ni8   Ni    Ni4+2 0.934870 0.065140 0.869760 0.212943
C101  C     C_R   0.870015 0.645213 0.525744 0.181444
C102  C     C_R   0.880808 0.644850 0.627467 -0.076510
C103  C     C_R   0.819466 0.674822 0.640314 -0.105497
C104  C     C_R   0.745754 0.704741 0.551663 -0.133296
C105  C     C_R   0.736591 0.707188 0.451860 -0.132122
C106  C     C_R   0.799448 0.678462 0.439598 -0.186051
H53   H     H_    0.934638 0.620013 0.695778 0.147796
H54   H     H_    0.828426 0.674184 0.718691 0.117925
H55   H     H_    0.697348 0.727221 0.561216 0.112838
H56   H     H_    0.680727 0.731359 0.383927 0.109015
H57   H     H_    0.790445 0.680445 0.361164 0.097881
C107  C     C_R   0.083935 0.605176 0.534284 0.202415
C108  C     C_R   0.069610 0.563873 0.460433 -0.149117
C109  C     C_R   0.118550 0.564542 0.412042 -0.057595
C110  C     C_R   0.181557 0.606445 0.435670 -0.023374
C111  C     C_R   0.196027 0.647800 0.508031 -0.120396
C112  C     C_R   0.147192 0.647361 0.556798 -0.191517
H58   H     H_    0.020695 0.531058 0.440158 0.118886
H59   H     H_    0.107258 0.532662 0.355682 0.110595
H60   H     H_    0.218464 0.606773 0.397088 0.105326
H61   H     H_    0.244887 0.680329 0.526207 0.101752
H62   H     H_    0.158958 0.679801 0.612403 0.101650
C113  C     C_R   0.370014 0.145211 0.525765 0.181440
C114  C     C_R   0.380823 0.144847 0.627498 -0.076498
C115  C     C_R   0.319490 0.174818 0.640362 -0.105493
C116  C     C_R   0.245769 0.204736 0.551716 -0.133307
C117  C     C_R   0.236587 0.207182 0.451902 -0.132122
C118  C     C_R   0.299436 0.178458 0.439624 -0.186043
H63   H     H_    0.434660 0.120011 0.695805 0.147808
H64   H     H_    0.328464 0.174181 0.718746 0.117941
H65   H     H_    0.197369 0.227216 0.561282 0.112843
H66   H     H_    0.180716 0.231352 0.383973 0.109012
H67   H     H_    0.290420 0.180441 0.361183 0.097873
C119  C     C_R   0.583926 0.105175 0.534279 0.202420
C120  C     C_R   0.569594 0.063874 0.460422 -0.149167
C121  C     C_R   0.618532 0.064541 0.412029 -0.057636
C122  C     C_R   0.681545 0.106440 0.435661 -0.023402
C123  C     C_R   0.696021 0.147795 0.508026 -0.120420
C124  C     C_R   0.647188 0.147357 0.556795 -0.191525
H68   H     H_    0.520674 0.031062 0.440144 0.118899
H69   H     H_    0.607235 0.032662 0.355665 0.110628
H70   H     H_    0.718453 0.106767 0.397078 0.105337
H71   H     H_    0.744885 0.180322 0.526204 0.101758
H72   H     H_    0.658959 0.179797 0.612405 0.101652
C125  C     C_2   0.177571 0.666162 0.925327 0.451589
H73   H     H_    0.213868 0.628168 0.936868 0.040581
O1    O     O_2   0.092634 0.664616 0.882209 -0.618636
C126  C     C_2   0.893525 0.628829 0.117800 0.466927
H74   H     H_    0.857981 0.592142 0.115838 0.020213
O2    O     O_2   0.979823 0.629132 0.174876 -0.606314
C127  C     C_2   0.677572 0.166164 0.925322 0.451573
H75   H     H_    0.713867 0.128169 0.936863 0.040584
O3    O     O_2   0.592635 0.164618 0.882206 -0.618641
C128  C     C_2   0.393527 0.128823 0.117779 0.467008
H76   H     H_    0.357980 0.092152 0.115879 0.020204
O4    O     O_2   0.479823 0.129106 0.174773 -0.606344
C129  C     C_R   0.473032 0.604557 0.538968 0.113559
C130  C     C_R   0.427867 0.653964 0.529112 -0.169505
C131  C     C_R   0.481051 0.699628 0.587717 -0.134461
C132  C     C_R   0.579542 0.696273 0.657367 -0.120576
C133  C     C_R   0.624935 0.646987 0.670311 -0.115343
C134  C     C_R   0.572102 0.601387 0.610806 -0.138810
H77   H     H_    0.352002 0.657648 0.473902 0.119878
H78   H     H_    0.445907 0.737762 0.578224 0.106332
H79   H     H_    0.620649 0.731875 0.701258 0.113537
H80   H     H_    0.701072 0.644154 0.726134 0.114267
H81   H     H_    0.608298 0.563692 0.619971 0.118930
C135  C     C_R   0.336157 0.602612 0.288570 0.110380
C136  C     C_R   0.379548 0.652955 0.300309 -0.173268
C137  C     C_R   0.324499 0.699261 0.246614 -0.119555
C138  C     C_R   0.225994 0.695729 0.180891 -0.098184
C139  C     C_R   0.182402 0.645478 0.163944 -0.046275
C140  C     C_R   0.237155 0.599045 0.217122 -0.174820
H82   H     H_    0.455679 0.656944 0.355272 0.123873
H83   H     H_    0.358144 0.738151 0.258306 0.118929
H84   H     H_    0.183338 0.731912 0.142882 0.113643
H85   H     H_    0.106073 0.642749 0.111714 0.160593
H86   H     H_    0.202121 0.560869 0.207480 0.126001
C141  C     C_R   0.973026 0.104563 0.538971 0.113545
C142  C     C_R   0.927854 0.153969 0.529112 -0.169487
C143  C     C_R   0.981034 0.199635 0.587719 -0.134451
C144  C     C_R   0.079525 0.196282 0.657375 -0.120580
C145  C     C_R   0.124925 0.146998 0.670324 -0.115347
C146  C     C_R   0.072097 0.101397 0.610816 -0.138813
H87   H     H_    0.851988 0.157651 0.473896 0.119876
H88   H     H_    0.945885 0.237768 0.578221 0.106327
H89   H     H_    0.120628 0.231887 0.701266 0.113536
H90   H     H_    0.201064 0.144168 0.726150 0.114278
H91   H     H_    0.108298 0.063702 0.619986 0.118933
C147  C     C_R   0.836176 0.102621 0.288576 0.110353
C148  C     C_R   0.879583 0.152960 0.300335 -0.173263
C149  C     C_R   0.824549 0.199272 0.246649 -0.119517
C150  C     C_R   0.726043 0.195749 0.180915 -0.098240
C151  C     C_R   0.682435 0.145502 0.163945 -0.046287
C152  C     C_R   0.737174 0.099063 0.217114 -0.174781
H92   H     H_    0.955715 0.156943 0.355307 0.123875
H93   H     H_    0.858206 0.238161 0.258359 0.118916
H94   H     H_    0.683398 0.231937 0.142917 0.113651
H95   H     H_    0.606105 0.142780 0.111704 0.160644
H96   H     H_    0.702127 0.060889 0.207454 0.126019
C153  C     C_R   0.500834 0.326894 0.205270 0.084798
C154  C     C_R   0.461087 0.299373 0.252410 -0.176552
C155  C     C_R   0.518987 0.278595 0.360001 -0.077135
C156  C     C_R   0.616685 0.286172 0.422384 -0.076303
C157  C     C_R   0.656721 0.313987 0.376823 -0.124206
C158  C     C_R   0.599078 0.334257 0.268816 -0.141289
H97   H     H_    0.385301 0.294220 0.206206 0.120674
H98   H     H_    0.488102 0.256718 0.395085 0.103417
H99   H     H_    0.661320 0.270633 0.506086 0.090570
H100  H     H_    0.732476 0.319756 0.425088 0.095820
H101  H     H_    0.631282 0.355065 0.234697 0.110817
C159  C     C_R   0.551964 0.349656 0.797101 0.104699
C160  C     C_R   0.600699 0.351010 0.747642 -0.124123
C161  C     C_R   0.558970 0.329865 0.641830 -0.124422
C162  C     C_R   0.468454 0.307532 0.584823 -0.098182
C163  C     C_R   0.420394 0.305557 0.634303 -0.103235
C164  C     C_R   0.462676 0.325166 0.741152 -0.175494
H102  H     H_    0.670263 0.369050 0.790381 0.112888
H103  H     H_    0.596223 0.331487 0.603499 0.113485
H104  H     H_    0.434978 0.292297 0.501958 0.102979
H105  H     H_    0.349408 0.290218 0.588902 0.130364
H106  H     H_    0.424568 0.323130 0.778408 0.114301
C165  C     C_R   0.000832 0.826895 0.205271 0.084785
C166  C     C_R   0.961085 0.799378 0.252413 -0.176532
C167  C     C_R   0.018984 0.778600 0.360005 -0.077088
C168  C     C_R   0.116682 0.786176 0.422388 -0.076304
C169  C     C_R   0.156719 0.813988 0.376825 -0.124204
C170  C     C_R   0.099076 0.834257 0.268816 -0.141289
H107  H     H_    0.885298 0.794225 0.206209 0.120671
H108  H     H_    0.988097 0.756726 0.395090 0.103414
H109  H     H_    0.161316 0.770639 0.506090 0.090566
H110  H     H_    0.232474 0.819756 0.425089 0.095821
H111  H     H_    0.131281 0.855063 0.234696 0.110817
C171  C     C_R   0.051961 0.849653 0.797102 0.104701
C172  C     C_R   0.100694 0.851003 0.747642 -0.124121
C173  C     C_R   0.058961 0.829858 0.641828 -0.124431
C174  C     C_R   0.968442 0.807530 0.584822 -0.098170
C175  C     C_R   0.920383 0.805559 0.634303 -0.103233
C176  C     C_R   0.962669 0.825167 0.741153 -0.175495
H112  H     H_    0.170261 0.869040 0.790380 0.112891
H113  H     H_    0.096214 0.831477 0.603496 0.113482
H114  H     H_    0.934962 0.792295 0.501956 0.102980
H115  H     H_    0.849394 0.790225 0.588903 0.130357
H116  H     H_    0.924561 0.823135 0.778410 0.114300

loop_
_geom_bond_atom_site_label_1
_geom_bond_atom_site_label_2
_ccdc_geom_bond_type
C49   H13   S    
C139  H85   S    
C55   C59   A    
C6    C58   S    
C19   C20   A    
C55   H19   S    
C147  C148  A    
C9    C73   A    
C168  H109  S    
C149  C150  A    
C44   C99   S    
C95   C99   A    
C141  C142  A    
C12   C84   A    
C144  C145  A    
C122  H70   S    
C73   N9    A    
C92   N28   A    
C93   N29   A    
C133  H80   S    
C52   C54   A    
C142  C143  A    
C83   N19   A    
C157  H100  S    
C124  H72   S    
C8    C92   A    
C81   N17   A    
C34   C126  S    
C37   H9    S    
C39   H11   S    
C72   H24   S    
C96   C171  S    
C17   C30   S    
C19   C32   S    
C41   C49   A    
C121  C122  A    
N24   Ni4   S    
C13   C77   A    
N14   N22   A    
C175  C176  A    
C131  C132  A    
C42   C97   S    
N26   Ni5   S    
C109  C110  A    
C10   C82   A    
C17   C21   A    
C166  C167  A    
C16   C80   A    
N30   Ni1   S    
C19   C23   A    
C140  H86   S    
C122  C123  A    
C120  C121  A    
C68   C72   A    
C161  C162  A    
C13   C21   S    
C78   H34   S    
C151  H95   S    
C156  C157  A    
C160  H102  S    
C1    H1    S    
C3    H3    S    
C148  H92   S    
C31   H7    S    
C104  C105  A    
C143  H88   S    
C145  H90   S    
C115  C116  A    
C136  H82   S    
C82   H38   S    
C49   C55   A    
N31   Ni4   S    
C95   N31   A    
C131  H78   S    
C66   C70   A    
C134  H81   S    
C29   C101  S    
C4    H4    S    
N6    N26   A    
C69   C70   A    
C9    C65   S    
C163  H105  S    
C103  C104  A    
C64   C147  S    
C101  C102  A    
C13   C85   A    
C34   C58   A    
N3    Ni3   S    
C79   N15   A    
C113  C118  A    
C80   N16   A    
C5    C89   A    
C101  C106  A    
C132  C133  A    
C35   C127  S    
C111  H61   S    
N17   Ni5   S    
C91   H47   S    
C116  H65   S    
C40   H12   S    
C47   N7    A    
N20   Ni8   S    
C89   H45   S    
C12   C68   S    
N21   Ni1   S    
C129  C130  A    
C29   C30   S    
C50   H14   S    
C71   H23   S    
N6    Ni6   S    
C136  C137  A    
N3    N31   A    
C31   C113  S    
C2    H2    S    
C77   N13   A    
C46   N6    A    
C75   N11   A    
C162  H104  S    
C153  C158  A    
C63   C141  S    
N8    N28   A    
C117  H66   S    
C167  H108  S    
C15   C79   A    
C139  C140  A    
C69   H21   S    
C176  H116  S    
N9    N17   A    
C44   C52   A    
C147  C152  A    
C2    N2    A    
C125  H73   S    
C29   H5    S    
C110  C111  A    
C10   C66   S    
C141  C146  A    
C144  H89   S    
C45   N5    A    
C14   C86   A    
C85   H41   S    
C137  H83   S    
C74   N10   A    
C25   C26   A    
C6    C90   A    
C50   C56   A    
N11   Ni4   S    
C51   C53   A    
C153  C154  A    
C70   H22   S    
C31   C32   S    
C174  H114  S    
C17   C18   A    
C93   C153  S    
C105  H56   S    
C18   C29   S    
C121  H69   S    
C171  C172  A    
C42   C50   A    
C32   C119  S    
C175  H115  S    
N12   N20   A    
C93   C97   A    
N15   N23   A    
N16   N24   A    
C21   C25   A    
C63   C68   A    
N25   Ni6   S    
C18   C22   A    
C24   C28   A    
C173  C174  A    
C84   N20   A    
N28   Ni7   S    
N10   Ni1   S    
N29   Ni2   S    
C47   H27   S    
C137  C138  A    
C87   N23   A    
C161  H103  S    
C88   N24   A    
N32   Ni3   S    
N14   Ni5   S    
C14   C22   S    
C74   H30   S    
C154  H97   S    
C11   C75   A    
C76   H32   S    
C108  H58   S    
C96   C100  A    
C126  H74   S    
C158  H101  S    
C37   C41   A    
C61   C62   A    
N23   Ni3   S    
C63   C64   A    
C3    C99   A    
C129  C134  A    
C107  C108  A    
C61   C129  S    
C119  C120  A    
C148  C149  A    
C152  H96   S    
C104  H55   S    
C90   N26   A    
C92   H48   S    
C145  C146  A    
C83   H39   S    
N4    N32   A    
C138  C139  A    
C81   H37   S    
C154  C155  A    
C94   C98   A    
C127  H75   S    
C35   C59   A    
C157  C158  A    
C7    C59   S    
C114  H63   S    
C128  H76   S    
C111  C112  A    
C107  C112  A    
C38   H10   S    
N11   N19   A    
C52   H16   S    
C102  C103  A    
C165  C166  A    
C84   H40   S    
C159  C164  A    
C132  H79   S    
N4    Ni4   S    
C138  H84   S    
C73   H29   S    
C78   N14   A    
C162  C163  A    
N7    Ni7   S    
C26   H50   S    
C43   C100  S    
N8    Ni8   S    
C117  C118  A    
C53   C57   A    
C135  C136  A    
C11   C83   A    
C130  C131  A    
C5    C45   A    
C51   H15   S    
C56   C60   A    
C7    C47   A    
C8    C48   A    
C150  C151  A    
C48   H28   S    
C48   N8    A    
N10   N18   A    
C7    C91   A    
C3    N3    A    
C165  C170  A    
N19   Ni7   S    
C123  H71   S    
C33   C39   A    
C170  H111  S    
C1    N1    A    
C4    N4    A    
N1    N29   A    
C149  H93   S    
C12   C76   A    
C155  C156  A    
C86   H42   S    
C115  H64   S    
C169  H110  S    
C27   H51   S    
N7    N27   A    
C164  H106  S    
C155  H98   S    
C79   H35   S    
C112  H62   S    
C80   H36   S    
C5    C57   S    
C36   C38   A    
C95   C165  S    
C172  C173  A    
C8    C60   S    
C43   C51   A    
C133  C134  A    
C65   C69   A    
C67   C71   A    
C123  C124  A    
C33   C125  S    
C169  C170  A    
C71   C72   A    
C160  C161  A    
C22   C26   A    
C106  H57   S    
C16   C88   A    
C94   N30   A    
C86   N22   A    
C135  C140  A    
N9    Ni2   S    
C82   N18   A    
C142  H87   S    
C36   C128  S    
C174  C175  A    
C113  C114  A    
N12   Ni3   S    
C108  C109  A    
N15   Ni8   S    
C173  H113  S    
N16   Ni7   S    
C34   C40   A    
C25   H49   S    
C35   C37   A    
C38   C42   A    
C172  H112  S    
C53   H17   S    
C146  H91   S    
N13   N21   A    
C119  C124  A    
C125  O1    D    
N2    Ni2   S    
C109  H59   S    
N27   Ni8   S    
C20   C24   A    
C45   H25   S    
C127  O3    D    
C91   N27   A    
C85   N21   A    
C23   C27   A    
C15   C23   S    
C120  H68   S    
C16   C24   S    
C30   H6    S    
C56   H20   S    
C105  C106  A    
C77   H33   S    
C96   N32   A    
C61   C66   A    
C11   C67   S    
N13   Ni6   S    
C156  H99   S    
C128  O4    D    
C64   C67   A    
C114  C115  A    
C1    C97   A    
C151  C152  A    
C39   C43   A    
C150  H94   S    
C168  C169  A    
C102  H53   S    
C40   C44   A    
C126  O2    D    
C143  C144  A    
N5    N25   A    
C2    C98   A    
C159  C160  A    
C28   H52   S    
C89   N25   A    
C4    C100  A    
C110  H60   S    
C76   N12   A    
C54   H18   S    
C62   C135  S    
C27   C28   A    
C163  C164  A    
C15   C87   A    
C103  H54   S    
C54   C58   A    
C130  H77   S    
C33   C57   A    
C6    C46   A    
C62   C65   A    
C46   H26   S    
C94   C159  S    
C36   C60   A    
C166  H107  S    
C30   C107  S    
N18   Ni6   S    
C90   H46   S    
N22   Ni2   S    
C10   C74   A    
C116  C117  A    
N1    Ni1   S    
N2    N30   A    
C118  H67   S    
C14   C78   A    
C167  C168  A    
N5    Ni5   S    
C75   H31   S    
C32   H8    S    
C171  C176  A    
C41   C98   S    
C87   H43   S    
C88   H44   S    
C9    C81   A    
C20   C31   S    
