data_mof_unit_33790.cif
_audit_creation_date              2012-12-10T17:22:39-0500
_audit_creation_method            fapswitch 2.2
_symmetry_space_group_name_H-M    P1
_symmetry_Int_Tables_number       1
_space_group_crystal_system       triclinic
_cell_length_a                    10.628226
_cell_length_b                    10.861054
_cell_length_c                    9.587127
_cell_angle_alpha                 90.40298
_cell_angle_beta                  89.63549
_cell_angle_gamma                 92.68038
_cell_volume                      1105.41962331

loop_
_atom_site_label
_atom_site_type_symbol
_atom_type_description
_atom_site_fract_x
_atom_site_fract_y
_atom_site_fract_z
_atom_type_partial_charge
C1    C     C_R   0.509947 0.263119 0.500233 0.795577
C2    C     C_3   0.960984 0.513127 0.367431 -0.209313
C3    C     C_3   0.037122 0.405206 0.421494 -0.233667
C4    C     C_3   0.122440 0.498604 0.501762 -0.051225
C5    C     C_R   0.582278 0.122694 0.753687 -0.164084
C6    C     C_R   0.567520 0.064949 0.882397 -0.161285
C7    C     C_R   0.504935 0.950174 0.890266 -0.141061
C8    C     C_R   0.468988 0.887854 0.768238 -0.156978
C9    C     C_R   0.496338 0.939638 0.635228 0.087358
C10   C     C_R   0.534381 0.065488 0.630311 0.092982
C11   C     C_R   0.521128 0.129298 0.502796 -0.120277
C12   C     C_R   0.259404 0.499035 0.500489 0.836177
C13   C     C_R   0.501100 0.062924 0.378688 -0.222613
C14   C     C_R   0.490243 0.935682 0.380294 -0.202155
C15   C     C_R   0.487753 0.872231 0.507073 -0.101783
C16   C     C_R   0.666712 0.665220 0.144041 -0.166275
C17   C     C_R   0.746442 0.747324 0.071491 -0.225912
C18   C     C_R   0.746833 0.746763 0.927844 -0.192600
C19   C     C_R   0.666641 0.664913 0.855730 -0.141676
C20   C     C_R   0.581886 0.581162 0.925151 0.195415
C21   C     C_R   0.581917 0.581168 0.074817 0.212402
C22   C     C_R   0.422380 0.422503 0.073858 -0.062767
C23   C     C_R   0.492952 0.737542 0.501606 0.797655
C24   C     C_R   0.422407 0.422543 0.925882 -0.069717
C25   C     C_R   0.740584 0.501020 0.499634 0.776506
C26   C     C_3   0.038667 0.486680 0.632787 -0.187778
C27   C     C_3   0.951173 0.393268 0.552337 -0.135958
C28   C     C_3   0.877423 0.501414 0.499050 -0.037099
C29   C     C_3   0.962331 0.595102 0.580446 -0.255735
C30   C     C_3   0.046904 0.604587 0.449837 0.555233
Cu1   Cu    Cu3+1 0.499990 0.499990 0.640660 0.920308
Cu2   Cu    Cu3+1 0.500010 0.500010 0.359340 0.940206
H1    H     H_    0.907936 0.306147 0.594576 0.127999
H2    H     H_    0.486616 0.908010 0.990826 0.141145
H3    H     H_    0.415907 0.801638 0.781342 0.172711
H4    H     H_    0.481685 0.887054 0.281496 0.168424
H5    H     H_    0.358779 0.358981 0.129089 0.133243
H6    H     H_    0.675998 0.671916 0.253976 0.195732
H7    H     H_    0.808616 0.811953 0.127164 0.143107
H8    H     H_    0.809501 0.810563 0.871501 0.146050
H9    H     H_    0.674732 0.672484 0.745819 0.197263
H10   H     H_    0.358853 0.359025 0.870468 0.142030
H11   H     H_    0.073100 0.474923 0.740753 0.154886
H12   H     H_    0.928430 0.672249 0.644955 0.125371
H13   H     H_    0.926988 0.525700 0.259410 0.151711
H14   H     H_    0.070758 0.327435 0.357793 0.143371
H15   H     H_    0.493732 0.109272 0.279565 0.162245
H16   H     H_    0.633610 0.210943 0.752181 0.160695
H17   H     H_    0.601349 0.110921 0.976421 0.135368
N1    N     N_R   0.501210 0.501210 0.147910 -0.197244
N2    N     N_R   0.501250 0.501290 0.852040 -0.204452
O1    O     O_R   0.499990 0.319640 0.618810 -0.588883
O2    O     O_R   0.500000 0.319660 0.381240 -0.585217
O3    O     O_R   0.316850 0.499960 0.618770 -0.590216
O4    O     O_R   0.316860 0.499980 0.381190 -0.562068
O5    O     O_R   0.500000 0.680340 0.618760 -0.618250
O6    O     O_R   0.500010 0.680360 0.381190 -0.592881
O7    O     O_R   0.683140 0.500020 0.618810 -0.600281
O8    O     O_R   0.683150 0.500040 0.381230 -0.603506
O9    O     O_3   0.107039 0.712267 0.394699 -0.578336
C31   C     C_3   0.018077 0.803321 0.380159 -0.345928
H18   H     H_    0.991744 0.841063 0.483842 0.159052
H19   H     H_    0.932498 0.767834 0.323901 0.142365
H20   H     H_    0.061402 0.880298 0.318276 0.194630

loop_
_geom_bond_atom_site_label_1
_geom_bond_atom_site_label_2
_ccdc_geom_bond_type
C31   H20   S    
C4    C26   S    
C16   C21   A    
C22   H5    S    
Cu1   O5    S    
C4    C12   S    
C24   H10   S    
C9    C10   A    
Cu2   O4    S    
C19   C20   A    
C1    C11   S    
C2    C30   S    
Cu1   O1    S    
C22   N1    A    
C2    C28   S    
C24   N2    A    
C15   C23   S    
C17   C18   A    
C9    C15   A    
C4    C30   S    
C23   O5    A    
C2    H13   S    
C13   C14   A    
C27   H1    S    
C25   C28   S    
C11   C13   A    
C3    H14   S    
Cu2   N1    S    
C26   C27   S    
C29   C30   S    
Cu2   O6    S    
O9    C31   S    
C5    C6    A    
Cu1   O7    S    
C3    C27   S    
C28   C29   S    
C7    H2    S    
C26   H11   S    
C2    C3    S    
C6    C7    A    
C29   H12   S    
C6    H17   S    
C14   H4    S    
C31   H18   S    
C5    H16   S    
C22   C24   A    
C12   O4    A    
C7    C8    A    
C10   C11   A    
Cu1   O3    S    
C3    C4    S    
C17   H7    S    
C19   H9    S    
Cu2   O2    S    
C5    C10   A    
C20   C21   A    
C26   C29   S    
C13   H15   S    
C18   C19   A    
C25   O7    A    
C16   H6    S    
C27   C28   S    
C23   O6    A    
C1    O2    A    
C20   N2    A    
C21   N1    A    
C18   H8    S    
C25   O8    A    
Cu2   O8    S    
C14   C15   A    
C1    O1    A    
C31   H19   S    
C12   O3    A    
Cu1   Cu2   S    
C16   C17   A    
Cu1   N2    S    
C8    C9    A    
C8    H3    S    
C30   O9    S    
