data_mof_unit_35830.cif
_audit_creation_date              2012-12-10T19:00:16-0500
_audit_creation_method            fapswitch 2.2
_symmetry_space_group_name_H-M    P1
_symmetry_Int_Tables_number       1
_space_group_crystal_system       triclinic
_cell_length_a                    9.564105
_cell_length_b                    10.829276
_cell_length_c                    13.428495
_cell_angle_alpha                 90.627733
_cell_angle_beta                  72.245621
_cell_angle_gamma                 89.85717
_cell_volume                      1324.47489402

loop_
_atom_site_label
_atom_site_type_symbol
_atom_type_description
_atom_site_fract_x
_atom_site_fract_y
_atom_site_fract_z
_atom_type_partial_charge
C1    C     C_R   0.498262 0.737612 0.503769 0.882986
C2    C     C_R   0.371807 0.494989 0.815476 -0.081398
C3    C     C_R   0.371113 0.939172 0.566136 0.205868
C4    C     C_R   0.420886 0.503034 0.700444 0.892786
C5    C     C_R   0.497549 0.871034 0.513180 -0.116812
C6    C     C_R   0.631326 0.934377 0.474716 -0.147594
C7    C     C_R   0.632867 0.062967 0.473202 -0.199463
C8    C     C_R   0.500460 0.129498 0.507903 -0.095694
C9    C     C_R   0.372841 0.065951 0.558684 0.086930
C10   C     C_3   0.221088 0.074020 0.551519 -0.560358
C11   C     C_3   0.213932 0.934466 0.566531 0.194028
C12   C     C_R   0.442114 0.482258 0.975856 0.049528
C13   C     C_R   0.939103 0.396568 0.469968 0.265622
C14   C     C_R   0.912649 0.600820 0.530897 -0.054307
C15   C     C_R   0.060679 0.600796 0.530461 -0.037597
C16   C     C_R   0.500222 0.262462 0.500455 0.804582
C17   C     C_R   0.087266 0.396891 0.469291 0.263483
C18   C     C_3   0.136691 0.340201 0.362310 -0.511815
C19   C     C_3   0.977873 0.337484 0.364228 -0.505458
C20   C     C_R   0.579063 0.498944 0.299852 0.779270
C21   C     C_R   0.780091 0.601882 0.028770 -0.139526
C22   C     C_R   0.625425 0.507753 0.185739 -0.048346
C23   C     C_R   0.460971 0.536167 0.876531 -0.064350
C24   C     C_R   0.247271 0.423684 0.861784 -0.163181
C25   C     C_R   0.219421 0.381947 0.963167 -0.122644
C26   C     C_R   0.318178 0.406220 0.018304 -0.147471
C27   C     C_R   0.547011 0.508025 0.029078 0.080959
C28   C     C_R   0.672893 0.579039 0.979123 0.069310
C29   C     C_R   0.681894 0.638912 0.886217 -0.233203
C30   C     C_R   0.567648 0.629873 0.842556 0.342804
C31   C     C_R   0.527142 0.471754 0.132533 -0.211836
C32   C     C_R   0.756229 0.566639 0.131990 -0.200133
Cu1   Cu    Cu3+1 0.359330 0.500020 0.500010 0.976399
Cu2   Cu    Cu3+1 0.640670 0.499980 0.499990 0.979652
H1    H     H_    0.834450 0.593630 0.171846 0.151623
H2    H     H_    0.954710 0.397991 0.304681 0.215869
H3    H     H_    0.767562 0.706418 0.855895 0.227587
H4    H     H_    0.934233 0.242380 0.366572 0.188354
H5    H     H_    0.877376 0.654679 0.990333 0.165015
H6    H     H_    0.430988 0.422847 0.176435 0.128025
H7    H     H_    0.176032 0.393352 0.817301 0.163339
H8    H     H_    0.294639 0.362728 0.093262 0.124877
H9    H     H_    0.124968 0.324221 0.997128 0.154694
H10   H     H_    0.733682 0.884939 0.440446 0.156579
H11   H     H_    0.906586 0.007430 0.681433 0.352774
H12   H     H_    0.736069 0.109366 0.439052 0.149495
H13   H     H_    0.294657 0.766649 0.832964 0.376748
H14   H     H_    0.147538 0.130008 0.616469 0.230581
H15   H     H_    0.219584 0.100416 0.472325 0.165539
H16   H     H_    0.197307 0.882370 0.499366 0.066617
H17   H     H_    0.849629 0.684491 0.552354 0.209412
H18   H     H_    0.106201 0.684066 0.550576 0.195020
H19   H     H_    0.203563 0.404440 0.303010 0.208791
H20   H     H_    0.185431 0.246952 0.360612 0.191212
N1    N     N_R   0.852320 0.499070 0.499340 -0.203528
N2    N     N_R   0.148230 0.499110 0.499340 -0.201346
O1    O     O_R   0.381190 0.680360 0.500000 -0.596816
O2    O     O_2   0.116036 0.976170 0.776502 -0.263072
O3    O     O_3   0.915775 0.917418 0.690341 -0.480050
O4    O     O_2   0.532859 0.874210 0.852820 -0.258926
O5    O     O_2   0.648770 0.784378 0.681072 -0.262988
O6    O     O_3   0.366746 0.761124 0.762170 -0.508813
O7    O     O_R   0.618780 0.680320 0.499990 -0.566652
O8    O     O_R   0.323230 0.500000 0.650990 -0.558200
O9    O     O_R   0.560820 0.499960 0.650980 -0.564915
O10   O     O_R   0.381220 0.319680 0.500010 -0.584746
O11   O     O_R   0.618810 0.319640 0.500000 -0.585286
O12   O     O_R   0.439180 0.500040 0.349020 -0.585338
O13   O     O_R   0.676770 0.500000 0.349010 -0.593744
O14   O     O_2   0.107345 0.763120 0.717578 -0.272362
S1    S     S_3+6 0.088973 0.895691 0.692333 0.010751
S2    S     S_3+6 0.531006 0.765590 0.782535 0.020858

loop_
_geom_bond_atom_site_label_1
_geom_bond_atom_site_label_2
_ccdc_geom_bond_type
Cu2   O11   S    
C2    C4    S    
C23   C30   A    
C6    C7    A    
C3    C9    A    
C19   H4    S    
C1    O1    A    
C9    C10   S    
C4    O8    A    
C30   S2    S    
C14   H17   S    
C21   H5    S    
C13   C17   A    
C15   N2    A    
C25   H9    S    
H13   O6    S    
C17   C18   S    
O6    S2    S    
Cu2   N1    S    
C8    C16   S    
C11   H16   S    
C6    H10   S    
C15   H18   S    
C24   C25   A    
C2    C24   A    
C24   H7    S    
C12   C23   A    
O3    S1    S    
C7    H12   S    
C29   C30   A    
C22   C32   A    
Cu1   N2    S    
Cu1   O8    S    
C1    C5    S    
C5    C6    A    
C1    O7    A    
O5    S2    D    
C28   C29   A    
Cu1   Cu2   S    
C21   C28   A    
C20   C22   S    
Cu1   O10   S    
C14   N1    A    
C18   H20   S    
C17   N2    A    
C19   H2    S    
C10   H14   S    
C4    O9    A    
C20   O13   A    
C21   C32   A    
C11   S1    S    
O2    S1    D    
C3    C11   S    
C10   C11   S    
O4    S2    D    
C12   C27   A    
C27   C31   A    
C32   H1    S    
C7    C8    A    
O14   S1    D    
C16   O10   A    
C31   H6    S    
C26   H8    S    
C2    C23   A    
C18   C19   S    
C22   C31   A    
C29   H3    S    
C27   C28   A    
C16   O11   A    
C13   C19   S    
C14   C15   A    
Cu2   O7    S    
Cu1   O1    S    
C18   H19   S    
C3    C5    A    
C25   C26   A    
C10   H15   S    
Cu2   O13   S    
C20   O12   A    
H11   O3    S    
Cu1   O12   S    
C12   C26   A    
C8    C9    A    
C13   N1    A    
Cu2   O9    S    
