data_mof_unit_24998.cif
_audit_creation_date              2012-12-10T17:19:12-0500
_audit_creation_method            fapswitch 2.2
_symmetry_space_group_name_H-M    P1
_symmetry_Int_Tables_number       1
_space_group_crystal_system       triclinic
_cell_length_a                    18.395106
_cell_length_b                    18.3474
_cell_length_c                    34.366522
_cell_angle_alpha                 89.494387
_cell_angle_beta                  89.923375
_cell_angle_gamma                 90.182222
_cell_volume                      11598.2614614

loop_
_atom_site_label
_atom_site_type_symbol
_atom_type_description
_atom_site_fract_x
_atom_site_fract_y
_atom_site_fract_z
_atom_type_partial_charge
C1    C     C_R   0.630811 0.025657 0.519206 0.287085
C2    C     C_R   0.869770 0.538841 0.980091 0.271180
C3    C     C_R   0.514713 0.935397 0.958473 -0.015392
C4    C     C_R   0.931707 0.513191 0.041467 0.017705
C5    C     C_R   0.056108 0.465720 0.959146 0.016965
C6    C     C_R   0.519636 0.935614 0.040862 0.014995
C7    C     C_R   0.488208 0.067533 0.958433 0.013927
C8    C     C_R   0.000595 0.499861 0.644319 0.483761
C9    C     C_R   0.999976 0.501070 0.355518 0.527378
C10   C     C_R   0.500342 0.000659 0.644311 0.484127
C11   C     C_R   0.499657 0.999693 0.355492 0.536796
C12   C     C_R   0.500580 0.999738 0.144318 0.482693
C13   C     C_R   0.482233 0.132958 0.019991 0.286917
C14   C     C_R   0.499914 0.001428 0.855487 0.526769
C15   C     C_R   0.999605 0.500338 0.144372 0.487565
C16   C     C_R   0.999708 0.499581 0.855662 0.537228
C17   C     C_R   0.859989 0.640713 0.749210 0.496539
C18   C     C_R   0.143617 0.363689 0.247988 0.543972
C19   C     C_R   0.360048 0.860330 0.749816 0.537742
C20   C     C_R   0.640633 0.140030 0.250080 0.539496
C21   C     C_R   0.140027 0.359414 0.749930 0.506519
C22   C     C_R   0.860021 0.640055 0.249962 0.495569
C23   C     C_R   0.640009 0.139850 0.749759 0.495853
C24   C     C_R   0.524532 0.869725 0.979648 0.264305
C25   C     C_R   0.361165 0.857843 0.250081 0.564648
C26   C     C_R   0.860216 0.360419 0.249969 0.542503
C27   C     C_R   0.140872 0.639615 0.750554 0.546163
C28   C     C_R   0.360014 0.140447 0.249254 0.497901
C29   C     C_R   0.644038 0.864470 0.747414 0.544735
C30   C     C_R   0.140609 0.639315 0.249108 0.497950
C31   C     C_R   0.861127 0.357857 0.750088 0.563201
C32   C     C_R   0.640291 0.859760 0.250086 0.504036
C33   C     C_R   0.360034 0.139980 0.749894 0.495641
C34   C     C_R   0.280111 0.631143 0.702363 0.101241
C35   C     C_R   0.867824 0.530625 0.020662 0.303203
C36   C     C_R   0.797374 0.297889 0.323960 0.088842
C37   C     C_R   0.388117 0.296811 0.726781 0.106726
C38   C     C_R   0.649412 0.736635 0.310530 0.110199
C39   C     C_R   0.835785 0.269209 0.677795 0.067030
C40   C     C_R   0.183757 0.717721 0.318045 0.085855
C41   C     C_R   0.682549 0.791059 0.673057 0.086884
C42   C     C_R   0.304902 0.216176 0.318837 0.097924
C43   C     C_R   0.275782 0.363337 0.302635 0.102793
C44   C     C_R   0.784470 0.681926 0.673155 0.116396
C45   C     C_R   0.333121 0.749190 0.317999 0.084090
C46   C     C_R   0.113581 0.432849 0.980060 0.292571
C47   C     C_R   0.740744 0.149509 0.682233 0.076407
C48   C     C_R   0.703253 0.611684 0.273883 0.104659
C49   C     C_R   0.263441 0.351371 0.689778 0.099751
C50   C     C_R   0.651892 0.259841 0.311041 0.084131
C51   C     C_R   0.319737 0.772357 0.679570 0.098254
C52   C     C_R   0.765900 0.148052 0.190572 0.091627
C53   C     C_R   0.285999 0.810861 0.823416 0.102164
C54   C     C_R   0.888531 0.797041 0.226422 0.110723
C55   C     C_R   0.143012 0.229337 0.806638 0.110967
C56   C     C_R   0.333998 0.775045 0.176786 0.067660
C57   C     C_R   0.532954 0.870903 0.019999 0.302102
C58   C     C_R   0.680033 0.220995 0.818516 0.083008
C59   C     C_R   0.185042 0.293553 0.173760 0.080748
C60   C     C_R   0.810075 0.724267 0.817619 0.094997
C61   C     C_R   0.780622 0.870042 0.798496 0.104264
C62   C     C_R   0.286226 0.184082 0.173209 0.117057
C63   C     C_R   0.829051 0.254246 0.819743 0.081506
C64   C     C_R   0.231077 0.662203 0.176927 0.081981
C65   C     C_R   0.201579 0.108473 0.768294 0.104339
C66   C     C_R   0.763546 0.851994 0.189958 0.111006
C67   C     C_R   0.142273 0.771983 0.805858 0.104127
C68   C     C_R   0.479330 0.133251 0.979289 0.285286
C69   C     C_R   0.804640 0.293817 0.177378 0.094427
C70   C     C_R   0.316651 0.642560 0.666752 0.268840
C71   C     C_R   0.748653 0.293082 0.355591 0.335379
C72   C     C_R   0.394692 0.351177 0.697939 0.294170
C73   C     C_R   0.627338 0.667036 0.323294 0.290860
C74   C     C_R   0.821494 0.227594 0.644621 0.262582
C75   C     C_R   0.221937 0.719980 0.353330 0.333806
C76   C     C_R   0.678331 0.737706 0.644298 0.253463
C77   C     C_R   0.311748 0.268259 0.348339 0.309224
C78   C     C_R   0.299431 0.342182 0.339907 0.302295
C79   C     C_R   0.294740 0.757584 0.717926 -0.032680
C80   C     C_R   0.732363 0.683579 0.643338 0.319518
C81   C     C_R   0.297160 0.731621 0.353125 0.314208
C82   C     C_R   0.779035 0.164721 0.647933 0.312364
C83   C     C_R   0.647675 0.605367 0.301828 0.293069
C84   C     C_R   0.332969 0.371890 0.676522 0.294991
C85   C     C_R   0.674681 0.280117 0.348582 0.282320
C86   C     C_R   0.326659 0.714720 0.653113 0.257874
C87   C     C_R   0.793473 0.170103 0.154034 0.266733
C88   C     C_R   0.231917 0.815791 0.852074 0.312620
C89   C     C_R   0.894816 0.852304 0.198075 0.295809
C90   C     C_R   0.705178 0.245411 0.282181 -0.035112
C91   C     C_R   0.118928 0.158664 0.816159 0.294815
C92   C     C_R   0.314544 0.741696 0.141855 0.264125
C93   C     C_R   0.716877 0.224856 0.854142 0.334261
C94   C     C_R   0.181354 0.241890 0.144114 0.259514
C95   C     C_R   0.819913 0.778820 0.845573 0.305399
C96   C     C_R   0.807200 0.852042 0.835640 0.301949
C97   C     C_R   0.235169 0.187414 0.142852 0.316959
C98   C     C_R   0.791881 0.237672 0.854639 0.315493
C99   C     C_R   0.267122 0.682369 0.142519 0.322353
C100  C     C_R   0.141975 0.099523 0.793517 0.294905
C101  C     C_R   0.257418 0.307960 0.724249 -0.050754
C102  C     C_R   0.832879 0.873481 0.176848 0.287581
C103  C     C_R   0.158774 0.804716 0.841781 0.264695
C104  C     C_R   0.803767 0.244842 0.146149 0.264198
C105  C     C_R   0.499281 0.004378 0.520188 -0.112621
C106  C     C_R   0.499062 0.002795 0.478938 -0.109371
C107  C     C_R   0.010190 0.502518 0.520260 -0.114430
C108  C     C_R   0.007750 0.502154 0.479062 -0.109211
C109  C     C_R   0.994645 0.491647 0.020669 -0.113739
C110  C     C_R   0.994074 0.491177 0.979506 -0.105973
C111  C     C_R   0.505840 0.001544 0.020210 -0.114602
C112  C     C_R   0.366097 0.993738 0.479789 0.272008
C113  C     C_R   0.734075 0.681742 0.266117 -0.051997
C114  C     C_R   0.503136 0.001549 0.979023 -0.108878
C115  C     C_3   0.091117 0.893500 0.869894 -0.105568
C116  C     C_3   0.759030 0.270825 0.086180 -0.113675
C117  C     C_3   0.045000 0.029525 0.777708 -0.100609
C118  C     C_3   0.858172 0.877005 0.112290 -0.096858
C119  C     C_3   0.869386 0.173315 0.894578 -0.088797
C120  C     C_3   0.310975 0.590260 0.105659 -0.099852
C121  C     C_3   0.761740 0.919540 0.884848 -0.113530
C122  C     C_3   0.226016 0.162311 0.075993 -0.085646
C123  C     C_3   0.064908 0.223550 0.125383 -0.127675
C124  C     C_R   0.743412 0.199570 0.714067 -0.058333
C125  C     C_3   0.916760 0.759827 0.884912 -0.097589
C126  C     C_3   0.311241 0.808986 0.086357 -0.102455
C127  C     C_3   0.675328 0.137291 0.895724 -0.111162
C128  C     C_3   0.970893 0.949055 0.204123 -0.095445
C129  C     C_3   0.104899 0.122496 0.878974 -0.108449
C130  C     C_3   0.881705 0.110331 0.120580 -0.088078
C131  C     C_3   0.255373 0.775876 0.913282 -0.101689
C132  C     C_3   0.605539 0.228363 0.396259 -0.122839
C133  C     C_3   0.291692 0.717913 0.589817 -0.130632
C134  C     C_3   0.549714 0.532000 0.293359 -0.077904
C135  C     C_R   0.291801 0.756095 0.282880 -0.064489
C136  C     C_3   0.356778 0.372586 0.611828 -0.094684
C137  C     C_3   0.375031 0.664760 0.391541 -0.086611
C138  C     C_3   0.833757 0.068926 0.618609 -0.073897
C139  C     C_3   0.250470 0.406705 0.389302 -0.113611
C140  C     C_3   0.726550 0.657965 0.576709 -0.083144
C141  C     C_3   0.562260 0.715016 0.626552 -0.130261
C142  C     C_3   0.404277 0.246406 0.390287 -0.103640
C143  C     C_3   0.815700 0.283109 0.585658 -0.113880
C144  C     C_3   0.179452 0.633259 0.395172 -0.111663
C145  C     C_3   0.477137 0.440462 0.708892 -0.105424
C146  C     C_R   0.771138 0.718334 0.709194 -0.056459
C147  C     C_3   0.622261 0.638359 0.387528 -0.093600
C148  C     C_3   0.412491 0.583984 0.637959 -0.086213
C149  C     C_3   0.806167 0.248870 0.409399 -0.110986
C150  C     C_3   0.709947 0.117382 0.532180 -0.059415
C151  C     C_3   0.270038 0.064879 0.463271 -0.096582
C152  C     C_3   0.898725 0.706693 0.546239 -0.087562
C153  C     C_3   0.983302 0.262072 0.467029 -0.114462
C154  C     C_3   0.290750 0.899353 0.542359 -0.085066
C155  C     C_3   0.728732 0.945473 0.462472 -0.078871
C156  C     C_3   0.144831 0.314173 0.540920 -0.081806
C157  C     C_R   0.258376 0.308743 0.274910 -0.058251
C158  C     C_3   0.028522 0.740703 0.456016 -0.062500
C159  C     C_3   0.240562 0.437141 0.032384 -0.081784
C160  C     C_3   0.803929 0.640846 0.966462 -0.092317
C161  C     C_3   0.397575 0.206688 0.047029 -0.087962
C162  C     C_3   0.457652 0.770287 0.963795 -0.112781
C163  C     C_3   0.762914 0.477607 0.040961 -0.084676
C164  C     C_3   0.143080 0.320334 0.958467 -0.097605
C165  C     C_3   0.625767 0.796852 0.037913 -0.074408
C166  C     C_3   0.523835 0.241463 0.956378 -0.062160
C167  C     C_R   0.289253 0.239671 0.280051 -0.055607
C168  C     C_R   0.719572 0.775908 0.708360 -0.031973
C169  C     C_R   0.222823 0.723912 0.282288 -0.062336
C170  C     C_R   0.796503 0.256450 0.712987 -0.030625
C171  C     C_R   0.693060 0.742717 0.276351 -0.054293
C172  C     C_R   0.984539 0.633446 0.519898 0.287632
C173  C     C_R   0.318177 0.266607 0.734653 -0.049862
C174  C     C_R   0.771529 0.282190 0.285755 -0.064201
C175  C     C_R   0.257362 0.692343 0.724382 -0.045957
C176  C     C_R   0.786561 0.268279 0.215364 -0.033034
C177  C     C_R   0.200151 0.750996 0.780719 -0.031595
C178  C     C_R   0.757815 0.808284 0.224342 -0.050902
C179  C     C_R   0.232620 0.179305 0.763481 -0.051671
C180  C     C_R   0.239886 0.704654 0.211660 -0.056293
C181  C     C_R   0.789107 0.259293 0.784051 -0.065436
C182  C     C_R   0.271737 0.218666 0.209689 -0.056267
C183  C     C_R   0.036039 0.371446 0.480010 0.269619
C184  C     C_R   0.761601 0.813150 0.772459 -0.056559
C185  C     C_R   0.792503 0.744406 0.778649 -0.056736
C186  C     C_R   0.220287 0.276152 0.209235 -0.034389
C187  C     C_R   0.720325 0.226447 0.783142 -0.062954
C188  C     C_R   0.295039 0.759695 0.211754 -0.030959
C189  C     C_R   0.190194 0.239105 0.774084 -0.054544
C190  C     C_R   0.818627 0.766786 0.234478 -0.052426
C191  C     C_R   0.266107 0.788150 0.785323 -0.067708
C192  C     C_R   0.749648 0.201801 0.218963 -0.046148
C193  C     C_R   0.306337 0.802254 0.750872 0.031826
C194  C     C_R   0.367237 0.987568 0.520375 0.303216
C195  C     C_R   0.698447 0.195780 0.250381 0.036964
C196  C     C_R   0.195853 0.302250 0.749557 0.004383
C197  C     C_R   0.804156 0.696239 0.250135 0.012538
C198  C     C_R   0.698916 0.192795 0.748058 0.037730
C199  C     C_R   0.315576 0.790991 0.247893 0.033286
C200  C     C_R   0.805785 0.700155 0.745708 0.011892
C201  C     C_R   0.210049 0.318449 0.243080 0.022861
C202  C     C_R   0.304997 0.198679 0.246277 0.015244
C203  C     C_R   0.710915 0.820167 0.741616 0.023216
C204  C     C_R   0.199093 0.692980 0.246882 0.035609
C205  C     C_R   0.631825 0.014689 0.479046 0.281893
C206  C     C_R   0.814539 0.291635 0.748594 0.031975
C207  C     C_R   0.697039 0.803648 0.250283 0.004001
C208  C     C_R   0.303671 0.195518 0.749476 0.014701
C209  C     C_R   0.805548 0.303646 0.250420 0.039370
C210  C     C_R   0.199268 0.694415 0.752034 0.036706
C211  C     C_R   0.433623 0.999170 0.582067 0.080520
C212  C     C_R   0.565599 0.006801 0.417283 0.063935
C213  C     C_R   0.019461 0.436205 0.581912 0.078395
C214  C     C_R   0.984735 0.565828 0.417562 0.061401
C215  C     C_R   0.565223 0.015579 0.581578 0.073239
C216  C     C_R   0.044059 0.373784 0.520394 0.302818
C217  C     C_R   0.433532 0.992463 0.417254 0.079508
C218  C     C_R   0.002697 0.567631 0.581788 0.081731
C219  C     C_R   0.019312 0.437296 0.417388 0.079129
C220  C     C_R   0.934119 0.516401 0.082482 0.079037
C221  C     C_R   0.058958 0.472410 0.918385 0.070133
C222  C     C_R   0.517778 0.935538 0.081874 0.080897
C223  C     C_R   0.482862 0.065994 0.917489 0.060037
C224  C     C_R   0.062738 0.482843 0.081417 0.110258
C225  C     C_R   0.934335 0.517749 0.917474 0.077612
C226  C     C_R   0.501751 0.067093 0.081711 0.084559
C227  C     C_R   0.982328 0.633559 0.479193 0.285156
C228  C     C_R   0.517086 0.937425 0.917344 0.078229
C229  C     C_R   0.500009 0.003189 0.601864 0.014238
C230  C     C_R   0.499666 0.999165 0.397600 0.053165
C231  C     C_R   0.004017 0.500784 0.601860 0.017144
C232  C     C_R   0.000408 0.501330 0.397748 0.048175
C233  C     C_R   0.999269 0.500772 0.102030 0.029699
C234  C     C_R   0.998095 0.497833 0.898052 0.054178
C235  C     C_R   0.503645 0.000395 0.101847 0.017806
C236  C     C_R   0.499772 0.001773 0.897663 0.046158
C237  C     C_R   0.565660 0.015413 0.540523 0.017178
C238  C     C_R   0.117251 0.439480 0.020637 0.293412
C239  C     C_R   0.432015 0.996367 0.458440 -0.012120
C240  C     C_R   0.999187 0.568449 0.540783 0.015100
C241  C     C_R   0.020805 0.436034 0.458611 -0.013794
C242  C     C_R   0.432926 0.996661 0.541052 0.016020
C243  C     C_R   0.566050 0.007707 0.458249 0.011388
C244  C     C_R   0.025237 0.437172 0.541028 0.014197
C245  C     C_R   0.991339 0.567733 0.458431 0.013526
C246  C     C_R   0.058679 0.471323 0.040997 0.016717
C247  C     C_R   0.931994 0.516618 0.958793 -0.007920
C248  C     C_R   0.496791 0.067770 0.040767 0.016312
H1    H     H_    0.333357 0.544658 0.725095 0.213814
H2    H     H_    0.942326 0.290968 0.668756 0.233993
H3    H     H_    0.653508 0.127607 0.925411 0.123491
H4    H     H_    0.934711 0.988808 0.189283 0.130012
H5    H     H_    0.027687 0.967554 0.199302 0.141604
H6    H     H_    0.960840 0.948890 0.236103 0.127777
H7    H     H_    0.147259 0.161700 0.888810 0.128933
H8    H     H_    0.129351 0.068022 0.873892 0.140511
H9    H     H_    0.064734 0.116317 0.902891 0.116769
H10   H     H_    0.910833 0.102866 0.148727 0.083393
H11   H     H_    0.904903 0.157443 0.104247 0.148842
H12   H     H_    0.891496 0.060858 0.103037 0.156267
H13   H     H_    0.085079 0.746183 0.295155 0.237228
H14   H     H_    0.298539 0.738329 0.902875 0.122372
H15   H     H_    0.202417 0.746622 0.915572 0.148020
H16   H     H_    0.270609 0.793553 0.942967 0.123871
H17   H     H_    0.652720 0.204879 0.412037 0.139419
H18   H     H_    0.582912 0.187719 0.375702 0.104978
H19   H     H_    0.562909 0.239676 0.418212 0.128306
H20   H     H_    0.309848 0.732361 0.559938 0.127231
H21   H     H_    0.244736 0.753525 0.597022 0.106502
H22   H     H_    0.274397 0.659793 0.589493 0.170089
H23   H     H_    0.553013 0.539272 0.261196 0.122512
H24   H     H_    0.085674 0.665350 0.319892 0.231674
H25   H     H_    0.510890 0.571778 0.305960 0.153486
H26   H     H_    0.527780 0.476585 0.299232 0.150050
H27   H     H_    0.360431 0.408097 0.585604 0.132392
H28   H     H_    0.313476 0.331355 0.606434 0.122534
H29   H     H_    0.410337 0.345388 0.615517 0.145007
H30   H     H_    0.433371 0.676675 0.386113 0.188881
H31   H     H_    0.357017 0.620088 0.371884 0.109951
H32   H     H_    0.370124 0.644062 0.421860 0.127833
H33   H     H_    0.834676 0.037349 0.646411 0.125004
H34   H     H_    0.886192 0.098297 0.614345 0.145486
H35   H     H_    0.607903 0.861980 0.652151 0.286693
H36   H     H_    0.828180 0.029255 0.594616 0.161911
H37   H     H_    0.205082 0.425983 0.370483 0.123632
H38   H     H_    0.261647 0.450077 0.410791 0.124635
H39   H     H_    0.233733 0.356917 0.405780 0.154701
H40   H     H_    0.756727 0.622978 0.556133 0.106464
H41   H     H_    0.747114 0.714756 0.572845 0.120995
H42   H     H_    0.668414 0.653671 0.568455 0.172231
H43   H     H_    0.539953 0.743218 0.652506 0.140357
H44   H     H_    0.568086 0.655614 0.632642 0.113313
H45   H     H_    0.522229 0.721492 0.602673 0.161590
H46   H     H_    0.694813 0.882487 0.641274 0.228641
H47   H     H_    0.427282 0.302240 0.386709 0.165929
H48   H     H_    0.430876 0.208483 0.369605 0.115694
H49   H     H_    0.417432 0.227235 0.420153 0.124685
H50   H     H_    0.802314 0.336701 0.598756 0.116002
H51   H     H_    0.764941 0.253522 0.577859 0.121868
H52   H     H_    0.846217 0.293986 0.558337 0.142219
H53   H     H_    0.232661 0.604881 0.393676 0.108145
H54   H     H_    0.140744 0.608063 0.374475 0.133869
H55   H     H_    0.157847 0.624066 0.424950 0.122325
H56   H     H_    0.478849 0.428628 0.740692 0.144819
H57   H     H_    0.278190 0.108540 0.308950 0.227261
H58   H     H_    0.436658 0.483691 0.702576 0.120436
H59   H     H_    0.531293 0.461837 0.700186 0.139158
H60   H     H_    0.666059 0.678448 0.394076 0.131968
H61   H     H_    0.645738 0.583124 0.383507 0.166556
H62   H     H_    0.585684 0.635649 0.413192 0.128913
H63   H     H_    0.444227 0.602344 0.663724 0.072282
H64   H     H_    0.425586 0.618186 0.612116 0.154024
H65   H     H_    0.430580 0.527933 0.631205 0.176814
H66   H     H_    0.863770 0.246728 0.399851 0.144523
H67   H     H_    0.778738 0.196225 0.402641 0.101897
H68   H     H_    0.355205 0.122034 0.335638 0.264124
H69   H     H_    0.805775 0.254565 0.441503 0.121944
H70   H     H_    0.364767 0.961043 0.623748 0.231340
H71   H     H_    0.366192 0.052846 0.618694 0.236143
H72   H     H_    0.638309 0.967933 0.378002 0.225413
H73   H     H_    0.628819 0.060113 0.377435 0.221161
H74   H     H_    0.068079 0.375449 0.624305 0.235532
H75   H     H_    0.978728 0.356649 0.616208 0.237845
H76   H     H_    0.003447 0.643286 0.376013 0.223980
H77   H     H_    0.914992 0.617402 0.380740 0.248381
H78   H     H_    0.622940 0.080243 0.617346 0.255939
H79   H     H_    0.276176 0.446412 0.261668 0.236568
H80   H     H_    0.639561 0.989780 0.623140 0.238565
H81   H     H_    0.335182 0.024294 0.395350 0.269040
H82   H     H_    0.343826 0.931648 0.403751 0.293458
H83   H     H_    0.968611 0.637925 0.623117 0.241548
H84   H     H_    0.059827 0.633148 0.617884 0.232600
H85   H     H_    0.998210 0.334414 0.397806 0.269003
H86   H     H_    0.089498 0.356714 0.401144 0.261395
H87   H     H_    0.857749 0.497773 0.124330 0.221022
H88   H     H_    0.884003 0.586361 0.119390 0.248100
H89   H     H_    0.115561 0.414507 0.878442 0.243692
H90   H     H_    0.247288 0.470482 0.306929 0.271514
H91   H     H_    0.140790 0.503425 0.881934 0.218988
H92   H     H_    0.573959 0.877950 0.122646 0.234706
H93   H     H_    0.484393 0.856291 0.118660 0.240163
H94   H     H_    0.502659 0.143779 0.876254 0.224880
H95   H     H_    0.414159 0.117734 0.880196 0.248884
H96   H     H_    0.162997 0.525046 0.088198 0.257531
H97   H     H_    0.129197 0.494274 0.129815 0.235133
H98   H     H_    0.859103 0.590863 0.898833 0.284388
H99   H     H_    0.829213 0.501670 0.900764 0.285911
H100  H     H_    0.469991 0.137852 0.123387 0.241057
H101  H     H_    0.896290 0.679105 0.679882 0.224810
H102  H     H_    0.560914 0.132345 0.117022 0.235647
H103  H     H_    0.499088 0.835832 0.895079 0.273049
H104  H     H_    0.589206 0.856467 0.904322 0.259836
H105  H     H_    0.671842 0.150251 0.549976 0.126261
H106  H     H_    0.707073 0.135090 0.501147 0.113435
H107  H     H_    0.766100 0.129003 0.542026 0.175669
H108  H     H_    0.308066 0.106298 0.450747 0.122177
H109  H     H_    0.255398 0.079556 0.493600 0.165079
H110  H     H_    0.219484 0.066500 0.445733 0.156497
H111  H     H_    0.878997 0.663139 0.566324 0.144322
H112  H     H_    0.258610 0.522815 0.699245 0.292921
H113  H     H_    0.856568 0.603362 0.658561 0.300852
H114  H     H_    0.866380 0.706959 0.518891 0.129449
H115  H     H_    0.889876 0.759676 0.560772 0.144857
H116  H     H_    0.986656 0.214651 0.447317 0.130807
H117  H     H_    0.932923 0.292554 0.459470 0.094143
H118  H     H_    0.979477 0.240566 0.497281 0.179429
H119  H     H_    0.335425 0.872295 0.558806 0.127001
H120  H     H_    0.284819 0.874466 0.513112 0.147011
H121  H     H_    0.239520 0.889196 0.558607 0.138672
H122  H     H_    0.692459 0.904177 0.448899 0.120297
H123  H     H_    0.741027 0.929617 0.493083 0.142815
H124  H     H_    0.430190 0.728783 0.289542 0.251689
H125  H     H_    0.780744 0.945609 0.446107 0.143422
H126  H     H_    0.164355 0.362823 0.557059 0.120326
H127  H     H_    0.169026 0.313318 0.511221 0.129385
H128  H     H_    0.164374 0.265131 0.556795 0.147791
H129  H     H_    0.068811 0.712956 0.437306 0.159670
H130  H     H_    0.053325 0.754369 0.484538 0.148366
H131  H     H_    0.013921 0.792737 0.441379 0.154686
H132  H     H_    0.236994 0.496482 0.025335 0.098762
H133  H     H_    0.267548 0.407826 0.008279 0.173138
H134  H     H_    0.275997 0.431311 0.058310 0.118924
H135  H     H_    0.436255 0.784221 0.330123 0.289588
H136  H     H_    0.856014 0.668592 0.958778 0.109784
H137  H     H_    0.787663 0.654928 0.996600 0.159920
H138  H     H_    0.761560 0.662529 0.946590 0.173475
H139  H     H_    0.378181 0.163301 0.067313 0.150585
H140  H     H_    0.364487 0.207078 0.019935 0.131928
H141  H     H_    0.389423 0.259772 0.061578 0.143614
H142  H     H_    0.415053 0.805956 0.950794 0.108617
H143  H     H_    0.443183 0.756089 0.994376 0.166310
H144  H     H_    0.458385 0.718936 0.947010 0.141040
H145  H     H_    0.793146 0.434118 0.056851 0.120636
H146  H     H_    0.727974 0.052509 0.711508 0.228717
H147  H     H_    0.748449 0.458984 0.011218 0.145758
H148  H     H_    0.711477 0.487135 0.056978 0.139551
H149  H     H_    0.091861 0.315961 0.941399 0.124467
H150  H     H_    0.135860 0.295133 0.987809 0.133977
H151  H     H_    0.185289 0.288718 0.942961 0.146208
H152  H     H_    0.654396 0.843036 0.052179 0.115473
H153  H     H_    0.645948 0.790178 0.007619 0.133152
H154  H     H_    0.639515 0.746469 0.054354 0.151910
H155  H     H_    0.564168 0.214987 0.937217 0.161909
H156  H     H_    0.549006 0.254654 0.984868 0.145885
H157  H     H_    0.654690 0.077716 0.682891 0.256342
H158  H     H_    0.508158 0.293700 0.942289 0.155117
H159  H     H_    0.747953 0.564147 0.225130 0.228154
H160  H     H_    0.743837 0.509940 0.265799 0.294078
H161  H     H_    0.158422 0.329876 0.672093 0.231098
H162  H     H_    0.190726 0.415260 0.660715 0.284329
H163  H     H_    0.567180 0.328294 0.302989 0.243758
H164  H     H_    0.906346 0.290157 0.309902 0.221914
H165  H     H_    0.543147 0.244585 0.318965 0.254673
H166  H     H_    0.291876 0.856025 0.644297 0.228195
H167  H     H_    0.381759 0.849170 0.653644 0.273087
H168  H     H_    0.826059 0.058131 0.201522 0.218565
H169  H     H_    0.745101 0.041271 0.180304 0.292911
H170  H     H_    0.396247 0.796671 0.814678 0.220606
H171  H     H_    0.372427 0.871640 0.840870 0.288341
H172  H     H_    0.936586 0.751531 0.275179 0.225631
H173  H     H_    0.990004 0.755914 0.234493 0.287515
H174  H     H_    0.165095 0.330979 0.828915 0.236678
H175  H     H_    0.882598 0.364057 0.337448 0.288731
H176  H     H_    0.078569 0.299045 0.836944 0.276951
H177  H     H_    0.391198 0.862121 0.157995 0.260157
H178  H     H_    0.442141 0.785994 0.167853 0.233786
H179  H     H_    0.581667 0.247424 0.794764 0.236548
H180  H     H_    0.583246 0.166150 0.819135 0.230944
H181  H     H_    0.112796 0.366859 0.152899 0.302928
H182  H     H_    0.200933 0.386576 0.143960 0.253036
H183  H     H_    0.778439 0.617258 0.811171 0.229306
H184  H     H_    0.858856 0.630190 0.834645 0.273307
H185  H     H_    0.775000 0.950006 0.755992 0.230695
H186  H     H_    0.435841 0.251133 0.775588 0.228698
H187  H     H_    0.750236 0.976783 0.801416 0.273393
H188  H     H_    0.397875 0.180606 0.180736 0.224419
H189  H     H_    0.358310 0.105296 0.158820 0.300230
H190  H     H_    0.927041 0.230534 0.792953 0.256227
H191  H     H_    0.931904 0.290028 0.832088 0.285202
H192  H     H_    0.208167 0.560737 0.200226 0.226744
H193  H     H_    0.139302 0.599579 0.171697 0.278380
H194  H     H_    0.252882 0.065383 0.720193 0.226304
H195  H     H_    0.245998 0.008595 0.759744 0.288154
H196  H     H_    0.658776 0.829622 0.172256 0.230603
H197  H     H_    0.489588 0.255700 0.735002 0.287290
H198  H     H_    0.690454 0.915162 0.160748 0.281814
H199  H     H_    0.054284 0.829859 0.788730 0.219133
H200  H     H_    0.034529 0.751805 0.812958 0.265853
H201  H     H_    0.776307 0.388694 0.151264 0.224280
H202  H     H_    0.866750 0.375288 0.155265 0.273343
H203  H     H_    0.071933 0.914840 0.841393 0.153808
H204  H     H_    0.140096 0.924057 0.879520 0.169305
H205  H     H_    0.047523 0.903617 0.891489 0.130974
H206  H     H_    0.773558 0.292538 0.056957 0.132917
H207  H     H_    0.717331 0.307689 0.098752 0.101559
H208  H     H_    0.670698 0.841918 0.328150 0.230156
H209  H     H_    0.735925 0.215313 0.082123 0.170052
H210  H     H_    0.053632 0.041731 0.746228 0.130772
H211  H     H_    0.004516 0.067725 0.790204 0.157984
H212  H     H_    0.021786 0.973780 0.779970 0.131687
H213  H     H_    0.860880 0.913342 0.086357 0.128960
H214  H     H_    0.816432 0.834415 0.106412 0.129418
H215  H     H_    0.912617 0.851642 0.115959 0.150379
H216  H     H_    0.927874 0.186469 0.890581 0.176284
H217  H     H_    0.854157 0.128227 0.874528 0.114698
H218  H     H_    0.862271 0.152588 0.924769 0.123744
H219  H     H_    0.585893 0.809172 0.339491 0.283367
H220  H     H_    0.306353 0.548442 0.129174 0.131431
H221  H     H_    0.366234 0.615143 0.105764 0.156328
H222  H     H_    0.304573 0.562183 0.077473 0.114941
H223  H     H_    0.714343 0.936610 0.866864 0.126516
H224  H     H_    0.774147 0.964726 0.905045 0.120484
H225  H     H_    0.747294 0.870826 0.902803 0.149311
H226  H     H_    0.254870 0.127905 0.054612 0.100718
H227  H     H_    0.245109 0.219455 0.071522 0.142606
H228  H     H_    0.167271 0.156463 0.069393 0.169375
H229  H     H_    0.042790 0.252061 0.151276 0.139497
H230  H     H_    0.883477 0.358945 0.655092 0.255218
H231  H     H_    0.068465 0.163879 0.131245 0.108076
H232  H     H_    0.025859 0.231785 0.101190 0.149315
H233  H     H_    0.940222 0.813877 0.876832 0.163247
H234  H     H_    0.939963 0.716622 0.866136 0.132334
H235  H     H_    0.933388 0.747668 0.915275 0.132818
H236  H     H_    0.301505 0.859858 0.102986 0.113224
H237  H     H_    0.258683 0.784810 0.076857 0.148073
H238  H     H_    0.342434 0.824148 0.059820 0.143093
H239  H     H_    0.729236 0.110227 0.894505 0.104333
H240  H     H_    0.637662 0.111037 0.874857 0.133245
N1    N     N_3   0.279612 0.559515 0.719486 -0.570009
N2    N     N_3   0.855663 0.659842 0.661399 -0.620807
N3    N     N_3   0.410613 0.739362 0.317495 -0.604056
N4    N     N_3   0.711005 0.077255 0.685591 -0.613514
N5    N     N_3   0.716914 0.549865 0.249514 -0.588932
N6    N     N_3   0.203829 0.360021 0.663122 -0.608140
N7    N     N_3   0.577769 0.272679 0.299896 -0.563377
N8    N     N_3   0.330026 0.845730 0.666174 -0.597100
N9    N     N_3   0.771188 0.072563 0.201445 -0.559464
N10   N     N_3   0.360554 0.816945 0.835576 -0.607488
N11   N     N_3   0.950540 0.782894 0.250763 -0.596910
N12   N     N_3   0.873143 0.308843 0.332344 -0.626365
N13   N     N_3   0.133507 0.284983 0.835382 -0.606818
N14   N     N_3   0.398754 0.818223 0.177075 -0.601507
N15   N     N_3   0.601906 0.219882 0.819176 -0.598808
N16   N     N_3   0.164680 0.367115 0.165090 -0.598166
N17   N     N_3   0.806242 0.649942 0.831000 -0.588453
N18   N     N_3   0.786538 0.944769 0.785651 -0.589037
N19   N     N_3   0.357606 0.161729 0.161924 -0.619621
N20   N     N_3   0.906491 0.244244 0.820299 -0.597284
N21   N     N_3   0.194877 0.592955 0.176069 -0.626510
N22   N     N_3   0.219708 0.048722 0.743313 -0.587772
N23   N     N_3   0.449962 0.282550 0.751220 -0.610554
N24   N     N_3   0.703977 0.860044 0.163240 -0.606851
N25   N     N_3   0.068824 0.775126 0.791947 -0.565488
N26   N     N_3   0.817146 0.369852 0.169893 -0.602313
N27   N     N_3   0.366778 0.003641 0.603576 -0.564126
N28   N     N_3   0.632006 0.013978 0.395393 -0.575718
N29   N     N_3   0.028076 0.369140 0.603076 -0.555540
N30   N     N_3   0.962655 0.629425 0.395951 -0.561645
N31   N     N_3   0.630478 0.031128 0.602764 -0.524192
N32   N     N_3   0.369720 0.979358 0.394203 -0.605789
N33   N     N_3   0.010449 0.634441 0.602860 -0.564948
N34   N     N_3   0.640985 0.796128 0.337153 -0.601624
N35   N     N_3   0.037418 0.375146 0.394124 -0.610898
N36   N     N_3   0.871394 0.538750 0.104306 -0.566568
N37   N     N_3   0.125141 0.457025 0.897767 -0.562357
N38   N     N_3   0.531146 0.869595 0.103285 -0.558386
N39   N     N_3   0.461338 0.129727 0.895835 -0.560898
N40   N     N_3   0.132625 0.482302 0.100338 -0.576257
N41   N     N_3   0.872589 0.536521 0.894058 -0.614876
N42   N     N_3   0.510900 0.133934 0.102615 -0.565058
N43   N     N_3   0.539227 0.876149 0.894389 -0.609819
N44   N     N_3   0.895218 0.319399 0.676178 -0.595208
N45   N     N_3   0.105642 0.718611 0.319485 -0.597221
N46   N     N_3   0.660440 0.863813 0.663485 -0.600460
N47   N     N_3   0.302522 0.140559 0.330311 -0.591687
N48   N     N_3   0.284382 0.438758 0.291519 -0.585371
O1    O     O_3   0.000000 0.500000 0.750000 -0.433183
O2    O     O_R   0.060740 0.500000 0.337440 -0.556128
O3    O     O_3   0.461018 0.197781 0.960549 -0.529383
O4    O     O_R   0.500000 0.939260 0.662560 -0.560235
O5    O     O_R   0.500000 0.060740 0.337440 -0.574531
O6    O     O_R   0.560740 0.000000 0.162560 -0.558222
O7    O     O_R   0.439260 0.000000 0.837440 -0.552752
O8    O     O_R   1.000000 0.560740 0.162560 -0.554690
O9    O     O_R   0.000000 0.439260 0.837440 -0.564674
O10   O     O_R   0.439260 0.000000 0.162560 -0.564252
O11   O     O_R   0.560740 0.000000 0.837440 -0.551848
O12   O     O_R   1.000000 0.439260 0.162560 -0.553920
O13   O     O_3   0.000000 0.500000 0.250000 -0.432133
O14   O     O_R   0.000000 0.560740 0.837440 -0.546675
O15   O     O_R   0.853850 0.585450 0.727070 -0.549063
O16   O     O_R   0.146150 0.414550 0.272930 -0.561186
O17   O     O_R   0.414550 0.853850 0.727070 -0.528575
O18   O     O_R   0.585450 0.146150 0.272930 -0.528340
O19   O     O_R   0.146150 0.414550 0.727070 -0.553000
O20   O     O_R   0.853850 0.585450 0.272930 -0.549435
O21   O     O_R   0.585450 0.146150 0.727070 -0.559969
O22   O     O_R   0.414550 0.853850 0.272930 -0.558180
O23   O     O_R   0.853850 0.414550 0.272930 -0.554349
O24   O     O_3   0.500000 0.000000 0.750000 -0.431531
O25   O     O_R   0.146150 0.585450 0.727070 -0.525585
O26   O     O_R   0.414550 0.146150 0.272930 -0.547784
O27   O     O_R   0.585450 0.853850 0.727070 -0.522227
O28   O     O_R   0.146150 0.585450 0.272930 -0.566452
O29   O     O_R   0.853850 0.414550 0.727070 -0.504470
O30   O     O_R   0.585450 0.853850 0.272930 -0.558906
O31   O     O_R   0.414550 0.146150 0.727070 -0.548872
O32   O     O_R   0.353850 0.085450 0.227070 -0.549911
O33   O     O_R   0.646150 0.914550 0.772930 -0.560176
O34   O     O_R   0.914550 0.353850 0.227070 -0.533724
O35   O     O_3   0.500000 0.000000 0.250000 -0.432320
O36   O     O_R   0.085450 0.646150 0.772930 -0.521630
O37   O     O_R   0.646150 0.914550 0.227070 -0.549781
O38   O     O_R   0.353850 0.085450 0.772930 -0.549459
O39   O     O_R   0.085450 0.646150 0.227070 -0.561001
O40   O     O_R   0.914550 0.353850 0.772930 -0.562254
O41   O     O_R   0.353850 0.914550 0.772930 -0.560681
O42   O     O_R   0.646150 0.085450 0.227070 -0.520899
O43   O     O_R   0.914550 0.646150 0.772930 -0.551988
O44   O     O_R   0.085450 0.353850 0.227070 -0.524707
O45   O     O_R   0.646150 0.085450 0.772930 -0.570259
O46   O     O_R   0.060740 0.500000 0.662560 -0.558306
O47   O     O_R   0.353850 0.914550 0.227070 -0.508915
O48   O     O_R   0.085450 0.353850 0.772930 -0.559305
O49   O     O_R   0.914550 0.646150 0.227070 -0.549841
O50   O     O_3   0.103719 0.817828 0.868270 -0.595225
O51   O     O_3   0.822350 0.269096 0.109233 -0.581191
O52   O     O_3   0.111029 0.031349 0.798487 -0.573145
O53   O     O_3   0.839261 0.919207 0.144827 -0.558772
O54   O     O_3   0.827732 0.237556 0.890089 -0.535469
O55   O     O_3   0.255742 0.643088 0.108875 -0.549697
O56   O     O_3   0.823740 0.906505 0.861751 -0.555199
O57   O     O_R   0.939260 0.500000 0.337440 -0.548253
O58   O     O_3   0.241133 0.135230 0.113669 -0.569124
O59   O     O_3   0.132881 0.252336 0.113917 -0.568879
O60   O     O_3   0.840159 0.760378 0.883096 -0.571176
O61   O     O_3   0.352368 0.758461 0.108123 -0.561098
O62   O     O_3   0.680222 0.213243 0.888824 -0.534388
O63   O     O_3   0.962893 0.878913 0.188281 -0.549225
O64   O     O_3   0.068516 0.148653 0.845616 -0.560751
O65   O     O_3   0.806042 0.118309 0.125775 -0.556012
O66   O     O_3   0.250098 0.838113 0.889128 -0.551330
O67   O     O_3   0.624253 0.294423 0.377392 -0.539894
O68   O     O_R   0.500000 0.060740 0.662560 -0.549468
O69   O     O_3   0.350165 0.729253 0.615584 -0.598731
O70   O     O_3   0.618897 0.537519 0.310711 -0.542789
O71   O     O_3   0.339820 0.416356 0.644079 -0.529246
O72   O     O_3   0.334360 0.729834 0.388154 -0.537642
O73   O     O_3   0.774283 0.117209 0.617055 -0.536856
O74   O     O_3   0.314299 0.394373 0.367575 -0.550991
O75   O     O_3   0.737144 0.630312 0.614730 -0.564126
O76   O     O_3   0.628867 0.745888 0.614391 -0.595874
O77   O     O_3   0.328051 0.246479 0.385929 -0.552494
O78   O     O_3   0.859801 0.241061 0.610656 -0.564654
O79   O     O_R   0.500000 0.939260 0.337440 -0.545902
O80   O     O_3   0.186186 0.709071 0.388346 -0.532781
O81   O     O_3   0.462595 0.377077 0.687387 -0.552103
O82   O     O_3   0.581170 0.660300 0.354902 -0.566232
O83   O     O_3   0.336753 0.582730 0.644853 -0.542688
O84   O     O_3   0.770916 0.309990 0.392867 -0.520201
O85   O     O_3   0.695857 0.042159 0.537352 -0.515744
O86   O     O_3   0.299212 0.993856 0.461459 -0.569587
O87   O     O_3   0.973610 0.698836 0.538801 -0.528618
O88   O     O_3   0.046346 0.305287 0.461822 -0.573770
O89   O     O_3   0.302023 0.975298 0.539490 -0.520998
O90   O     O_R   0.939260 0.500000 0.662560 -0.560617
O91   O     O_3   0.698409 0.015930 0.460242 -0.534803
O92   O     O_3   0.068226 0.311640 0.539403 -0.516286
O93   O     O_3   0.964943 0.698193 0.460318 -0.531386
O94   O     O_3   0.172521 0.404816 0.041098 -0.521933
O95   O     O_3   0.808015 0.564544 0.961618 -0.573195
O96   O     O_3   0.472184 0.198383 0.039006 -0.532880
O97   O     O_3   0.527184 0.802911 0.961388 -0.573106
O98   O     O_3   0.802813 0.543387 0.039673 -0.529412
O99   O     O_3   0.166725 0.393343 0.961150 -0.536459
O100  O     O_3   0.549641 0.806088 0.038815 -0.510160
Zn1   Zn    Zn3+2 0.000000 0.586740 0.782740 0.921285
Zn2   Zn    Zn3+2 0.500000 0.913260 0.717260 0.922263
Zn3   Zn    Zn3+2 0.913260 0.500000 0.282740 0.921671
Zn4   Zn    Zn3+2 0.086740 0.500000 0.717260 0.915397
Zn5   Zn    Zn3+2 0.500000 0.913260 0.282740 0.915055
Zn6   Zn    Zn3+2 0.500000 0.086740 0.717260 0.905479
Zn7   Zn    Zn3+2 0.086740 0.500000 0.282740 0.889400
Zn8   Zn    Zn3+2 0.913260 0.500000 0.717260 0.929964
Zn9   Zn    Zn3+2 1.000000 0.413260 0.217260 0.923167
Zn10  Zn    Zn3+2 0.413260 0.000000 0.782740 0.915463
Zn11  Zn    Zn3+2 0.586740 0.000000 0.217260 0.914849
Zn12  Zn    Zn3+2 0.000000 0.413260 0.782740 0.908426
Zn13  Zn    Zn3+2 1.000000 0.586740 0.217260 0.904593
Zn14  Zn    Zn3+2 0.586740 0.000000 0.782740 0.889719
Zn15  Zn    Zn3+2 0.413260 0.000000 0.217260 0.927560
Zn16  Zn    Zn3+2 0.500000 0.086740 0.282740 0.905600

loop_
_geom_bond_atom_site_label_1
_geom_bond_atom_site_label_2
_ccdc_geom_bond_type
C145  H58   S    
C225  C247  A    
C137  H32   S    
C223  N39   S    
C177  C191  A    
C221  C234  A    
C117  O52   S    
C15   O12   A    
H146  N4    S    
C211  C242  A    
C218  C240  A    
C106  C243  A    
C132  O67   S    
C181  C187  A    
C38   C171  A    
C33   C208  S    
C156  H126  S    
C152  O87   S    
C161  O96   S    
C160  H137  S    
C125  O60   S    
C66   N24   S    
C63   C98   A    
O43   Zn1   S    
C135  C199  A    
O40   Zn12  S    
C128  O63   S    
C18   O44   A    
H97   N40   S    
C104  O51   S    
C59   C186  A    
C64   N21   S    
C175  C210  A    
O1    Zn1   S    
C159  H134  S    
C140  H41   S    
C121  H225  S    
C50   C90   A    
C22   O20   A    
C90   C195  A    
C45   N3    S    
C33   O38   A    
H68   N47   S    
C155  H123  S    
C78   O74   S    
C164  H149  S    
C149  H67   S    
C25   O47   A    
C228  C236  A    
C145  O81   S    
C91   C100  A    
C165  O100  S    
C169  C204  A    
C219  C232  A    
C145  H56   S    
C148  H64   S    
C131  H14   S    
C54   N11   S    
C152  H111  S    
H208  N34   S    
H163  N7    S    
H198  N24   S    
O24   Zn6   S    
O17   Zn2   S    
C40   C169  A    
H75   N29   S    
C143  H52   S    
C141  H43   S    
C112  O86   S    
C85   O67   S    
H78   N31   S    
H159  N5    S    
C17   O43   A    
C160  O95   S    
H182  N16   S    
C192  C195  A    
H186  N23   S    
C94   C97   A    
C93   O62   S    
C125  H235  S    
H85   N35   S    
C84   O71   S    
C39   N44   S    
C133  O69   S    
C2    C247  A    
C211  N27   S    
C25   C199  S    
C158  O93   S    
C7    C223  A    
C129  H8    S    
O35   Zn15  S    
C116  H209  S    
O29   Zn8   S    
H192  N21   S    
C31   O29   A    
C115  H205  S    
C72   C84   A    
C162  H143  S    
C54   C89   A    
C219  N35   S    
H112  N1    S    
C126  H238  S    
H183  N17   S    
C106  C239  A    
C143  O78   S    
C15   O8    A    
C120  H222  S    
C42   C167  A    
C156  H128  S    
C81   O72   S    
C30   O28   A    
H80   N31   S    
C41   N46   S    
C121  O56   S    
C165  H153  S    
O28   Zn7   S    
H135  N3    S    
C31   O40   A    
C166  H158  S    
C45   C81   A    
C43   N48   S    
C99   O55   S    
O19   Zn4   S    
C32   O37   A    
C130  H12   S    
C91   O64   S    
C5    C46   A    
C90   C174  A    
C188  C199  A    
H86   N35   S    
C238  O94   S    
C152  H115  S    
C41   C76   A    
C83   O70   S    
C189  C196  A    
C107  C240  A    
C166  O3    S    
C138  H33   S    
O35   Zn11  S    
C8    C231  S    
C164  H151  S    
C18   C201  S    
C21   C196  S    
C146  C200  A    
O42   Zn11  S    
C60   C95   A    
O13   Zn7   S    
C116  O51   S    
H84   N33   S    
C53   N10   S    
H175  N12   S    
C105  C237  A    
C156  O92   S    
C22   O49   A    
C120  O55   S    
C142  H48   S    
C3    C228  A    
C73   C83   A    
C27   O25   A    
C190  C197  A    
C6    C222  A    
C220  N36   S    
C110  C247  A    
C33   O31   A    
C4    C109  A    
C63   C181  A    
C44   N2    S    
C116  H206  S    
C6    C111  A    
C22   C197  S    
C101  C173  A    
C65   N22   S    
C161  H139  S    
C127  H239  S    
C73   O82   S    
C61   C96   A    
C67   C103  A    
C149  H66   S    
C71   O84   S    
C151  H109  S    
C225  C234  A    
C55   C189  A    
C49   C84   A    
C20   O42   A    
C62   N19   S    
H194  N22   S    
C129  H9    S    
C27   O36   A    
C172  C227  A    
C39   C74   A    
C5    C110  A    
O10   Zn15  S    
C164  O99   S    
C212  C230  A    
C184  C185  A    
C147  H62   S    
C47   N4    S    
C17   O15   A    
C167  C202  A    
O1    Zn12  S    
C115  H203  S    
C142  O77   S    
H95   N39   S    
C132  H17   S    
C154  H119  S    
H165  N7    S    
C64   C99   A    
C126  H236  S    
C24   C57   A    
C108  C241  A    
C130  O65   S    
C128  H6    S    
C107  C108  A    
C215  C237  A    
C160  H136  S    
C180  C188  A    
C123  H232  S    
H169  N9    S    
C213  C231  A    
C101  C196  A    
C8    O90   A    
C150  O85   S    
O31   Zn6   S    
C135  C169  A    
C7    C68   A    
O13   Zn13  S    
H230  N44   S    
O39   Zn13  S    
C137  O72   S    
C166  H156  S    
C3    C24   A    
C225  N41   S    
O7    Zn10  S    
C32   O30   A    
C130  H10   S    
C151  H108  S    
C131  H15   S    
C216  C244  A    
C45   C135  A    
C187  C198  A    
O18   Zn16  S    
C222  N38   S    
C220  C233  A    
H99   N41   S    
H13   N45   S    
C111  C248  A    
O47   Zn15  S    
C155  H125  S    
C226  N42   S    
C1    C237  A    
C117  H211  S    
C147  H60   S    
C163  O98   S    
C139  H38   S    
H179  N15   S    
H195  N22   S    
C123  O59   S    
C177  C210  A    
H71   N27   S    
C217  C230  A    
C62   C97   A    
C123  H229  S    
C149  H69   S    
C179  C189  A    
C153  H117  S    
C13   C248  A    
H87   N36   S    
C112  C194  A    
C122  H228  S    
C26   O23   A    
O15   Zn8   S    
C172  C240  A    
C144  H55   S    
C224  C246  A    
C58   N15   S    
C126  O61   S    
O16   Zn7   S    
O6    Zn11  S    
C75   O80   S    
C163  H148  S    
C82   O73   S    
O13   Zn9   S    
C46   O99   S    
C136  H27   S    
C157  C201  A    
C228  N43   S    
C171  C207  A    
C147  O82   S    
C161  H141  S    
H83   N33   S    
O46   Zn4   S    
O45   Zn14  S    
O5    Zn16  S    
C34   C70   A    
C137  H31   S    
C61   C184  A    
C54   C190  A    
C12   O6    A    
C58   C187  A    
H174  N13   S    
O90   Zn8   S    
C35   O98   S    
C76   C80   A    
C29   O33   A    
C61   N18   S    
C43   C157  A    
C3    C114  A    
H102  N42   S    
C20   O18   A    
C36   C71   A    
O23   Zn3   S    
C59   N16   S    
C165  H152  S    
C76   O76   S    
H79   N48   S    
C79   C193  A    
C48   C83   A    
C68   O3    S    
O38   Zn10  S    
C160  H138  S    
C181  C206  A    
O8    Zn13  S    
C217  N32   S    
C57   O100  S    
C133  H22   S    
C131  O66   S    
H185  N18   S    
H124  N3    S    
C24   O97   S    
C212  N28   S    
O33   Zn14  S    
C214  C245  A    
H199  N25   S    
C51   C79   A    
C152  H114  S    
C223  C236  A    
C159  H133  S    
C140  H42   S    
C121  H224  S    
C92   O61   S    
C143  H50   S    
C42   C77   A    
C16   O14   A    
C134  H25   S    
C164  H150  S    
H178  N14   S    
C140  O75   S    
C183  C241  A    
C134  O70   S    
C205  C243  A    
C56   N14   S    
O2    Zn7   S    
H72   N28   S    
C92   C99   A    
H166  N8    S    
O13   Zn3   S    
C13   C68   A    
H82   N32   S    
C2    C35   A    
C144  H53   S    
C12   C235  S    
O20   Zn3   S    
C36   C174  A    
C60   C185  A    
C224  N40   S    
C174  C209  A    
C23   O45   A    
C148  O83   S    
C214  C232  A    
O12   Zn9   S    
C157  C167  A    
O22   Zn5   S    
H76   N30   S    
C28   O32   A    
C143  H51   S    
C77   C78   A    
C43   C78   A    
C23   C198  S    
C67   N25   S    
H168  N9    S    
C9    C232  S    
C23   O21   A    
C7    C114  A    
C219  C241  A    
O36   Zn1   S    
C58   C93   A    
H94   N39   S    
C170  C206  A    
C212  C243  A    
C28   O26   A    
C49   C101  A    
C178  C190  A    
C102  O53   S    
O26   Zn16  S    
H57   N47   S    
C125  H234  S    
C41   C168  A    
C124  C198  A    
C118  O53   S    
C221  N37   S    
C176  C209  A    
H171  N10   S    
C182  C186  A    
O25   Zn4   S    
C119  H218  S    
C55   C91   A    
C34   C175  A    
C122  H226  S    
C50   C85   A    
C21   O19   A    
C214  N30   S    
H160  N5    S    
C129  H7    S    
C4    C220  A    
C216  O92   S    
C138  O73   S    
H167  N8    S    
C159  O94   S    
C59   C94   A    
H177  N14   S    
C227  O93   S    
C217  C239  A    
C20   C195  S    
O41   Zn10  S    
H81   N32   S    
C162  H144  S    
C145  H59   S    
H176  N13   S    
C38   N34   S    
C4    C35   A    
O21   Zn6   S    
C184  C203  A    
C205  O91   S    
C52   N9    S    
O57   Zn3   S    
O27   Zn2   S    
C6    C57   A    
C74   C82   A    
C95   O60   S    
C51   C86   A    
O4    Zn2   S    
C159  H132  S    
C162  O97   S    
C213  C244  A    
O34   Zn9   S    
C222  C235  A    
C154  H121  S    
H157  N4    S    
C44   C80   A    
C55   N13   S    
C14   O11   A    
H187  N18   S    
C65   C179  A    
C37   N23   S    
C142  H47   S    
C108  C245  A    
C27   C210  S    
C186  C201  A    
C215  C229  A    
C120  H220  S    
C191  C193  A    
C16   O9    A    
C227  C245  A    
C141  H45   S    
C16   C234  S    
C127  O62   S    
C178  C207  A    
C138  H34   S    
C141  O76   S    
H89   N37   S    
C48   N5    S    
C139  H39   S    
C140  H40   S    
C226  C248  A    
C53   C191  A    
H77   N30   S    
C136  O71   S    
C148  H63   S    
C50   N7    S    
H189  N19   S    
C107  C244  A    
C149  O84   S    
H100  N42   S    
C105  C242  A    
C13   O96   S    
O37   Zn11  S    
C141  H44   S    
C29   O27   A    
C144  H54   S    
C183  C216  A    
O32   Zn15  S    
C146  C168  A    
C179  C208  A    
O35   Zn5   S    
C211  C229  A    
C182  C202  A    
H90   N48   S    
C65   C100  A    
C180  C204  A    
C2    O95   S    
C158  H129  S    
C51   N8    S    
H101  N2    S    
C105  C106  A    
H162  N6    S    
C8    O46   A    
H188  N19   S    
C40   C75   A    
O24   Zn14  S    
C28   C202  S    
C63   N20   S    
C119  O54   S    
C109  C110  A    
O9    Zn12  S    
C47   C124  A    
O49   Zn13  S    
O35   Zn16  S    
C139  O74   S    
C111  C114  A    
H219  N34   S    
O48   Zn12  S    
C162  H142  S    
C132  H18   S    
C87   C104  A    
C154  H120  S    
C126  H237  S    
C11   O5    A    
C97   O58   S    
C37   C72   A    
C11   O79   A    
C150  H107  S    
C153  O88   S    
C120  H221  S    
H172  N11   S    
C123  H231  S    
C25   O22   A    
C144  O80   S    
C9    O57   A    
C48   C113  A    
C132  H19   S    
C156  H127  S    
C5    C221  A    
C122  O58   S    
C29   C203  S    
C89   C102  A    
C12   O10   A    
H113  N2    S    
C66   C102  A    
C77   O77   S    
C95   C96   A    
C224  C233  A    
C129  O64   S    
C14   C236  S    
C130  H11   S    
C103  O50   S    
C113  C171  A    
C158  H131  S    
C66   C178  A    
C128  H4    S    
H161  N6    S    
O24   Zn10  S    
O44   Zn9   S    
C86   O69   S    
O1    Zn4   S    
C40   N45   S    
C39   C170  A    
C70   O83   S    
C142  H49   S    
O11   Zn14  S    
H193  N21   S    
C60   N17   S    
C64   C180  A    
C176  C192  A    
C62   C182  A    
C117  H210  S    
C155  H122  S    
H103  N43   S    
C139  H37   S    
C17   C200  S    
C52   C192  A    
C47   C82   A    
H91   N37   S    
C18   O16   A    
H191  N20   S    
C98   O54   S    
H190  N20   S    
H164  N12   S    
C1    O85   S    
C148  H65   S    
C71   C85   A    
H46   N46   S    
C56   C188  A    
C153  H116  S    
C44   C146  A    
H173  N11   S    
C69   C176  A    
C88   C103  A    
C173  C208  A    
H74   N29   S    
C1    C205  A    
C74   O78   S    
C118  H215  S    
C10   O68   A    
O68   Zn6   S    
C42   N47   S    
C147  H61   S    
C136  H28   S    
C161  H140  S    
C127  H240  S    
H96   N40   S    
C9    O2    A    
H201  N26   S    
H35   N46   S    
H1    N1    S    
C118  H214  S    
C137  H30   S    
C151  H110  S    
C96   O56   S    
C21   O48   A    
C115  O50   S    
C79   C175  A    
H196  N24   S    
H73   N28   S    
H200  N25   S    
C31   C206  S    
C67   C177  A    
H184  N17   S    
C151  O86   S    
C75   C81   A    
C119  H216  S    
H180  N15   S    
C134  H23   S    
C34   N1    S    
O24   Zn2   S    
C10   C229  S    
C163  H145  S    
C226  C235  A    
C158  H130  S    
C69   N26   S    
H202  N26   S    
H93   N38   S    
C115  H204  S    
H24   N45   S    
O79   Zn5   S    
C133  H21   S    
C238  C246  A    
C165  H154  S    
C112  C239  A    
C15   C233  S    
C128  H5    S    
C154  O89   S    
C94   O59   S    
H197  N23   S    
C150  H105  S    
C32   C207  S    
C26   O34   A    
C53   C88   A    
C150  H106  S    
C121  H223  S    
H181  N16   S    
C88   O66   S    
C109  C246  A    
C19   C193  S    
C11   C230  S    
C87   O65   S    
C14   O7    A    
C134  H26   S    
C166  H155  S    
H170  N10   S    
C138  H36   S    
C70   C86   A    
C172  O87   S    
C218  N33   S    
C133  H20   S    
C131  H16   S    
C69   C104  A    
C10   O4    A    
H104  N43   S    
O30   Zn5   S    
C194  C242  A    
H88   N36   S    
C52   C87   A    
C155  O91   S    
C194  O89   S    
H2    N44   S    
C183  O88   S    
C117  H212  S    
C30   C204  S    
C168  C203  A    
H92   N38   S    
C163  H147  S    
H98   N41   S    
C136  H29   S    
C49   N6    S    
C80   O75   S    
C153  H118  S    
C125  H233  S    
C93   C98   A    
C19   O41   A    
C26   C209  S    
C127  H3    S    
O14   Zn1   S    
C46   C238  A    
C185  C200  A    
C218  C231  A    
C119  H217  S    
C122  H227  S    
C37   C173  A    
C36   N12   S    
C215  N31   S    
C56   C92   A    
C118  H213  S    
C124  C170  A    
C72   O81   S    
C213  N29   S    
C89   O63   S    
C116  H207  S    
C113  C197  A    
C30   O39   A    
O1    Zn8   S    
H70   N27   S    
C19   O17   A    
C100  O52   S    
C38   C73   A    
