data_mof_unit_12815.cif
_audit_creation_date              2012-12-11T14:07:22-0500
_audit_creation_method            fapswitch 2.2
_symmetry_space_group_name_H-M    P1
_symmetry_Int_Tables_number       1
_space_group_crystal_system       triclinic
_cell_length_a                    19.681586
_cell_length_b                    17.073333
_cell_length_c                    15.471864
_cell_angle_alpha                 90.00035
_cell_angle_beta                  53.49748
_cell_angle_gamma                 90.000507
_cell_volume                      4179.12758725

loop_
_atom_site_label
_atom_site_type_symbol
_atom_type_description
_atom_site_fract_x
_atom_site_fract_y
_atom_site_fract_z
_atom_type_partial_charge
C1    C     C_R   0.342596 0.178571 0.039467 -0.070681
C2    C     C_R   0.361513 0.808052 0.013681 -0.095239
C3    C     C_R   0.861514 0.691949 0.013676 -0.095258
C4    C     C_R   0.842597 0.321427 0.039465 -0.070684
C5    C     C_R   0.672966 0.916357 0.043397 0.460123
C6    C     C_R   0.621272 0.111381 0.117079 0.605311
C7    C     C_R   0.121270 0.388615 0.117079 0.605342
C8    C     C_R   0.172969 0.583642 0.043391 0.460066
C9    C     C_R   0.642841 0.189588 0.079983 -0.111980
C10   C     C_R   0.715421 0.857024 0.966159 -0.059957
C11   C     C_R   0.215420 0.642980 0.966159 -0.059913
C12   C     C_R   0.142837 0.310407 0.079981 -0.111980
C13   C     C_R   0.609105 0.816918 0.697092 0.104386
C14   C     C_R   0.613528 0.182046 0.696390 0.080899
C15   C     C_R   0.113527 0.317953 0.696390 0.080901
C16   C     C_R   0.109109 0.683083 0.697093 0.104389
C17   C     C_3   0.219061 0.139012 0.517388 -0.397278
C18   C     C_3   0.203954 0.867170 0.521069 -0.411172
C19   C     C_3   0.703911 0.632828 0.521056 -0.411130
C20   C     C_3   0.719056 0.360989 0.517387 -0.397276
C21   C     C_3   0.157948 0.183261 0.622481 -0.352622
C22   C     C_3   0.146212 0.820332 0.625555 -0.319784
C23   C     C_3   0.646187 0.679668 0.625548 -0.319740
C24   C     C_3   0.657943 0.316739 0.622480 -0.352618
C25   C     C_3   0.319998 0.254889 0.443844 -0.367938
C26   C     C_3   0.308348 0.754197 0.440298 -0.386951
C27   C     C_3   0.808349 0.745768 0.440332 -0.386929
C28   C     C_3   0.819998 0.245116 0.443848 -0.367923
C29   C     C_3   0.691449 0.737418 0.417329 -0.476602
C30   C     C_3   0.706935 0.255939 0.413870 -0.392972
C31   C     C_3   0.206932 0.244055 0.413872 -0.392978
C32   C     C_3   0.191417 0.762621 0.417359 -0.476602
C33   C     C_3   0.270614 0.198197 0.422465 0.250304
C34   C     C_3   0.255656 0.810362 0.423398 0.315749
C35   C     C_3   0.755653 0.689639 0.423395 0.315723
C36   C     C_3   0.770613 0.301804 0.422466 0.250287
C37   C     C_3   0.657468 0.768672 0.599803 0.198093
C38   C     C_3   0.666135 0.227558 0.598936 0.198937
C39   C     C_3   0.166135 0.272442 0.598935 0.198944
C40   C     C_3   0.157471 0.731329 0.599806 0.198110
C41   C     C_3   0.751176 0.790859 0.544722 -0.477519
C42   C     C_3   0.758403 0.201361 0.548341 -0.467656
C43   C     C_3   0.258402 0.298645 0.548336 -0.467660
C44   C     C_3   0.251177 0.709122 0.544704 -0.477491
C45   C     C_R   0.355484 0.822247 0.220684 -0.139655
C46   C     C_R   0.366149 0.185554 0.220522 -0.116534
C47   C     C_R   0.866148 0.314446 0.220522 -0.116541
C48   C     C_R   0.855483 0.677751 0.220682 -0.139641
C49   C     C_3   0.634565 0.786263 0.520728 0.372180
C50   C     C_3   0.645273 0.210651 0.517941 0.358643
C51   C     C_3   0.145268 0.289342 0.517943 0.358643
C52   C     C_3   0.134546 0.713760 0.520747 0.372155
C53   C     C_2   0.280153 0.694567 0.950475 0.489910
C54   C     C_2   0.173353 0.246888 0.114802 0.440688
C55   C     C_2   0.673360 0.253102 0.114807 0.440681
C56   C     C_2   0.780154 0.805435 0.950474 0.489929
C57   C     C_2   0.702637 0.321706 0.059427 -0.147172
C58   C     C_2   0.761276 0.728485 0.976548 -0.218033
C59   C     C_2   0.261263 0.771511 0.976582 -0.218078
C60   C     C_2   0.202643 0.178290 0.059407 -0.147154
C61   C     C_R   0.350575 0.894391 0.915883 -0.098598
C62   C     C_R   0.329020 0.084791 0.952908 -0.122471
C63   C     C_R   0.829019 0.415206 0.952910 -0.122451
C64   C     C_R   0.850580 0.605606 0.915875 -0.098582
C65   C     C_R   0.376058 0.093420 0.315505 -0.082805
C66   C     C_R   0.365367 0.913628 0.316062 -0.117454
C67   C     C_R   0.865365 0.586372 0.316063 -0.117473
C68   C     C_R   0.876057 0.406581 0.315505 -0.082802
C69   C     C_R   0.286906 0.147969 0.020923 0.122837
C70   C     C_R   0.322912 0.822695 0.966369 0.177683
C71   C     C_R   0.822919 0.677304 0.966355 0.177653
C72   C     C_R   0.786905 0.352028 0.020926 0.122827
C73   C     C_R   0.316361 0.852649 0.323195 0.016751
C74   C     C_R   0.331818 0.158034 0.322828 0.022160
C75   C     C_R   0.831817 0.341966 0.322828 0.022165
C76   C     C_R   0.816359 0.647350 0.323193 0.016748
C77   C     C_R   0.624497 0.199707 0.007777 -0.252249
C78   C     C_R   0.665165 0.831324 0.938514 -0.211907
C79   C     C_R   0.165158 0.668690 0.938528 -0.211903
C80   C     C_R   0.124494 0.300292 0.007775 -0.252272
C81   C     C_R   0.599964 0.801400 0.791205 -0.113246
C82   C     C_R   0.603803 0.197788 0.790643 -0.125750
C83   C     C_R   0.103803 0.302212 0.790643 -0.125755
C84   C     C_R   0.099966 0.698600 0.791207 -0.113212
C85   C     C_R   0.594730 0.104540 0.696040 -0.128702
C86   C     C_R   0.593287 0.895226 0.696279 -0.133543
C87   C     C_R   0.093289 0.604774 0.696278 -0.133550
C88   C     C_R   0.094730 0.395460 0.696040 -0.128700
H1    H     H_    0.338289 0.233668 0.075580 0.150877
H2    H     H_    0.361923 0.753229 0.047971 0.137831
H3    H     H_    0.861923 0.746772 0.047966 0.137875
H4    H     H_    0.838293 0.266331 0.075576 0.150883
H5    H     H_    0.183313 0.098002 0.502082 0.178710
H6    H     H_    0.165392 0.907427 0.509680 0.181026
H7    H     H_    0.665330 0.592612 0.509651 0.181062
H8    H     H_    0.683309 0.401995 0.502079 0.178710
H9    H     H_    0.579216 0.661857 0.666941 0.242785
H10   H     H_    0.592065 0.337105 0.661285 0.209588
H11   H     H_    0.092071 0.162891 0.661290 0.209588
H12   H     H_    0.079247 0.838159 0.666941 0.242773
H13   H     H_    0.174593 0.168939 0.677846 0.147273
H14   H     H_    0.163774 0.835232 0.679843 0.142947
H15   H     H_    0.663751 0.664753 0.679829 0.142936
H16   H     H_    0.674582 0.331067 0.677850 0.147276
H17   H     H_    0.366035 0.222068 0.449718 0.212370
H18   H     H_    0.356020 0.787319 0.442589 0.186076
H19   H     H_    0.855982 0.712616 0.442667 0.186058
H20   H     H_    0.866034 0.277942 0.449723 0.212371
H21   H     H_    0.769562 0.777503 0.598765 0.204611
H22   H     H_    0.774820 0.212941 0.604780 0.208522
H23   H     H_    0.274822 0.287071 0.604774 0.208521
H24   H     H_    0.269581 0.722480 0.598729 0.204629
H25   H     H_    0.724259 0.778362 0.347948 0.147733
H26   H     H_    0.740277 0.212716 0.347250 0.182539
H27   H     H_    0.240270 0.287277 0.347252 0.182535
H28   H     H_    0.224194 0.721693 0.347960 0.147723
H29   H     H_    0.653346 0.696919 0.405452 0.209158
H30   H     H_    0.672716 0.297515 0.396866 0.247219
H31   H     H_    0.172713 0.202476 0.396870 0.247220
H32   H     H_    0.153305 0.803149 0.405533 0.209172
H33   H     H_    0.647002 0.848890 0.496504 0.069036
H34   H     H_    0.654633 0.147576 0.496110 0.079465
H35   H     H_    0.154623 0.352417 0.496113 0.079463
H36   H     H_    0.146981 0.651136 0.496506 0.069050
H37   H     H_    0.356490 0.297602 0.376561 0.159660
H38   H     H_    0.342952 0.711926 0.372455 0.154885
H39   H     H_    0.842997 0.788028 0.372485 0.154894
H40   H     H_    0.856494 0.202403 0.376566 0.159672
H41   H     H_    0.340783 0.768214 0.199568 0.100833
H42   H     H_    0.356716 0.241924 0.198046 0.118740
H43   H     H_    0.856716 0.258076 0.198045 0.118749
H44   H     H_    0.840782 0.731781 0.199562 0.100858
H45   H     H_    0.761186 0.854818 0.527064 0.169680
H46   H     H_    0.765846 0.137246 0.531629 0.168564
H47   H     H_    0.265841 0.362759 0.531622 0.168560
H48   H     H_    0.261169 0.645161 0.527062 0.169676
H49   H     H_    0.338671 0.920386 0.862374 0.107638
H50   H     H_    0.307072 0.046116 0.919525 0.107540
H51   H     H_    0.807068 0.453879 0.919529 0.107531
H52   H     H_    0.838680 0.579609 0.862363 0.107642
H53   H     H_    0.377117 0.066151 0.377388 0.120004
H54   H     H_    0.361647 0.942343 0.380502 0.100326
H55   H     H_    0.861641 0.557660 0.380507 0.100318
H56   H     H_    0.877116 0.433851 0.377388 0.119998
H57   H     H_    0.621052 0.251863 0.972683 0.163577
H58   H     H_    0.678705 0.784486 0.883559 0.139199
H59   H     H_    0.178686 0.715546 0.883600 0.139183
H60   H     H_    0.121041 0.248140 0.972682 0.163603
H61   H     H_    0.601531 0.744916 0.821439 0.100461
H62   H     H_    0.609318 0.253185 0.819708 0.100640
H63   H     H_    0.109316 0.246815 0.819708 0.100657
H64   H     H_    0.101530 0.755083 0.821445 0.100469
H65   H     H_    0.591376 0.073092 0.638154 0.114211
H66   H     H_    0.589743 0.926807 0.638607 0.113079
H67   H     H_    0.089749 0.573195 0.638601 0.113069
H68   H     H_    0.091378 0.426907 0.638153 0.114201
H69   H     H_    0.260763 0.103212 0.527888 0.156705
H70   H     H_    0.245787 0.903920 0.530250 0.154783
H71   H     H_    0.745715 0.596035 0.530240 0.154743
H72   H     H_    0.760756 0.396792 0.527888 0.156704
N1    N     N_R   0.408680 0.130160 0.995800 -0.056073
N2    N     N_R   0.408680 0.869840 0.995800 -0.052721
N3    N     N_R   0.908680 0.630160 0.995800 -0.052725
N4    N     N_R   0.908680 0.369840 0.995800 -0.056074
N5    N     N_R   0.421680 0.867580 0.153120 -0.041129
N6    N     N_R   0.421680 0.132420 0.153120 -0.048369
N7    N     N_R   0.921680 0.367580 0.153120 -0.048370
N8    N     N_R   0.921680 0.632420 0.153120 -0.041131
N9    N     N_R   0.403730 0.921770 0.935950 -0.051475
N10   N     N_R   0.403730 0.078230 0.935950 -0.044699
N11   N     N_R   0.903730 0.421770 0.935950 -0.044701
N12   N     N_R   0.903730 0.578230 0.935950 -0.051479
N13   N     N_R   0.426630 0.075970 0.212960 -0.038925
N14   N     N_R   0.426630 0.924030 0.212960 -0.034281
N15   N     N_R   0.926630 0.575970 0.212960 -0.034281
N16   N     N_R   0.926630 0.424030 0.212960 -0.038926
N17   N     N_R   0.591320 0.134600 0.004200 -0.068525
N18   N     N_R   0.591320 0.865400 0.004200 -0.065277
N19   N     N_R   0.091320 0.634600 0.004200 -0.065283
N20   N     N_R   0.091320 0.365400 0.004200 -0.068529
N21   N     N_R   0.578320 0.867660 0.846880 -0.041506
N22   N     N_R   0.578320 0.132340 0.846880 -0.039055
N23   N     N_R   0.078320 0.367660 0.846880 -0.039055
N24   N     N_R   0.078320 0.632340 0.846880 -0.041507
N25   N     N_R   0.573370 0.074390 0.787040 -0.043873
N26   N     N_R   0.573370 0.925610 0.787040 -0.043872
N27   N     N_R   0.073370 0.574390 0.787040 -0.043871
N28   N     N_R   0.073370 0.425610 0.787040 -0.043871
N29   N     N_R   0.596270 0.927870 0.064040 -0.089813
N30   N     N_R   0.596270 0.072130 0.064040 -0.108101
N31   N     N_R   0.096270 0.427870 0.064040 -0.108092
N32   N     N_R   0.096270 0.572130 0.064040 -0.089805
Ni1   Ni    Ni4+2 0.500000 0.131190 0.000000 0.215812
Ni2   Ni    Ni4+2 0.500000 0.868810 0.000000 0.229920
Ni3   Ni    Ni4+2 0.000000 0.631190 0.000000 0.229926
Ni4   Ni    Ni4+2 0.000000 0.368810 0.000000 0.215813
Ni5   Ni    Ni4+2 0.488650 1.000000 0.862740 0.239825
Ni6   Ni    Ni4+2 0.988650 0.500000 0.862740 0.239821
Ni7   Ni    Ni4+2 0.511350 1.000000 0.137260 0.296727
Ni8   Ni    Ni4+2 0.011350 0.500000 0.137260 0.296716
Cl1   Cl    Cl    0.524813 0.769021 0.581097 -0.645723
Cl2   Cl    Cl    0.537659 0.233520 0.572230 -0.627618
Cl3   Cl    Cl    0.037654 0.266464 0.572237 -0.627612
Cl4   Cl    Cl    0.024790 0.731005 0.581150 -0.645763
Cl5   Cl    Cl    0.383643 0.656294 0.881145 -0.631049
Cl6   Cl    Cl    0.181834 0.265584 0.219936 -0.654694
Cl7   Cl    Cl    0.681848 0.234399 0.219932 -0.654706
Cl8   Cl    Cl    0.883633 0.843726 0.881201 -0.631018
C89   C     C_R   0.650534 0.367210 0.035833 0.117442
C90   C     C_R   0.565017 0.382326 0.119287 -0.122072
C91   C     C_R   0.512403 0.416293 0.096963 -0.123396
C92   C     C_R   0.544471 0.435554 0.991314 -0.095500
C93   C     C_R   0.629596 0.422404 0.908004 -0.140321
C94   C     C_R   0.682483 0.388214 0.929745 -0.187487
H73   H     H_    0.538645 0.366023 0.201302 0.132492
H74   H     H_    0.446469 0.426834 0.161471 0.126228
H75   H     H_    0.503365 0.460981 0.974044 0.141100
H76   H     H_    0.654149 0.436937 0.826125 0.118965
H77   H     H_    0.746608 0.373529 0.863027 0.137161
C95   C     C_R   0.673475 0.697646 0.043845 0.107474
C96   C     C_R   0.644330 0.649533 0.998661 -0.151493
C97   C     C_R   0.559774 0.625941 0.060711 -0.074141
C98   C     C_R   0.505064 0.646956 0.169094 -0.103548
C99   C     C_R   0.534551 0.692749 0.215342 -0.094425
C100  C     C_R   0.618319 0.718565 0.152834 -0.119457
H78   H     H_    0.686097 0.633089 0.914641 0.111216
H79   H     H_    0.536344 0.592232 0.024484 0.126226
H80   H     H_    0.439868 0.627866 0.216939 0.106174
H81   H     H_    0.492546 0.708840 0.299311 0.125561
H82   H     H_    0.640171 0.755239 0.188889 0.138847
C101  C     C_R   0.173452 0.802323 0.043965 0.107443
C102  C     C_R   0.118338 0.781334 0.152934 -0.119512
C103  C     C_R   0.034574 0.807155 0.215535 -0.094377
C104  C     C_R   0.005047 0.853029 0.169404 -0.103620
C105  C     C_R   0.059711 0.874108 0.061041 -0.074162
C106  C     C_R   0.144263 0.850501 0.998894 -0.151389
H83   H     H_    0.140224 0.744608 0.188902 0.138898
H84   H     H_    0.992603 0.791013 0.299489 0.125624
H85   H     H_    0.939858 0.872134 0.217325 0.106148
H86   H     H_    0.036248 0.907882 0.024909 0.126277
H87   H     H_    0.185996 0.867001 0.914892 0.111218
C107  C     C_R   0.150571 0.132796 0.035751 0.117406
C108  C     C_R   0.182559 0.111821 0.929639 -0.187484
C109  C     C_R   0.129705 0.077635 0.907839 -0.140324
C110  C     C_R   0.044574 0.064464 0.991112 -0.095597
C111  C     C_R   0.012467 0.083702 0.096783 -0.123520
C112  C     C_R   0.065049 0.117661 0.119167 -0.122059
H88   H     H_    0.246689 0.126521 0.862951 0.137204
H89   H     H_    0.154287 0.063121 0.825943 0.118974
H90   H     H_    0.003494 0.039038 0.973797 0.141144
H91   H     H_    0.946528 0.073146 0.161262 0.126284
H92   H     H_    0.038648 0.133944 0.201198 0.132472
Cl9   Cl    Cl    0.705635 0.949880 0.120255 -0.597974
Cl10  Cl    Cl    0.580083 0.085010 0.249977 -0.541072
Cl11  Cl    Cl    0.080086 0.414986 0.249975 -0.541089
Cl12  Cl    Cl    0.205651 0.550106 0.120230 -0.598060

loop_
_geom_bond_atom_site_label_1
_geom_bond_atom_site_label_2
_ccdc_geom_bond_type
C61   C70   A    
C44   H48   S    
N8    N15   A    
C39   C51   S    
C110  H90   S    
C45   H41   S    
C32   H32   S    
C77   H57   S    
N13   Ni7   S    
C51   H35   S    
C105  H86   S    
C48   C76   A    
C19   C23   S    
C98   C99   A    
C50   H34   S    
N6    Ni1   S    
C81   N21   A    
C59   C101  S    
C99   C100  A    
C2    N2    A    
C6    C9    A    
C41   H45   S    
C82   N22   A    
C68   N16   A    
C25   H17   S    
N19   Ni3   S    
C112  H92   S    
C68   C75   A    
N18   Ni2   S    
N14   Ni7   S    
C43   H23   S    
C37   C41   S    
C24   H10   S    
C80   N20   A    
C45   C73   A    
C7    Cl11  S    
C8    N32   A    
C38   C42   S    
N11   Ni6   S    
C94   H77   S    
C90   C91   A    
C64   H52   S    
C21   H11   S    
C81   H61   S    
C58   C71   S    
C92   H75   S    
C90   H73   S    
C13   C81   A    
C16   C84   A    
C65   H53   S    
C109  C110  A    
C6    Cl10  S    
C3    H3    S    
N7    Ni4   S    
C64   C71   A    
C5    Cl9   S    
C2    H2    S    
C25   H37   S    
C32   C52   S    
C97   H79   S    
C15   C88   A    
C27   H39   S    
C26   C34   S    
C108  C109  A    
C23   H15   S    
N19   N32   A    
C20   C24   S    
C67   N15   A    
C54   Cl6   S    
N8    Ni3   S    
C56   Cl8   S    
C13   C86   A    
C16   C87   A    
C24   C38   S    
C105  C106  A    
C31   C33   S    
N26   Ni5   S    
N12   Ni6   S    
C101  C106  A    
C9    C55   S    
N3    Ni3   S    
C10   C56   S    
C103  C104  A    
C13   C37   S    
C11   C53   S    
C3    N3    A    
C21   H13   S    
N29   Ni7   S    
C42   H22   S    
N32   Ni8   S    
C91   H74   S    
C20   H8    S    
C67   H55   S    
N2    Ni2   S    
C92   C93   A    
C49   Cl1   S    
C41   H21   S    
C110  C111  A    
N5    Ni2   S    
C85   N25   A    
C7    N31   A    
C88   N28   A    
C17   C33   S    
N16   Ni8   S    
C1    N1    A    
C31   H27   S    
C95   C96   A    
C51   Cl3   S    
N30   Ni7   S    
C89   C90   A    
C83   H63   S    
C111  H91   S    
C50   Cl2   S    
N25   Ni5   S    
C10   C78   A    
C7    C12   A    
C62   N10   A    
C57   C89   S    
C35   C76   S    
C22   H12   S    
C109  H89   S    
N27   Ni6   S    
C26   C44   S    
C84   N24   A    
N31   Ni8   S    
N18   N29   A    
C87   N27   A    
C98   H80   S    
C54   C60   D    
C30   H30   S    
C27   C35   S    
N5    N14   A    
C40   C52   S    
C66   C73   A    
C29   H29   S    
C96   H78   S    
C8    Cl12  S    
C77   N17   A    
C65   C74   A    
C62   C69   A    
C47   H43   S    
C52   Cl4   S    
N22   N25   A    
C32   C34   S    
C106  H87   S    
C64   N12   A    
C80   H60   S    
C3    C71   A    
C103  H84   S    
N23   N28   A    
C96   C97   A    
C18   H70   S    
C36   C75   S    
C26   H18   S    
C14   C38   S    
C47   N7    A    
C27   C41   S    
C63   N11   A    
C91   C92   A    
C48   N8    A    
C27   H19   S    
C93   H76   S    
C22   C40   S    
C60   C107  S    
C6    N30   A    
C4    C72   A    
C4    N4    A    
C107  C108  A    
C11   C79   A    
N1    Ni1   S    
N22   Ni1   S    
C85   H65   S    
C29   C49   S    
C43   H47   S    
N3    N12   A    
C18   C34   S    
C15   C39   S    
C37   C49   S    
C82   H62   S    
N17   Ni1   S    
C66   H54   S    
C16   C40   S    
C79   H59   S    
N1    N10   A    
C44   H24   S    
C25   C43   S    
C62   H50   S    
C86   N26   A    
C55   C57   D    
C102  H83   S    
C18   H6    S    
C19   H7    S    
C87   H67   S    
C61   N9    A    
C104  C105  A    
C14   C82   A    
N23   Ni4   S    
C88   H68   S    
C46   C74   A    
C17   H69   S    
N9    Ni5   S    
C30   H26   S    
C29   H25   S    
C111  C112  A    
C83   N23   A    
N6    N13   A    
C1    H1    S    
N17   N30   A    
C46   N6    A    
C23   H9    S    
C78   N18   A    
C32   H28   S    
C63   H51   S    
C21   C39   S    
C84   H64   S    
C66   N14   A    
C100  H82   S    
C14   C85   A    
C31   C51   S    
N20   N31   A    
N20   Ni4   S    
N28   Ni6   S    
C46   H42   S    
C15   C83   A    
N21   N26   A    
N4    Ni4   S    
C38   C50   S    
N24   Ni3   S    
C55   Cl7   S    
C53   C59   D    
C29   C35   S    
C58   C95   S    
C89   C94   A    
C22   H14   S    
N24   N27   A    
C30   C36   S    
C42   H46   S    
C107  C112  A    
C19   H71   S    
C18   C22   S    
C9    C77   A    
C47   C75   A    
C5    C10   A    
C23   C37   S    
C99   H81   S    
C52   H36   S    
C61   H49   S    
C86   H66   S    
N2    N9    A    
C2    C70   A    
C60   C69   S    
C28   H20   S    
C8    C11   A    
C93   C94   A    
C12   C80   A    
C28   C42   S    
C102  C103  A    
C56   C58   D    
C95   C100  A    
C68   H56   S    
C79   N19   A    
C104  H85   S    
C49   H33   S    
C57   C72   S    
C30   C50   S    
C97   C98   A    
C65   N13   A    
C1    C69   A    
N15   Ni8   S    
C59   C70   S    
C78   H58   S    
C34   C73   S    
C5    N29   A    
C53   Cl5   S    
C20   C36   S    
C33   C74   S    
C40   C44   S    
C17   H5    S    
C63   C72   A    
C28   C36   S    
C108  H88   S    
C20   H72   S    
C39   C43   S    
C101  C102  A    
C26   H38   S    
C48   H44   S    
N4    N11   A    
C19   C35   S    
C67   C76   A    
N21   Ni2   S    
C24   H16   S    
C31   H31   S    
C45   N5    A    
N10   Ni5   S    
C12   C54   S    
C28   H40   S    
C25   C33   S    
N7    N16   A    
C4    H4    S    
C17   C21   S    
