data_mof_unit_51957.cif
_audit_creation_date              2012-12-11T15:34:01-0500
_audit_creation_method            fapswitch 2.2
_symmetry_space_group_name_H-M    P1
_symmetry_Int_Tables_number       1
_space_group_crystal_system       triclinic
_cell_length_a                    15.019652
_cell_length_b                    15.057308
_cell_length_c                    34.865324
_cell_angle_alpha                 90.624286
_cell_angle_beta                  90.039214
_cell_angle_gamma                 60.257949
_cell_volume                      6845.77040394

loop_
_atom_site_label
_atom_site_type_symbol
_atom_type_description
_atom_site_fract_x
_atom_site_fract_y
_atom_site_fract_z
_atom_type_partial_charge
C1    C     C_R   0.302264 0.608278 0.555703 0.547662
C2    C     C_R   0.242782 0.706976 0.385210 -0.121283
C3    C     C_R   0.707206 0.234461 0.261252 -0.110396
C4    C     C_R   0.722247 0.209886 0.222341 -0.104244
C5    C     C_R   0.640828 0.258155 0.196438 0.029335
C6    C     C_R   0.670365 0.326684 0.340002 -0.086745
C7    C     C_R   0.661574 0.332042 0.379806 0.367929
C8    C     C_R   0.496719 0.340048 0.374937 -0.182901
C9    C     C_R   0.740890 0.585057 0.647535 -0.121456
C10   C     C_R   0.506304 0.333820 0.334960 -0.137396
C11   C     C_R   0.593990 0.325752 0.317178 -0.028103
C12   C     C_R   0.574619 0.338092 0.397909 0.024515
C13   C     C_R   0.225828 0.706881 0.345995 -0.117054
C14   C     C_R   0.089480 0.705062 0.092730 -0.037528
C15   C     C_R   0.109664 0.610397 0.107440 -0.142467
C16   C     C_R   0.151759 0.580800 0.143785 -0.182231
C17   C     C_R   0.174540 0.645168 0.165904 0.033367
C18   C     C_R   0.161846 0.736233 0.150074 0.389351
C19   C     C_R   0.119803 0.765673 0.113648 -0.083911
C20   C     C_R   0.275459 0.633592 0.224404 -0.081874
C21   C     C_R   0.217994 0.626335 0.328943 0.066069
C22   C     C_R   0.567379 0.728463 0.649273 -0.123397
C23   C     C_R   0.253115 0.625833 0.407857 0.021607
C24   C     C_R   0.735984 0.025616 0.943328 0.541745
C25   C     C_R   0.745793 0.722761 0.945108 0.542816
C26   C     C_R   0.038508 0.733888 0.948381 0.548172
C27   C     C_R   0.722725 0.039183 0.052948 0.565442
C28   C     C_R   0.733190 0.734208 0.054605 0.541861
C29   C     C_R   0.659246 0.663731 0.668296 0.033098
C30   C     C_R   0.028225 0.744472 0.057714 0.550508
C31   C     C_R   0.554198 0.708898 0.611140 -0.131715
C32   C     C_R   0.673732 0.675284 0.787883 0.345052
C33   C     C_R   0.666598 0.671296 0.710194 0.343054
C34   C     C_R   0.762160 0.599135 0.849376 -0.107241
C35   C     C_R   0.778519 0.609697 0.888049 -0.120006
C36   C     C_R   0.627329 0.778098 0.889278 -0.131185
C37   C     C_R   0.610839 0.767414 0.850588 -0.124236
C38   C     C_R   0.680703 0.679674 0.829912 0.031082
C39   C     C_R   0.610945 0.588626 0.555125 0.543034
C40   C     C_R   0.283940 0.631234 0.264198 -0.186330
C41   C     C_R   0.713896 0.701155 0.907882 0.019321
C42   C     C_R   0.723400 0.072536 0.905408 0.022082
C43   C     C_R   0.633304 0.101416 0.884497 -0.119971
C44   C     C_R   0.629952 0.121299 0.845489 -0.117315
C45   C     C_R   0.716165 0.113590 0.826793 0.029235
C46   C     C_R   0.803247 0.093250 0.848172 -0.119070
C47   C     C_R   0.806972 0.072632 0.887261 -0.123987
C48   C     C_R   0.748621 0.182934 0.766963 -0.112521
C49   C     C_R   0.742428 0.193719 0.727207 -0.110588
C50   C     C_R   0.705302 0.141129 0.704663 0.026375
C51   C     C_R   0.212960 0.620350 0.287016 0.025176
C52   C     C_R   0.590526 0.300063 0.553457 0.552167
C53   C     C_R   0.678391 0.074534 0.722448 -0.112910
C54   C     C_R   0.683776 0.064484 0.762155 -0.110899
C55   C     C_R   0.716827 0.120264 0.784735 0.024542
C56   C     C_R   0.592763 0.178877 0.647487 -0.117302
C57   C     C_R   0.565055 0.216679 0.610507 -0.123633
C58   C     C_R   0.724590 0.218748 0.603797 -0.122615
C59   C     C_R   0.752458 0.180555 0.640770 -0.119106
C60   C     C_R   0.685128 0.163776 0.663434 0.031760
C61   C     C_R   0.628942 0.240655 0.588881 0.022310
C62   C     C_R   0.136150 0.607064 0.269529 0.388023
C63   C     C_R   0.092532 0.696677 0.911381 -0.035887
C64   C     C_R   0.300973 0.609726 0.445811 0.537263
C65   C     C_R   0.124201 0.756629 0.891276 -0.146398
C66   C     C_R   0.148403 0.738359 0.852417 -0.184555
C67   C     C_R   0.142298 0.659398 0.833116 0.032756
C68   C     C_R   0.119910 0.593360 0.853858 0.382765
C69   C     C_R   0.095344 0.611931 0.892803 -0.085576
C70   C     C_R   0.216381 0.561253 0.772180 -0.053188
C71   C     C_R   0.223961 0.557639 0.732259 -0.110617
C72   C     C_R   0.164130 0.645944 0.710630 0.029655
C73   C     C_R   0.127710 0.609657 0.229750 -0.077122
C74   C     C_R   0.094888 0.737196 0.729570 -0.109965
C75   C     C_R   0.087755 0.740859 0.769433 -0.111697
C76   C     C_R   0.607703 0.589498 0.445122 0.536451
C77   C     C_R   0.149309 0.653285 0.791000 0.063068
C78   C     C_R   0.188457 0.724648 0.651859 -0.117100
C79   C     C_R   0.220795 0.716253 0.613892 -0.123203
C80   C     C_R   0.230943 0.550883 0.608394 -0.126556
C81   C     C_R   0.198454 0.559396 0.646377 -0.117886
C82   C     C_R   0.180663 0.644604 0.668843 0.033518
C83   C     C_R   0.246309 0.627451 0.592297 0.021138
C84   C     C_R   0.195598 0.625528 0.207025 -0.005239
C85   C     C_R   0.690088 0.716409 0.089808 0.015786
C86   C     C_R   0.601609 0.796155 0.107112 -0.116436
C87   C     C_R   0.572630 0.784876 0.143996 -0.108888
C88   C     C_R   0.560687 0.351745 0.440053 0.576350
C89   C     C_R   0.631704 0.693790 0.164176 0.030204
C90   C     C_R   0.715439 0.611534 0.145629 -0.114437
C91   C     C_R   0.744181 0.622651 0.108810 -0.121492
C92   C     C_R   0.631056 0.596363 0.221981 -0.110979
C93   C     C_R   0.631445 0.586653 0.261734 -0.113679
C94   C     C_R   0.614679 0.668880 0.285837 0.029537
C95   C     C_R   0.219960 0.549614 0.351913 -0.070332
C96   C     C_R   0.593234 0.762203 0.269687 -0.099282
C97   C     C_R   0.593835 0.771668 0.229969 -0.098644
C98   C     C_R   0.614882 0.688192 0.205706 0.033515
C99   C     C_R   0.541918 0.728629 0.351416 -0.121940
C100  C     C_R   0.632722 0.624336 0.591501 0.022741
C101  C     C_R   0.542226 0.711189 0.390622 -0.126400
C102  C     C_R   0.704963 0.554369 0.383570 -0.096298
C103  C     C_R   0.703802 0.571079 0.344263 -0.108221
C104  C     C_R   0.620718 0.656672 0.327773 0.026994
C105  C     C_R   0.621772 0.621716 0.406834 0.016608
C106  C     C_R   0.236898 0.549631 0.391198 -0.135611
C107  C     C_R   0.695126 0.109195 0.086535 0.023854
C108  C     C_R   0.767783 0.131869 0.102323 -0.183027
C109  C     C_R   0.747554 0.186543 0.136835 -0.141656
C110  C     C_R   0.654435 0.219324 0.156406 -0.029202
C111  C     C_R   0.579162 0.202722 0.139404 -0.075731
C112  C     C_R   0.727752 0.565543 0.609459 -0.129162
C113  C     C_R   0.598834 0.148489 0.104825 0.377961
C114  C     C_R   0.544755 0.334868 0.210163 -0.116625
C115  C     C_R   0.529619 0.359433 0.249309 -0.115008
C116  C     C_R   0.610379 0.307985 0.275294 0.025788
Cr1   Cr    Cr6+3 0.421670 0.426920 0.499620 1.010132
Cr2   Cr    Cr6+3 0.427030 0.651190 0.500980 1.009174
Cr3   Cr    Cr6+3 0.651280 0.421870 0.499380 1.073211
Cr4   Cr    Cr6+3 0.910810 0.908010 0.001130 1.018307
Cr5   Cr    Cr6+3 0.682800 0.909890 0.998370 1.058935
Cr6   Cr    Cr6+3 0.908370 0.682300 0.002180 1.022171
F1    F     F_    0.112865 0.516712 0.835842 -0.641484
F2    F     F_    0.525085 0.130515 0.090511 -0.622497
F3    F     F_    0.739384 0.329951 0.400299 -0.633798
F4    F     F_    0.065675 0.597892 0.290902 -0.636972
F5    F     F_    0.181303 0.801167 0.171039 -0.639929
H1    H     H_    0.790138 0.500653 0.594861 0.132637
H2    H     H_    0.870426 0.087341 0.834221 0.107245
H3    H     H_    0.480290 0.756048 0.597923 0.130121
H4    H     H_    0.123477 0.822048 0.904832 0.145824
H5    H     H_    0.071260 0.564436 0.907594 0.152119
H6    H     H_    0.191057 0.497570 0.658634 0.111543
H7    H     H_    0.279339 0.486739 0.718419 0.106934
H8    H     H_    0.264753 0.493110 0.788408 0.150306
H9    H     H_    0.167083 0.789029 0.836930 0.121727
H10   H     H_    0.047081 0.805940 0.713566 0.110325
H11   H     H_    0.034189 0.812213 0.783517 0.112396
H12   H     H_    0.877499 0.050543 0.902619 0.129233
H13   H     H_    0.175869 0.790958 0.668578 0.106838
H14   H     H_    0.845452 0.548704 0.901690 0.143165
H15   H     H_    0.231712 0.776616 0.602276 0.129539
H16   H     H_    0.249229 0.481846 0.592356 0.127196
H17   H     H_    0.557868 0.869063 0.093048 0.160918
H18   H     H_    0.766483 0.515774 0.326536 0.126487
H19   H     H_    0.645770 0.514644 0.273709 0.112592
H20   H     H_    0.645749 0.531333 0.203998 0.111135
H21   H     H_    0.506552 0.848881 0.157356 0.126576
H22   H     H_    0.580088 0.826485 0.287834 0.116143
H23   H     H_    0.762278 0.246757 0.714331 0.114370
H24   H     H_    0.813350 0.535047 0.661206 0.135961
H25   H     H_    0.582801 0.842832 0.218375 0.114158
H26   H     H_    0.477372 0.795461 0.339244 0.110335
H27   H     H_    0.477018 0.764772 0.407748 0.130565
H28   H     H_    0.763091 0.540659 0.160463 0.111002
H29   H     H_    0.768031 0.485590 0.395252 0.192757
H30   H     H_    0.841940 0.104108 0.088776 0.143792
H31   H     H_    0.446402 0.332608 0.318052 0.124493
H32   H     H_    0.454578 0.417316 0.259348 0.111613
H33   H     H_    0.480837 0.374120 0.190773 0.108068
H34   H     H_    0.774374 0.226503 0.783938 0.114672
H35   H     H_    0.503485 0.790544 0.664391 0.132795
H36   H     H_    0.806343 0.199906 0.148961 0.127638
H37   H     H_    0.770493 0.192171 0.280613 0.119262
H38   H     H_    0.796483 0.148933 0.212899 0.122900
H39   H     H_    0.507016 0.226368 0.153963 0.134421
H40   H     H_    0.428324 0.346296 0.387880 0.135888
H41   H     H_    0.088239 0.561456 0.091727 0.148162
H42   H     H_    0.105558 0.838729 0.102846 0.155890
H43   H     H_    0.222645 0.767710 0.328688 0.122069
H44   H     H_    0.816261 0.529720 0.834365 0.150107
H45   H     H_    0.561226 0.139075 0.829565 0.115358
H46   H     H_    0.344959 0.639504 0.277261 0.122837
H47   H     H_    0.329294 0.644549 0.207261 0.168513
H48   H     H_    0.161691 0.510080 0.155470 0.124523
H49   H     H_    0.064767 0.604616 0.216781 0.137626
H50   H     H_    0.214149 0.486755 0.339187 0.150793
H51   H     H_    0.244195 0.486297 0.407997 0.123882
H52   H     H_    0.254812 0.766843 0.397191 0.134703
H53   H     H_    0.575752 0.849244 0.903908 0.131656
H54   H     H_    0.546564 0.830258 0.836478 0.133833
H55   H     H_    0.567397 0.102721 0.897691 0.136044
H56   H     H_    0.651231 0.031805 0.705709 0.114515
H57   H     H_    0.824949 0.167725 0.652158 0.105664
H58   H     H_    0.775860 0.235637 0.587641 0.128868
H59   H     H_    0.812318 0.559457 0.096145 0.133811
H60   H     H_    0.737909 0.322322 0.326981 0.124727
H61   H     H_    0.661156 0.013808 0.775333 0.120894
H62   H     H_    0.538829 0.167563 0.664394 0.107173
H63   H     H_    0.490893 0.232715 0.599797 0.129918
N1    N     N_R   0.751123 0.599024 0.767377 -0.221716
N2    N     N_R   0.747451 0.596877 0.729324 -0.229981
N3    N     N_R   0.589223 0.747831 0.730674 -0.239062
N4    N     N_R   0.593018 0.750121 0.768778 -0.239170
O1    O     O_R   0.502070 0.323090 0.541280 -0.515591
O2    O     O_R   0.831550 0.656950 0.958960 -0.518174
O3    O     O_R   0.998590 0.685540 0.963930 -0.501918
O4    O     O_R   0.338340 0.520690 0.539540 -0.500757
O5    O     O_R   0.008220 0.831200 0.045060 -0.517216
O6    O     O_R   0.813270 0.997930 0.038810 -0.518151
O7    O     O_R   0.657500 0.016560 0.039940 -0.432095
O8    O     O_R   0.685680 0.820940 0.038120 -0.495462
O9    O     O_R   0.822130 0.666070 0.043610 -0.518651
O10   O     O_R   0.989860 0.694000 0.042400 -0.496785
O11   O     O_3   0.833990 0.833400 0.000560 -0.246216
O12   O     O_R   0.520720 0.641670 0.461580 -0.511890
O13   O     O_R   0.324760 0.674070 0.543580 -0.515632
O14   O     O_R   0.522400 0.640310 0.540110 -0.501325
O15   O     O_R   0.675940 0.500630 0.542210 -0.519557
O16   O     O_R   0.641790 0.337020 0.538150 -0.499047
O17   O     O_R   0.500260 0.324550 0.456580 -0.523723
O18   O     O_R   0.336660 0.522040 0.461020 -0.522926
O19   O     O_R   0.322940 0.675540 0.458880 -0.515842
O20   O     O_R   0.674120 0.502090 0.457500 -0.476476
O21   O     O_R   0.640110 0.338380 0.459630 -0.417508
O22   O     O_3   0.499990 0.499990 0.499990 -0.272023
O23   O     O_R   0.017640 0.822070 0.960410 -0.514849
O24   O     O_R   0.822000 0.989470 0.960340 -0.504623
O25   O     O_R   0.666920 0.007430 0.955290 -0.517058
O26   O     O_R   0.694410 0.812480 0.959650 -0.504068

loop_
_geom_bond_atom_site_label_1
_geom_bond_atom_site_label_2
_ccdc_geom_bond_type
C48   C55   A    
C63   C65   A    
Cr3   O21   S    
C93   C94   A    
C88   O21   A    
C5    C114  A    
C24   C42   S    
C54   C55   A    
C1    O4    A    
C36   H53   S    
Cr5   O11   S    
C26   C63   S    
C46   H2    S    
C97   C98   A    
C85   C91   A    
C86   H17   S    
C53   C54   A    
C56   C57   A    
C52   O1    A    
C103  H18   S    
C76   C105  S    
C49   H23   S    
C33   N2    A    
Cr4   O11   S    
C70   C77   A    
C36   C37   A    
C22   C29   A    
Cr5   O8    S    
C34   C35   A    
C31   H3    S    
C52   C61   S    
C53   H56   S    
C40   H46   S    
C22   H35   S    
C79   H15   S    
C5    C110  S    
C115  C116  A    
C29   C33   S    
Cr4   O5    S    
C108  C109  A    
C39   O15   A    
C102  C105  A    
C18   C19   A    
Cr6   O10   S    
C57   C61   A    
C26   O3    A    
C2    C13   A    
C110  C111  A    
C107  C113  A    
C46   C47   A    
C95   H50   S    
C20   H47   S    
C63   C69   A    
C68   C69   A    
C88   O17   A    
C67   C77   S    
C107  C108  A    
C62   C73   A    
C70   C71   A    
C32   C38   S    
C10   H31   S    
C73   C84   A    
N3    N4    A    
C9    C29   A    
C9    C112  A    
C30   O5    A    
C94   C104  S    
C59   C60   A    
C54   H61   S    
C39   O14   A    
C92   H20   S    
C52   O16   A    
Cr5   O25   S    
Cr6   O11   S    
C36   C41   A    
C59   H57   S    
C51   C62   A    
C14   C30   S    
C80   C83   A    
C1    O13   A    
C14   C19   A    
C68   F1    S    
C65   H4    S    
C76   O12   A    
C81   C82   A    
C101  C105  A    
C7    C12   A    
C74   H10   S    
Cr3   O15   S    
C50   C53   A    
C112  H1    S    
C87   H21   S    
C12   C88   S    
C92   C98   A    
N1    N2    A    
C23   C64   S    
C64   O19   A    
Cr1   O17   S    
C66   C67   A    
C27   C107  S    
C72   C74   A    
C22   C31   A    
C25   C41   S    
C6    C11   A    
C62   F4    S    
C78   C79   A    
C16   C17   A    
C108  H30   S    
C21   C95   A    
C58   C59   A    
C85   C86   A    
C23   C106  A    
C4    C5    A    
C6    H60   S    
C56   C60   A    
C32   N1    A    
C115  H32   S    
Cr6   O9    S    
Cr1   O22   S    
Cr2   O14   S    
C43   C44   A    
C44   H45   S    
C37   C38   A    
Cr1   O1    S    
C95   C106  A    
C18   F5    S    
C78   C82   A    
C26   O23   A    
C8    C12   A    
C80   H16   S    
C37   H54   S    
C96   C97   A    
C2    C23   A    
C27   O7    A    
C17   C18   A    
C13   C21   A    
C93   H19   S    
C111  C113  A    
C111  H39   S    
C31   C100  A    
C7    F3    S    
C67   C68   A    
C94   C96   A    
C11   C116  S    
C75   C77   A    
C114  H33   S    
C25   O2    A    
C3    H37   S    
C35   H14   S    
C66   H9    S    
C16   H48   S    
C32   N4    A    
C48   C49   A    
C99   C101  A    
C91   H59   S    
C65   C66   A    
C87   C89   A    
C109  H36   S    
C70   H8    S    
Cr5   O26   S    
C15   H41   S    
C45   C46   A    
C8    C10   A    
C2    H52   S    
C3    C4    A    
C102  H29   S    
C21   C51   S    
C8    H40   S    
C44   C45   A    
C86   C87   A    
Cr1   O4    S    
C45   C55   S    
C56   H62   S    
C13   H43   S    
Cr3   O16   S    
Cr2   O12   S    
C34   C38   A    
C28   O9    A    
C81   H6    S    
Cr1   O18   S    
C27   O6    A    
C19   H42   S    
Cr6   O2    S    
C80   C81   A    
C75   H11   S    
C78   H13   S    
C114  C115  A    
C6    C7    A    
C48   H34   S    
C1    C83   S    
C40   C51   A    
C30   O10   A    
C90   H28   S    
C89   C98   S    
C43   H55   S    
C9    H24   S    
C3    C116  A    
C17   C84   S    
C28   O8    A    
C73   H49   S    
C20   C84   A    
Cr2   O13   S    
C89   C90   A    
C50   C60   S    
C57   H63   S    
C109  C110  A    
C71   H7    S    
C79   C83   A    
Cr5   O7    S    
C90   C91   A    
C113  F2    S    
C101  H27   S    
C58   C61   A    
C69   H5    S    
C20   C40   A    
C96   H22   S    
C99   H26   S    
C92   C93   A    
Cr4   O6    S    
C97   H25   S    
C99   C104  A    
Cr2   O19   S    
C42   C47   A    
Cr6   O3    S    
C102  C103  A    
C35   C41   A    
C28   C85   S    
C10   C11   A    
Cr4   O23   S    
C33   N3    A    
C24   O25   A    
C76   O20   A    
Cr3   O22   S    
C71   C72   A    
C74   C75   A    
C39   C100  S    
Cr3   O20   S    
Cr4   O24   S    
C49   C50   A    
C42   C43   A    
C47   H12   S    
C103  C104  A    
C14   C15   A    
C64   O18   A    
C25   O26   A    
Cr2   O22   S    
C100  C112  A    
C4    H38   S    
C106  H51   S    
C72   C82   S    
C34   H44   S    
C15   C16   A    
C58   H58   S    
C24   O24   A    
