data_mof_unit_48107.cif
_audit_creation_date              2012-12-10T17:36:43-0500
_audit_creation_method            fapswitch 2.2
_symmetry_space_group_name_H-M    P1
_symmetry_Int_Tables_number       1
_space_group_crystal_system       triclinic
_cell_length_a                    12.068424
_cell_length_b                    12.851946
_cell_length_c                    15.704005
_cell_angle_alpha                 90.720382
_cell_angle_beta                  88.445155
_cell_angle_gamma                 93.659009
_cell_volume                      2429.73046569

loop_
_atom_site_label
_atom_site_type_symbol
_atom_type_description
_atom_site_fract_x
_atom_site_fract_y
_atom_site_fract_z
_atom_type_partial_charge
C1    C     C_R   0.522162 0.700239 0.499417 0.879347
C2    C     C_R   0.549487 0.025657 0.483241 0.186337
C3    C     C_R   0.950286 0.420591 0.407588 -0.317006
C4    C     C_R   0.049728 0.580232 0.591890 -0.308069
C5    C     C_R   0.835399 0.426122 0.418142 -0.029143
C6    C     C_R   0.164607 0.574522 0.581470 -0.017556
C7    C     C_R   0.860843 0.531344 0.542619 0.183050
C8    C     C_R   0.139170 0.468842 0.457244 0.179717
C9    C     C_R   0.977421 0.528459 0.533932 0.072078
C10   C     C_R   0.022592 0.472035 0.465733 0.075633
C11   C     C_R   0.502145 0.500054 0.661774 0.900069
C12   C     C_R   0.477826 0.299758 0.500275 0.881037
C13   C     C_R   0.497979 0.499888 0.338294 0.900519
C14   C     C_3   0.466039 0.584585 0.028903 0.422247
C15   C     C_3   0.557267 0.415004 0.970382 0.482701
C16   C     C_3   0.572896 0.586323 0.971768 -0.448750
C17   C     C_3   0.450149 0.412315 0.027233 -0.497205
C18   C     C_1   0.507478 0.500159 0.750452 -0.182282
C19   C     C_1   0.494555 0.499488 0.249676 -0.200112
C20   C     C_3   0.408183 0.500424 0.973201 0.440094
C21   C     C_3   0.615597 0.499070 0.026951 0.450602
C22   C     C_3   0.513681 0.500824 0.916379 -0.041486
C23   C     C_R   0.641721 0.969844 0.460495 -0.219380
C24   C     C_3   0.508894 0.497975 0.083764 -0.117223
C25   C     C_1   0.511553 0.500368 0.825599 0.084029
C26   C     C_1   0.498224 0.498780 0.174420 0.015643
C27   C     C_R   0.464379 0.188197 0.500872 -0.052697
C28   C     C_R   0.535500 0.811777 0.497987 -0.050285
C29   C     C_3   0.390359 0.742296 0.001692 0.105805
C30   C     C_3   0.464760 0.842650 0.009807 -0.355773
C31   C     C_3   0.437022 0.922355 0.943657 -0.964886
C32   C     C_3   0.625313 0.255372 0.996845 0.107744
C33   C     C_3   0.696370 0.171090 0.959174 -0.310179
C34   C     C_R   0.357885 0.030008 0.537507 -0.218285
C35   C     C_3   0.720214 0.090625 0.025875 -0.997617
C36   C     C_3   0.756093 0.526613 0.127337 0.077598
C37   C     C_3   0.749105 0.644735 0.140650 -0.364395
C38   C     C_3   0.785261 0.678384 0.229766 -0.935232
C39   C     C_3   0.218119 0.497232 0.002814 0.106865
C40   C     C_3   0.148986 0.394074 0.992817 -0.334928
C41   C     C_3   0.049809 0.387406 0.055311 -0.965096
C42   C     C_R   0.634732 0.862425 0.467884 -0.205913
C43   C     C_R   0.364958 0.137430 0.530444 -0.202090
C44   C     C_R   0.444449 0.867740 0.522873 -0.275833
C45   C     C_R   0.555343 0.132275 0.475626 -0.276932
C46   C     C_R   0.450184 0.974272 0.514875 0.185303
H1    H     H_    0.622182 0.656290 0.947863 0.174814
H2    H     H_    0.780466 0.387087 0.372904 0.138401
H3    H     H_    0.981680 0.376473 0.353969 0.171673
H4    H     H_    0.018332 0.624720 0.645289 0.177079
H5    H     H_    0.302482 0.761203 0.012425 0.155523
H6    H     H_    0.396891 0.710947 0.935211 0.146822
H7    H     H_    0.453392 0.876810 0.074598 0.233236
H8    H     H_    0.553204 0.824699 0.000992 0.218591
H9    H     H_    0.450942 0.890874 0.878303 0.267263
H10   H     H_    0.491175 0.994679 0.951640 0.271156
H11   H     H_    0.349084 0.942193 0.951762 0.264754
H12   H     H_    0.400744 0.342295 0.050908 0.168631
H13   H     H_    0.544239 0.217900 0.019309 0.129510
H14   H     H_    0.669253 0.292452 0.052056 0.158343
H15   H     H_    0.652407 0.131203 0.905416 0.225969
H16   H     H_    0.776433 0.207806 0.934188 0.237198
H17   H     H_    0.768481 0.128336 0.078384 0.266620
H18   H     H_    0.769549 0.029217 0.996008 0.271345
H19   H     H_    0.641460 0.053372 0.052561 0.267403
H20   H     H_    0.843340 0.508113 0.137414 0.163636
H21   H     H_    0.706676 0.480311 0.175649 0.137878
H22   H     H_    0.803735 0.686815 0.092564 0.225864
H23   H     H_    0.631698 0.171729 0.451333 0.157420
H24   H     H_    0.662863 0.667337 0.132431 0.238032
H25   H     H_    0.730382 0.638513 0.278807 0.283024
H26   H     H_    0.779654 0.763889 0.237610 0.262078
H27   H     H_    0.872467 0.659304 0.239559 0.261447
H28   H     H_    0.163645 0.562618 0.994267 0.156872
H29   H     H_    0.249176 0.504531 0.069114 0.150461
H30   H     H_    0.118218 0.386900 0.926780 0.241857
H31   H     H_    0.201824 0.328154 0.004035 0.216273
H32   H     H_    0.078318 0.393822 0.121957 0.258219
H33   H     H_    0.001978 0.311408 0.046982 0.271443
H34   H     H_    0.368155 0.828390 0.547387 0.157646
H35   H     H_    0.994272 0.450908 0.043112 0.279636
H36   H     H_    0.242882 0.364251 0.406779 0.227881
H37   H     H_    0.219813 0.467669 0.342884 0.210847
H38   H     H_    0.757106 0.635814 0.593203 0.226944
H39   H     H_    0.780211 0.532301 0.656973 0.218096
H40   H     H_    0.294266 0.180699 0.550015 0.165860
H41   H     H_    0.705370 0.819072 0.448303 0.164681
H42   H     H_    0.718230 0.008990 0.436429 0.139876
H43   H     H_    0.281313 0.990813 0.561408 0.140859
H44   H     H_    0.219547 0.613908 0.626520 0.146353
N1    N     N_R   0.207800 0.519340 0.515560 -0.113348
N2    N     N_R   0.792200 0.480660 0.484440 -0.110776
N3    N     N_3   0.184171 0.413532 0.386108 -0.487246
N4    N     N_3   0.815844 0.586526 0.613820 -0.482400
O1    O     O_R   0.421700 0.658830 0.504150 -0.619002
O2    O     O_3   0.608130 0.328898 0.933302 -0.619232
O3    O     O_3   0.729957 0.494155 0.043680 -0.638560
O4    O     O_3   0.302128 0.504538 0.938213 -0.647904
O5    O     O_R   0.578300 0.341170 0.495850 -0.616467
O6    O     O_R   0.609310 0.646410 0.494170 -0.640961
O7    O     O_R   0.390690 0.353590 0.505830 -0.638788
O8    O     O_R   0.406210 0.506220 0.628210 -0.610322
O9    O     O_R   0.593790 0.493780 0.371790 -0.631589
O10   O     O_R   0.593830 0.493800 0.618230 -0.630905
O11   O     O_R   0.406170 0.506200 0.381770 -0.627540
O12   O     O_3   0.416307 0.671620 0.065447 -0.644810
Zn1   Zn    Zn3+2 0.374730 0.508290 0.506660 0.937524
Zn2   Zn    Zn3+2 0.625270 0.491710 0.493340 0.926748

loop_
_geom_bond_atom_site_label_1
_geom_bond_atom_site_label_2
_ccdc_geom_bond_type
O7    Zn1   S    
C11   C18   S    
C16   C21   S    
C3    H3    S    
C36   H21   S    
C2    C46   A    
O5    Zn2   S    
C30   H8    S    
C37   C38   S    
C23   C42   A    
C36   C37   S    
C24   C26   S    
C30   C31   S    
C36   H20   S    
C35   H19   S    
C6    N1    A    
H37   N3    S    
C37   H22   S    
C17   C20   S    
C21   O3    S    
C1    O6    A    
C15   C17   S    
C39   H28   S    
C14   C24   S    
C19   C26   T    
C12   O5    A    
N2    Zn2   S    
C15   C22   S    
C33   H16   S    
C22   C25   S    
C1    C28   S    
C11   O10   A    
C34   C46   A    
C39   H29   S    
C31   H10   S    
C13   O9    A    
C9    C10   A    
C17   H12   S    
C27   C45   A    
H36   N3    S    
C37   H24   S    
C18   C25   T    
C16   H1    S    
C5    H2    S    
C44   C46   A    
C2    C45   A    
C30   H7    S    
C38   H26   S    
O6    Zn2   S    
C17   C24   S    
C13   C19   S    
C12   C27   S    
C45   H23   S    
C41   H32   S    
N1    Zn1   S    
C44   H34   S    
C13   O11   A    
C15   O2    S    
C39   O4    S    
C6    H44   S    
C28   C44   A    
C40   H30   S    
C36   O3    S    
C4    H4    S    
C29   C30   S    
C14   C20   S    
O11   Zn1   S    
H39   N4    S    
C14   O12   S    
C1    O1    A    
C41   H35   S    
O8    Zn1   S    
C8    N1    A    
H38   N4    S    
C35   H18   S    
O1    Zn1   S    
C4    C6    A    
C40   C41   S    
C32   O2    S    
C20   C22   S    
C23   H42   S    
C14   C16   S    
C29   O12   S    
C32   H14   S    
O10   Zn2   S    
C29   H5    S    
C7    C9    A    
C7    N4    S    
C38   H25   S    
C16   C22   S    
C43   H40   S    
C8    C10   A    
C34   C43   A    
C3    C5    A    
C41   H33   S    
C32   C33   S    
C31   H11   S    
C34   H43   S    
C12   O7    A    
C3    C10   A    
C7    N2    A    
C28   C42   A    
C33   C35   S    
C11   O8    A    
C5    N2    A    
C39   C40   S    
C27   C43   A    
C15   C21   S    
C20   O4    S    
C33   H15   S    
C8    N3    S    
C21   C24   S    
C2    C23   A    
C40   H31   S    
O9    Zn2   S    
C35   H17   S    
C42   H41   S    
C32   H13   S    
C31   H9    S    
C4    C9    A    
C29   H6    S    
C38   H27   S    
