data_mof_unit_47296.cif
_audit_creation_date              2012-12-10T16:54:02-0500
_audit_creation_method            fapswitch 2.2
_symmetry_space_group_name_H-M    P1
_symmetry_Int_Tables_number       1
_space_group_crystal_system       triclinic
_cell_length_a                    9.746394
_cell_length_b                    10.950487
_cell_length_c                    13.473415
_cell_angle_alpha                 90.992625
_cell_angle_beta                  74.582435
_cell_angle_gamma                 90.310055
_cell_volume                      1386.03141068

loop_
_atom_site_label
_atom_site_type_symbol
_atom_type_description
_atom_site_fract_x
_atom_site_fract_y
_atom_site_fract_z
_atom_type_partial_charge
C1    C     C_R   0.500737 0.734044 0.498180 0.811784
C2    C     C_R   0.453963 0.542935 0.975206 -0.107325
C3    C     C_R   0.499217 0.538523 0.866495 -0.251140
C4    C     C_R   0.552948 0.507812 0.030169 -0.128736
C5    C     C_R   0.668510 0.431887 0.979818 -0.276269
C6    C     C_R   0.717884 0.436724 0.872347 0.441665
C7    C     C_R   0.647023 0.514654 0.821387 0.464765
C8    C     C_R   0.542238 0.544663 0.132332 0.459171
C9    C     C_R   0.705419 0.381930 0.145641 0.286251
C10   C     C_R   0.396135 0.551975 0.808849 -0.270405
C11   C     C_2   0.615026 0.063105 0.483316 0.083958
C12   C     C_R   0.427426 0.515417 0.698318 0.868499
C13   C     C_2   0.495685 0.132179 0.519736 0.325725
C14   C     C_2   0.610656 0.931831 0.502149 -0.108116
C15   C     C_2   0.502453 0.864761 0.488499 -0.296790
C16   C     C_2   0.075770 0.596899 0.497551 -0.032790
C17   C     C_2   0.933214 0.592046 0.471084 0.561561
C18   C     C_R   0.499023 0.264965 0.503096 0.760330
C19   C     C_R   0.574537 0.496129 0.301551 0.938530
C20   C     C_R   0.735396 0.359790 0.038941 0.443675
C21   C     C_R   0.612809 0.477266 0.190772 -0.351419
C22   C     C_R   0.261830 0.601853 0.858598 0.326358
C23   C     C_R   0.218528 0.610568 0.966688 0.330791
C24   C     C_R   0.309504 0.571333 0.024482 0.467442
Cu1   Cu    Cu3+1 0.361370 0.499980 0.499980 0.985122
Cu2   Cu    Cu3+1 0.638630 0.500020 0.500020 0.999101
H1    H     H_    0.702564 0.889270 0.518566 0.179525
H2    H     H_    0.414855 0.906141 0.465619 0.167263
H3    H     H_    0.116365 0.685822 0.512096 0.121349
H4    H     H_    0.872519 0.441649 0.551239 0.183346
N1    N     N_2   0.152660 0.501340 0.501130 -0.131482
N2    N     N_2   0.846520 0.501370 0.501160 -0.298526
O1    O     O_R   0.382960 0.678040 0.499980 -0.594893
O2    O     O_R   0.617100 0.678080 0.500020 -0.524368
O3    O     O_R   0.325800 0.499940 0.650950 -0.512326
O4    O     O_R   0.559930 0.499980 0.650990 -0.555902
O5    O     O_R   0.382900 0.321920 0.499980 -0.602126
O6    O     O_R   0.617040 0.321960 0.500020 -0.596183
O7    O     O_R   0.440070 0.500020 0.349010 -0.560831
O8    O     O_R   0.674200 0.500060 0.349050 -0.542672
O9    O     O_3   0.755606 0.304426 0.207834 -0.587086
C25   C     C_3   0.899874 0.330439 0.198430 -0.286261
H5    H     H_    0.931671 0.286720 0.262501 0.166054
H6    H     H_    0.919958 0.430290 0.204111 0.179531
H7    H     H_    0.967134 0.290632 0.125612 0.195216
O10   O     O_3   0.380809 0.080679 0.591854 -0.592080
C26   C     C_3   0.250888 0.100128 0.566979 -0.347154
H8    H     H_    0.262754 0.104148 0.482465 0.140796
H9    H     H_    0.198779 0.183874 0.606907 0.204675
H10   H     H_    0.178858 0.022457 0.596448 0.170494
C27   C     C_3   0.124984 0.388141 0.450389 -0.540420
H11   H     H_    0.224964 0.353731 0.397873 0.227541
H12   H     H_    0.081520 0.317985 0.508822 0.157162
H13   H     H_    0.055496 0.398062 0.398112 0.127794
O11   O     O_3   0.889102 0.686448 0.419130 -0.564333
C28   C     C_3   0.003920 0.736754 0.344075 -0.327300
H14   H     H_    0.073282 0.664815 0.297015 0.224745
H15   H     H_    0.066687 0.799994 0.380258 0.144006
H16   H     H_    0.960271 0.791147 0.290807 0.202554
O12   O     O_3   0.852121 0.393429 0.822488 -0.513221
C29   C     C_3   0.838542 0.300403 0.751887 -0.220755
H17   H     H_    0.779696 0.331266 0.696672 0.145070
H18   H     H_    0.784659 0.218930 0.792796 0.145230
H19   H     H_    0.946524 0.272198 0.706722 0.165271
O13   O     O_3   0.829141 0.268139 0.993020 -0.537262
C30   C     C_3   0.754261 0.156409 0.003468 -0.294509
H20   H     H_    0.659711 0.161067 0.971961 0.130284
H21   H     H_    0.721291 0.127673 0.085136 0.190230
H22   H     H_    0.826075 0.084833 0.958948 0.176115
O14   O     O_3   0.463977 0.646455 0.175878 -0.510495
C31   C     C_3   0.548925 0.750988 0.145905 -0.324654
H23   H     H_    0.576070 0.762874 0.060997 0.152019
H24   H     H_    0.647586 0.747491 0.172629 0.149601
H25   H     H_    0.487641 0.832503 0.182479 0.185079
O15   O     O_3   0.169569 0.637131 0.802211 -0.537675
C32   C     C_3   0.199495 0.759480 0.773037 -0.231216
H26   H     H_    0.310669 0.770373 0.724558 0.137158
H27   H     H_    0.179745 0.821553 0.841665 0.166843
H28   H     H_    0.127240 0.787356 0.726275 0.171174
O16   O     O_3   0.250381 0.552538 0.128326 -0.510957
C33   C     C_3   0.233182 0.425718 0.144982 -0.311723
H29   H     H_    0.334989 0.380863 0.144528 0.162945
H30   H     H_    0.186864 0.379159 0.087336 0.121230
H31   H     H_    0.160901 0.412164 0.222344 0.164974
O17   O     O_3   0.088225 0.660431 0.018366 -0.569077
C34   C     C_3   0.976634 0.583006 0.007989 -0.194335
H32   H     H_    0.943450 0.605201 0.937754 0.220832
H33   H     H_    0.883543 0.600113 0.074717 0.141377
H34   H     H_    0.003699 0.484229 0.007487 0.160313
O18   O     O_3   0.730486 0.575878 0.737021 -0.543263
C35   C     C_3   0.711402 0.703275 0.751296 -0.250553
H35   H     H_    0.794351 0.749586 0.691032 0.169581
H36   H     H_    0.724144 0.734511 0.827493 0.129698
H37   H     H_    0.606346 0.731796 0.742000 0.151380
C36   C     C_3   0.754235 0.110968 0.416908 -0.905326
H38   H     H_    0.829264 0.035297 0.384601 0.233005
H39   H     H_    0.734180 0.160146 0.351286 0.283591
H40   H     H_    0.807210 0.171293 0.462531 0.242173

loop_
_geom_bond_atom_site_label_1
_geom_bond_atom_site_label_2
_ccdc_geom_bond_type
Cu1   N1    S    
C30   H21   S    
O11   C28   S    
Cu2   N2    S    
O9    C25   S    
C36   H38   S    
C32   H28   S    
C4    C8    A    
C9    C21   A    
C33   H29   S    
C15   H2    S    
C36   H40   S    
C1    O1    A    
C26   H9    S    
C5    C20   A    
O17   C34   S    
C10   C22   A    
C16   N1    D    
C13   C18   S    
C19   O7    A    
C19   C21   S    
C18   O5    A    
C32   H27   S    
C3    C7    A    
C5    C6    A    
C11   C14   S    
C34   H33   S    
C30   H22   S    
C28   H14   S    
C29   H18   S    
Cu1   O5    S    
C24   O16   S    
C16   C17   S    
C23   C24   A    
O14   C31   S    
C1    C15   S    
C14   H1    S    
C12   O4    A    
C17   O11   S    
C30   H20   S    
C25   H6    S    
C22   O15   S    
C33   H30   S    
Cu2   O2    S    
C1    O2    A    
C26   H10   S    
C27   H11   S    
C6    O12   S    
C20   O13   S    
C32   H26   S    
C35   H35   S    
C31   H24   S    
C34   H32   S    
Cu2   O6    S    
Cu1   Cu2   S    
C7    O18   S    
O12   C29   S    
C27   H12   S    
C25   H7    S    
C29   H19   S    
C2    C4    A    
O15   C32   S    
C35   H36   S    
C9    C20   A    
C26   H8    S    
C8    C21   A    
C12   O3    A    
C10   C12   S    
Cu1   O3    S    
Cu2   O4    S    
C2    C24   A    
C25   H5    S    
C33   H31   S    
C11   C36   S    
O10   C26   S    
C14   C15   D    
C8    O14   S    
N1    C27   S    
O16   C33   S    
C34   H34   S    
C31   H25   S    
C36   H39   S    
C6    C7    A    
C9    O9    S    
C28   H16   S    
C27   H13   S    
C2    C3    A    
C18   O6    A    
C31   H23   S    
C3    C10   A    
Cu1   O7    S    
C35   H37   S    
H4    N2    S    
C11   C13   D    
Cu2   O8    S    
O18   C35   S    
C13   O10   S    
C28   H15   S    
C29   H17   S    
C19   O8    A    
C4    C5    A    
C16   H3    S    
O13   C30   S    
C23   O17   S    
C17   N2    D    
C22   C23   A    
Cu1   O1    S    
