data_mof_unit_36212.cif
_audit_creation_date              2012-12-11T16:57:12-0500
_audit_creation_method            fapswitch 2.2
_symmetry_space_group_name_H-M    P1
_symmetry_Int_Tables_number       1
_space_group_crystal_system       triclinic
_cell_length_a                    14.575025
_cell_length_b                    16.11578
_cell_length_c                    6.943388
_cell_angle_alpha                 89.94057
_cell_angle_beta                  98.606662
_cell_angle_gamma                 89.999886
_cell_volume                      1612.55112728

loop_
_atom_site_label
_atom_site_type_symbol
_atom_type_description
_atom_site_fract_x
_atom_site_fract_y
_atom_site_fract_z
_atom_type_partial_charge
O1    O     O_R   0.584990 0.413650 0.534420 -0.539361
O2    O     O_R   0.584990 0.586350 0.534420 -0.540878
O3    O     O_R   0.596190 0.585230 0.208380 -0.544446
O4    O     O_R   0.596190 0.414770 0.208380 -0.544764
O5    O     O_R   0.415010 0.586420 0.976930 -0.515109
O6    O     O_R   0.415010 0.413580 0.976930 -0.509464
C1    C     C_R   0.619423 0.613855 0.384274 0.700928
C2    C     C_R   0.618722 0.385638 0.384140 0.697034
O7    O     O_3   0.440560 0.500000 0.319140 -0.354619
V1    V     V_3+5 0.511030 0.500000 0.068070 1.444946
O8    O     O_R   0.403810 0.414840 0.643540 -0.540988
O9    O     O_R   0.403810 0.585160 0.643540 -0.542625
C3    C     C_R   0.379870 0.387420 0.806237 0.770758
C4    C     C_R   0.381953 0.614322 0.806272 0.766511
V2    V     V_3+5 0.488970 0.500000 0.560620 1.441167
O10   O     O_3   0.559440 0.500000 0.859420 -0.387282
H1    H     H_    0.183792 0.802488 0.805727 0.136734
H2    H     H_    0.184142 0.197427 0.805224 0.135864
C5    C     C_2   0.309794 0.679665 0.799221 -0.423584
C6    C     C_2   0.309789 0.320247 0.799499 -0.430038
C7    C     C_2   0.302642 0.729715 0.953575 0.475735
C8    C     C_2   0.269569 0.298214 0.956581 0.468666
H3    H     H_    0.233924 0.803647 0.252853 0.153141
H4    H     H_    0.216772 0.209729 0.253181 0.153467
C9    C     C_2   0.197797 0.821325 0.110385 -0.340014
C10   C     C_2   0.189003 0.185615 0.110250 -0.334315
C11   C     C_2   0.222487 0.787320 0.947583 -0.244779
C12   C     C_2   0.210390 0.222722 0.947909 -0.244189
H5    H     H_    0.260290 0.685744 0.666442 0.097071
H6    H     H_    0.292409 0.286420 0.663575 0.099151
C13   C     C_R   0.751041 0.688801 0.593049 0.105132
C14   C     C_R   0.685065 0.258748 0.568151 0.110337
C15   C     C_R   0.692468 0.679411 0.415240 -0.119312
C16   C     C_R   0.684961 0.314623 0.413189 -0.115263
C17   C     C_R   0.706625 0.734565 0.265102 -0.181457
C18   C     C_R   0.747768 0.298405 0.281743 -0.178929
H7    H     H_    0.664112 0.729469 0.125331 0.146872
H8    H     H_    0.750461 0.339444 0.159663 0.130371
C19   C     C_R   0.770524 0.800869 0.298339 -0.188979
C20   C     C_R   0.812398 0.232549 0.314319 -0.177867
H9    H     H_    0.775317 0.844693 0.182449 0.136799
H10   H     H_    0.862555 0.224796 0.215710 0.123461
C21   C     C_R   0.822778 0.814099 0.483337 -0.112577
C22   C     C_R   0.816681 0.181037 0.479961 -0.112945
C23   C     C_R   0.814294 0.754301 0.626316 0.109198
C24   C     C_R   0.749261 0.194066 0.601042 0.104787
C25   C     C_3   0.794986 0.765759 0.828943 -0.416301
C26   C     C_3   0.760897 0.205931 0.816017 -0.410190
C27   C     C_3   0.726746 0.694178 0.792799 -0.407268
C28   C     C_3   0.690595 0.275980 0.780200 -0.401833
H11   H     H_    0.760971 0.826335 0.847728 0.171400
H12   H     H_    0.735433 0.151808 0.892128 0.177776
H13   H     H_    0.856515 0.751312 0.938850 0.174822
H14   H     H_    0.831879 0.227582 0.875399 0.166113
H15   H     H_    0.653332 0.713117 0.791045 0.167173
H16   H     H_    0.624294 0.262175 0.834706 0.171519
H17   H     H_    0.748899 0.638144 0.881164 0.172262
H18   H     H_    0.720538 0.338197 0.819597 0.167384
O11   O     O_R   0.921430 0.915960 0.371040 -0.535999
O12   O     O_R   0.921430 0.084040 0.371040 -0.536722
O13   O     O_R   0.910450 0.087500 0.697310 -0.543260
O14   O     O_R   0.910450 0.912500 0.697310 -0.542989
O15   O     O_R   0.091710 0.087460 0.928430 -0.537346
O16   O     O_R   0.091710 0.912540 0.928430 -0.536579
C29   C     C_R   0.888016 0.114402 0.519431 0.692511
C30   C     C_R   0.888364 0.885339 0.519800 0.695249
O17   O     O_3   0.065970 1.000000 0.586140 -0.369507
V3    V     V_3+5 0.995640 1.000000 0.837400 1.402102
O18   O     O_R   0.103020 0.915700 0.261710 -0.542926
O19   O     O_R   0.103020 0.084300 0.261710 -0.544401
C31   C     C_R   0.125148 0.885927 0.099983 0.755452
C32   C     C_R   0.124373 0.114573 0.099872 0.748515
V4    V     V_3+5 0.017940 1.000000 0.344880 1.388549
O20   O     O_3   0.947330 0.000000 0.046180 -0.372782
O21   O     O_3   0.370802 0.727299 0.116636 -0.556673
C33   C     C_3   0.423368 0.801747 0.130799 0.083790
H19   H     H_    0.471543 0.799277 0.270762 0.135779
H20   H     H_    0.379236 0.857570 0.138443 0.116741
C34   C     C_3   0.481220 0.811025 0.963911 -0.334467
H21   H     H_    0.521137 0.753258 0.951416 0.182728
H22   H     H_    0.434805 0.820802 0.823590 0.180679
C35   C     C_3   0.547233 0.884847 0.997224 -0.850751
H23   H     H_    0.507137 0.943540 0.994923 0.234985
H24   H     H_    0.591261 0.887180 0.879913 0.228053
H25   H     H_    0.592850 0.879314 0.139622 0.235962
O22   O     O_3   0.288581 0.342221 0.130142 -0.550548
C36   C     C_3   0.209504 0.388418 0.162365 0.085629
H26   H     H_    0.214551 0.398350 0.321954 0.132295
H27   H     H_    0.142761 0.355122 0.116303 0.099777
C37   C     C_3   0.207588 0.473400 0.062021 -0.296852
H28   H     H_    0.273581 0.506549 0.111250 0.232222
H29   H     H_    0.200255 0.465059 0.901632 0.160389
C38   C     C_3   0.127383 0.526651 0.109465 -0.852080
H30   H     H_    0.060052 0.495640 0.058691 0.227207
H31   H     H_    0.128253 0.587581 0.034818 0.238591
H32   H     H_    0.134239 0.537565 0.268937 0.229477

loop_
_geom_bond_atom_site_label_1
_geom_bond_atom_site_label_2
_ccdc_geom_bond_type
C36   H26   S    
C38   H30   S    
O1    C2    A    
C10   C32   S    
V4    O20   S    
O2    C1    A    
C33   C34   S    
O4    C2    A    
C25   C27   S    
C6    H6    S    
C26   H14   S    
O16   V3    S    
C5    C7    D    
H4    C10   S    
O3    C1    A    
O11   C30   A    
V3    O20   S    
V2    O10   S    
O12   V4    S    
C27   H17   S    
O16   C31   A    
O18   C31   A    
O8    V2    S    
C13   C15   A    
O18   V4    S    
O1    V2    S    
O7    V1    S    
O11   V4    S    
C25   H13   S    
C20   H10   S    
C7    C11   S    
C38   H31   S    
C8    C12   S    
C1    C15   S    
C22   C29   S    
C13   C27   S    
C22   C24   A    
C23   C25   S    
C24   C26   S    
O14   C30   A    
O17   V3    S    
C28   H18   S    
C18   C20   A    
H2    C12   S    
C33   H19   S    
C19   H9    S    
C34   H22   S    
O22   C36   S    
C25   H11   S    
C27   H15   S    
C28   H16   S    
H1    C11   S    
C17   C19   A    
O21   C33   S    
C37   H29   S    
O9    V2    S    
C20   C22   A    
O19   V4    S    
C2    C16   S    
O2    V2    S    
C21   C23   A    
C14   C28   S    
O5    C4    A    
C9    C31   S    
O17   V4    S    
O9    C4    A    
O12   C29   A    
C38   H32   S    
C35   H24   S    
C36   H27   S    
C6    C8    D    
O4    V1    S    
C5    H5    S    
C37   C38   S    
O15   V3    S    
C3    C6    S    
C17   H7    S    
C14   C24   A    
C4    C5    S    
C33   H20   S    
O6    V1    S    
C34   C35   S    
C19   C21   A    
C9    C11   D    
C35   H25   S    
C7    O21   S    
C10   C12   D    
O14   V3    S    
C18   H8    S    
O7    V2    S    
O5    V1    S    
O3    V1    S    
V1    O10   S    
O6    C3    A    
O8    C3    A    
O13   V3    S    
C37   H28   S    
C21   C30   S    
C26   C28   S    
C15   C17   A    
C16   C18   A    
C8    O22   S    
C34   H21   S    
O13   C29   A    
C26   H12   S    
H3    C9    S    
O15   C32   A    
C35   H23   S    
C13   C23   A    
C36   C37   S    
O19   C32   A    
C14   C16   A    
