data_mof_unit_24896.cif
_audit_creation_date              2013-03-05T16:03:35-0500
_audit_creation_method            fapswitch 2.2
_symmetry_space_group_name_H-M    P1
_symmetry_Int_Tables_number       1
_space_group_crystal_system       triclinic
_cell_length_a                    8.372058
_cell_length_b                    14.568101
_cell_length_c                    23.159717
_cell_angle_alpha                 95.426191
_cell_angle_beta                  90.299645
_cell_angle_gamma                 92.074542
_cell_volume                      2810.06740361

loop_
_atom_site_label
_atom_site_type_symbol
_atom_site_description
_atom_site_fract_x
_atom_site_fract_y
_atom_site_fract_z
_atom_type_partial_charge
P1    P     P_3+3 0.074990 0.420800 0.372080 0.547938
O1    O     O_2   0.901900 0.448470 0.362340 -0.307506
O2    O     O_3   0.142240 0.449440 0.433360 -0.344304
O3    O     O_3   0.645560 0.619080 0.391970 -0.401998
O4    O     O_2   0.791432 0.563198 0.294074 -0.435374
O5    O     O_3   0.028348 0.302123 0.358506 -0.621033
O6    O     O_3   0.638938 0.716912 0.292040 -0.494432
H1    H     H_    0.761165 0.769360 0.366786 0.142533
C1    C     C_3   0.679562 0.881696 0.321912 -0.769658
H2    H     H_    0.707911 0.929621 0.361149 0.152826
H3    H     H_    0.781913 0.886338 0.292100 0.256798
P2    P     P_3+3 0.618830 0.715330 0.538180 0.524501
P3    P     P_3+3 0.079288 0.785789 0.412934 0.519523
O7    O     O_2   0.793170 0.729090 0.520590 -0.352315
O8    O     O_3   0.052800 0.667320 0.419180 -0.325419
O9    O     O_2   0.951184 0.833987 0.451757 -0.373174
O10   O     O_3   0.654989 0.753387 0.611940 -0.558916
O11   O     O_3   0.035197 0.813828 0.342200 -0.610031
C2    C     C_3   0.072015 0.741089 0.300227 0.737987
H4    H     H_    0.015705 0.675077 0.311222 0.071359
C3    C     C_3   0.004856 0.760111 0.240959 -0.865801
H5    H     H_    0.873482 0.760020 0.240932 0.262488
H6    H     H_    0.051386 0.827918 0.228706 0.275270
C4    C     C_3   0.064162 0.751079 0.613765 0.170975
H7    H     H_    0.944843 0.720134 0.602492 0.181864
C5    C     C_3   0.040266 0.850337 0.642674 -0.189386
H8    H     H_    0.084542 0.856011 0.688294 0.214185
H9    H     H_    0.910390 0.863216 0.645017 0.141135
Ba1   Ba    Ba6+2 0.846250 0.544220 0.470860 1.669672
C6    C     C_3   0.156745 0.246394 0.366915 0.664665
H10   H     H_    0.272622 0.285268 0.366009 0.059358
C7    C     C_3   0.155069 0.164998 0.319156 -0.802795
H11   H     H_    0.038519 0.126050 0.319540 0.201851
H12   H     H_    0.250952 0.117284 0.328304 0.215201
C8    C     C_3   0.536713 0.725310 0.649747 0.272319
H13   H     H_    0.425006 0.701204 0.626893 0.056601
C9    C     C_3   0.502626 0.803439 0.697473 -0.123936
H14   H     H_    0.611051 0.820635 0.724999 0.162628
H15   H     H_    0.407004 0.778312 0.725935 0.101854
P4    P     P_3+3 0.114710 0.579280 0.627920 0.514757
O12   O     O_2   0.287790 0.551560 0.637690 -0.409527
O13   O     O_3   0.047460 0.550640 0.566640 -0.356824
O14   O     O_3   0.544140 0.380990 0.608030 -0.396293
O15   O     O_3   0.136144 0.697611 0.652272 -0.610965
P5    P     P_3+3 0.110686 0.213194 0.584098 0.562880
O16   O     O_3   0.640350 0.387150 0.474440 -0.341889
O17   O     O_3   0.136890 0.332750 0.580830 -0.388416
O18   O     O_2   0.251283 0.167467 0.550639 -0.293028
O19   O     O_3   0.142805 0.188924 0.655515 -0.496648
Ba2   Ba    Ba6+2 0.343570 0.455860 0.529140 1.663063
P6    P     P_3+3 0.634267 0.605507 0.316211 0.515668
C10   C     C_3   0.656866 0.783644 0.340235 0.418150
H16   H     H_    0.551311 0.782389 0.368125 0.081923
O20   O     O_3   0.549340 0.612930 0.525560 -0.337164
C11   C     C_3   0.685824 0.228788 0.354092 0.117859
H17   H     H_    0.750500 0.295203 0.350640 0.209462
H18   H     H_    0.759007 0.182017 0.377878 0.056307
C12   C     C_3   0.652833 0.181839 0.293093 -0.014258
H19   H     H_    0.554118 0.129051 0.294561 0.133823
H20   H     H_    0.761226 0.145816 0.277129 0.082912
P7    P     P_3+3 0.572698 0.270610 0.456052 0.468191
O21   O     O_2   0.396530 0.270940 0.479440 -0.302233
O22   O     O_3   0.540464 0.247097 0.381482 -0.585440
H21   H     H_    0.038450 0.704889 0.207449 0.251086
C13   C     C_3   0.071768 0.257538 0.692340 0.127381
H22   H     H_    0.134431 0.325311 0.688951 0.113336
H23   H     H_    0.943245 0.263343 0.681083 0.048913
C14   C     C_3   0.083488 0.235364 0.755382 -0.105707
H24   H     H_    0.038440 0.295798 0.781666 0.134812
P8    P     P_3+3 0.560804 0.391954 0.684379 0.458169
C15   C     C_3   0.581092 0.217117 0.658812 0.356466
H25   H     H_    0.672774 0.237223 0.627472 0.019821
O23   O     O_2   0.398268 0.425499 0.708074 -0.413396
O24   O     O_3   0.577396 0.281751 0.707731 -0.499139
H26   H     H_    0.461569 0.210331 0.637569 0.167547
H27   H     H_    0.755562 0.122083 0.683766 0.249111
C16   C     C_3   0.624746 0.123878 0.677085 -0.743574
H28   H     H_    0.589256 0.069270 0.642385 0.249565
H29   H     H_    0.563877 0.110156 0.717898 0.302675
H30   H     H_    0.056072 0.264988 0.047147 0.207351
C17   C     C_R   0.351452 0.500288 0.327887 -0.315536
C18   C     C_R   0.126642 0.565643 0.936568 -0.036675
C19   C     C_R   0.080486 0.563561 0.877093 0.566359
O25   O     O_2   0.107073 0.631624 0.851129 -0.569293
N1    N     N_R   0.001135 0.486656 0.848842 -0.161654
C20   C     C_R   0.966320 0.411283 0.880198 0.496955
O26   O     O_2   0.875247 0.349638 0.859388 -0.579454
C21   C     C_R   0.029612 0.406308 0.937308 -0.112440
C22   C     C_R   0.102053 0.486793 0.966733 0.022148
C23   C     C_R   0.199338 0.645083 0.966200 -0.191120
C24   C     C_R   0.246268 0.648208 0.024801 -0.089924
C25   C     C_R   0.214253 0.570559 0.056970 -0.060985
C26   C     C_R   0.148105 0.488886 0.026642 -0.008894
C27   C     C_R   0.018479 0.324654 0.966925 -0.099772
C28   C     C_R   0.065777 0.327699 0.025455 -0.044582
C29   C     C_R   0.128225 0.408929 0.056064 -0.095970
C30   C     C_R   0.174621 0.410540 0.115245 0.533029
N2    N     N_R   0.222632 0.492505 0.146956 -0.180728
C31   C     C_R   0.240484 0.572078 0.118338 0.525129
C32   C     C_2   0.792178 0.463216 0.772574 -0.146256
C33   C     C_3   0.733528 0.471331 0.711434 0.229252
C34   C     C_1   0.005998 0.515794 0.684341 0.302387
C35   C     C_2   0.056968 0.516194 0.739766 -0.173609
C36   C     C_2   0.946419 0.487273 0.787825 0.100130
C37   C     C_R   0.413746 0.530095 0.229289 -0.065065
C38   C     C_R   0.456613 0.535229 0.288081 0.349297
C39   C     C_R   0.197778 0.466118 0.311624 0.167110
C40   C     C_R   0.150989 0.463175 0.251321 -0.257817
C41   C     C_R   0.261862 0.494698 0.209430 0.061215
O27   O     O_2   0.172337 0.338605 0.138478 -0.552996
O28   O     O_2   0.274849 0.644942 0.146616 -0.516970
C42   C     C_2   0.868520 0.471805 0.668443 -0.514435
H31   H     H_    0.497301 0.556929 0.198978 0.158934
H32   H     H_    0.223524 0.705393 0.943090 0.172595
H33   H     H_    0.179769 0.537283 0.750700 0.178427
H34   H     H_    0.705141 0.447588 0.805107 0.190547
H35   H     H_    0.387322 0.504282 0.373062 0.152670
C43   C     C_R   0.692441 0.939798 0.529009 -0.011595
C44   C     C_R   0.520676 0.800881 0.494090 0.149557
C45   C     C_R   0.387837 0.767414 0.460320 -0.424097
C46   C     C_R   0.280395 0.827775 0.438616 0.355825
C47   C     C_R   0.322005 0.920816 0.439512 -0.273772
C48   C     C_R   0.463608 0.956276 0.466601 0.060827
C49   C     C_R   0.561089 0.898017 0.496926 0.023508
H36   H     H_    0.360093 0.694012 0.455439 0.208833
C50   C     C_R   0.638285 0.090783 0.495045 -0.000180
C51   C     C_R   0.731146 0.034985 0.528268 0.042173
C52   C     C_R   0.683235 0.185586 0.493822 0.130043
C53   C     C_R   0.822544 0.220204 0.522055 -0.386719
C54   C     C_R   0.916650 0.165594 0.553425 0.295363
C55   C     C_R   0.863607 0.075379 0.559926 -0.229268
C56   C     C_R   0.503948 0.050491 0.465142 -0.151956
H37   H     H_    0.241907 0.965712 0.419779 0.195892
H38   H     H_    0.922734 0.038186 0.590824 0.208093
H39   H     H_    0.859351 0.290437 0.517951 0.173888
H40   H     H_    0.766321 0.898944 0.554222 0.168153
H41   H     H_    0.429702 0.091974 0.440344 0.174878
N3    N     N_R   0.118282 0.923517 0.612263 0.240109
O29   O     O_R   0.178333 0.996644 0.642197 -0.252073
O30   O     O_R   0.099520 0.925635 0.556559 -0.432626
N4    N     N_R   0.133455 0.212768 0.423382 0.234435
O31   O     O_R   0.112220 0.125420 0.430003 -0.455072
O32   O     O_R   0.099665 0.273264 0.465685 -0.360194
C57   C     C_2   0.177777 0.195599 0.259695 0.735813
H42   H     H_    0.104065 0.247965 0.244651 0.091315
O33   O     O_2   0.276261 0.159612 0.227053 -0.490459
C58   C     C_2   0.603398 0.651490 0.681676 0.474305
H43   H     H_    0.526853 0.595350 0.693467 0.039643
O34   O     O_2   0.740379 0.660346 0.700385 -0.598769
N5    N     N_R   0.451875 0.888513 0.676264 0.270444
O35   O     O_R   0.465977 0.903593 0.622150 -0.412975
O36   O     O_R   0.411084 0.955139 0.714017 -0.346026
C59   C     C_2   0.531568 0.913482 0.294451 0.808634
H44   H     H_    0.421779 0.918869 0.319014 -0.026926
O37   O     O_2   0.533755 0.934324 0.244634 -0.504894
N6    N     N_R   0.610205 0.248830 0.252993 0.306576
O38   O     O_R   0.501452 0.308521 0.266579 -0.396804
O39   O     O_R   0.672851 0.244770 0.201568 -0.297918
C60   C     C_2   0.253234 0.222850 0.773609 0.642117
H45   H     H_    0.318624 0.165376 0.753843 0.107615
O40   O     O_2   0.318047 0.276614 0.810912 -0.569481
N7    N     N_R   0.983963 0.153729 0.765109 0.245684
O41   O     O_R   0.022361 0.072159 0.742958 -0.336003
O42   O     O_R   0.853484 0.162386 0.795072 -0.333688
C61   C     C_2   0.972696 0.232758 0.937050 0.698669
H46   H     H_    0.999267 0.216838 0.891614 0.086648
O43   O     O_2   0.908980 0.172782 0.963427 -0.538415
C62   C     C_2   0.337160 0.732906 0.048241 0.706249
H47   H     H_    0.301681 0.799656 0.036467 -0.000614
O44   O     O_2   0.458893 0.728603 0.076974 -0.500476
C63   C     C_2   0.987820 0.432725 0.230896 0.749731
H48   H     H_    0.936922 0.460890 0.193470 -0.021767
O45   O     O_2   0.909563 0.374545 0.253958 -0.553405
N8    N     N_R   0.244428 0.731468 0.296767 0.193623
O46   O     O_R   0.325345 0.752466 0.251730 -0.332618
O47   O     O_R   0.315918 0.693491 0.337510 -0.537174
C64   C     C_2   0.823198 0.458556 0.607300 0.747732
H49   H     H_    0.875623 0.405552 0.579297 -0.043181
O48   O     O_2   0.734575 0.512426 0.587400 -0.509368
C65   C     C_2   0.168825 0.748989 0.562769 0.631775
H50   H     H_    0.277904 0.790553 0.564492 -0.000620
O49   O     O_2   0.138765 0.693832 0.521547 -0.545211

loop_
_geom_bond_atom_site_label_1
_geom_bond_atom_site_label_2
_geom_bond_distance
_ccdc_geom_bond_type
C6    C7    1.542804 S    
C11   H17   1.101303 S    
C17   C39   1.399290 A    
C50   C51   1.419495 A    
C48   C56   1.405128 A    
C34   C42   1.329865 D    
C28   C29   1.403175 A    
C32   H34   1.084752 S    
C9    N5    1.452211 S    
C63   H48   1.085025 S    
C55   H38   1.067589 S    
C52   C53   1.388962 A    
C30   N2    1.386746 Am   
P8    C33   1.885017 S    
C48   C49   1.427054 A    
C61   H46   1.081949 S    
C44   C49   1.438329 A    
C45   C46   1.403976 A    
C33   C42   1.510351 S    
C63   O45   1.217360 D    
C5    H8    1.112517 S    
Ba2   O20   2.821796 S    
C18   C22   1.409296 A    
O19   C13   1.402611 S    
P3    O11   1.765760 S    
O1    Ba1   2.806369 S    
C37   H31   1.082674 S    
N6    O38   1.301059 A    
C2    C3    1.533666 S    
C4    C5    1.555129 S    
O6    C10   1.412790 S    
O11   C2    1.412392 S    
N4    O32   1.293942 A    
C60   H45   1.083330 S    
C6    H10   1.106792 S    
Ba1   O13   2.770788 S    
C20   C21   1.431449 A    
C62   O44   1.221005 D    
Ba1   O20   2.959564 S    
C12   H20   1.112158 S    
C17   H35   1.082634 S    
C32   C36   1.361666 D    
C40   C41   1.441038 A    
O2    Ba1   2.974043 S    
P1    O1    1.539283 D    
P7    O22   1.746229 S    
N8    O46   1.301221 A    
C32   C33   1.512843 S    
C3    H21   1.108700 S    
C58   H43   1.077163 S    
C34   C35   1.350005 D    
C53   H39   1.070845 S    
C2    H4    1.107547 S    
C14   H24   1.101353 S    
C64   O48   1.218915 D    
C11   O22   1.397883 S    
P2    O10   1.766493 S    
C4    C65   1.472954 S    
C39   C40   1.444828 A    
C60   O40   1.220908 D    
C50   C56   1.398662 A    
C59   O37   1.220554 D    
C14   C60   1.502681 S    
C1    H2    1.111445 S    
H1    C10   1.102554 S    
O3    Ba1   2.797849 S    
C19   N1    1.388363 Am   
C16   H28   1.107456 S    
C1    H3    1.107409 S    
C16   H29   1.107486 S    
C1    C59   1.497678 S    
P5    C54   1.854090 S    
C61   O43   1.221370 D    
N2    C41   1.479148 S    
C3    H5    1.099817 S    
C27   C28   1.406414 A    
C1    C10   1.533762 S    
C27   C61   1.484184 S    
O2    Ba2   2.771393 S    
C65   O49   1.207563 D    
O8    Ba1   2.800353 S    
O17   Ba2   2.801213 S    
N7    O42   1.300806 A    
Ba1   Ba2   4.633803 S    
P5    O17   1.756372 S    
C3    H6    1.111038 S    
C21   C27   1.428681 A    
O3    P6    1.748656 S    
P1    O5    1.757105 S    
C24   C62   1.482307 S    
H27   C16   1.106868 S    
C57   O33   1.220254 D    
C24   C25   1.430409 A    
C45   H36   1.081240 S    
C43   C49   1.410445 A    
O16   P7    1.782041 S    
C13   H23   1.113882 S    
C56   H41   1.081919 S    
N1    C20   1.395660 Am   
C18   C19   1.425897 A    
P1    O2    1.538808 S    
C8    H13   1.101816 S    
C7    H12   1.113062 S    
C35   H33   1.084058 S    
C47   H37   1.082312 S    
P8    O24   1.751812 S    
C9    H14   1.113749 S    
P2    C44   1.891373 S    
P3    C46   1.846297 S    
C19   O25   1.221686 D    
P5    O19   1.745232 S    
C13   C14   1.528284 S    
C31   O28   1.217739 D    
C29   C30   1.420460 A    
P8    O23   1.548187 D    
P1    Ba1   3.413348 S    
C13   H22   1.110757 S    
P4    Ba2   3.413933 S    
C11   H18   1.113912 S    
C8    C58   1.484776 S    
C4    H7    1.100769 S    
H30   C28   1.084185 S    
C6    N4    1.450896 S    
C46   C47   1.385434 A    
N1    C36   1.484178 S    
C12   N6    1.461335 S    
O13   Ba2   2.974899 S    
C62   H47   1.085545 S    
O5    C6    1.394085 S    
P2    O7    1.528729 D    
N2    C31   1.392553 Am   
C26   C29   1.409287 A    
P3    O8    1.751733 S    
C4    O15   1.387432 S    
N5    O36   1.299943 A    
C40   C63   1.482004 S    
C43   C51   1.414296 A    
O7    Ba1   2.877965 S    
O12   Ba2   2.806861 S    
C15   C16   1.516806 S    
C43   H40   1.079979 S    
C10   H16   1.097966 S    
C8    C9    1.545169 S    
N7    O41   1.301049 A    
P5    O18   1.548705 D    
C37   C41   1.412770 A    
C17   C38   1.396041 A    
P4    O12   1.539545 D    
C50   C52   1.421186 A    
C58   O34   1.221923 D    
C20   O26   1.218550 D    
C12   H19   1.111211 S    
C57   H42   1.079963 S    
C5    N3    1.468202 S    
P2    Ba1   3.450994 S    
C15   O24   1.404231 S    
C44   C45   1.402065 A    
O14   Ba2   2.797305 S    
N3    O30   1.302186 A    
C14   N7    1.462972 S    
O14   P8    1.764641 S    
C37   C38   1.400742 A    
O16   Ba2   2.958633 S    
C5    H9    1.110816 S    
C18   C23   1.405398 A    
Ba1   O16   2.822429 S    
C7    H11   1.111350 S    
N6    O39   1.300940 A    
C54   C55   1.393928 A    
C53   C54   1.389305 A    
C2    N8    1.457167 S    
O6    P6    1.765315 S    
C15   H25   1.109751 S    
C9    H15   1.113254 S    
N4    O31   1.302001 A    
C15   H26   1.109790 S    
C30   O27   1.222050 D    
C23   C24   1.407065 A    
C11   C12   1.529501 S    
P6    C38   1.854251 S    
Ba2   O21   2.878214 S    
P4    O13   1.538806 S    
C25   C26   1.416292 A    
N8    O47   1.292865 A    
P7    C52   1.853443 S    
C23   H32   1.084704 S    
C22   C26   1.435327 A    
P7    O21   1.573882 D    
C51   C55   1.405815 A    
C7    C57   1.497997 S    
N3    O29   1.298548 A    
P4    C34   1.889786 S    
P1    C39   1.895723 S    
P4    O15   1.764831 S    
C21   C22   1.414245 A    
C64   H49   1.068785 S    
P3    O9    1.548199 D    
C35   C36   1.531075 S    
N5    O35   1.297929 A    
O4    P6    1.542750 D    
O10   C8    1.400704 S    
C47   C48   1.397309 A    
P2    O20   1.581833 S    
C65   H50   1.075736 S    
C25   C31   1.434983 A    
C42   C64   1.457326 S    
C59   H44   1.084840 S    
