data_mof_unit_22294.cif
_audit_creation_date              2013-03-05T15:40:06-0500
_audit_creation_method            fapswitch 2.2
_symmetry_space_group_name_H-M    P1
_symmetry_Int_Tables_number       1
_space_group_crystal_system       triclinic
_cell_length_a                    28.227207
_cell_length_b                    18.468602
_cell_length_c                    17.073669
_cell_angle_alpha                 89.806039
_cell_angle_beta                  60.808349
_cell_angle_gamma                 89.674444
_cell_volume                      7770.20558917

loop_
_atom_site_label
_atom_site_type_symbol
_atom_site_description
_atom_site_fract_x
_atom_site_fract_y
_atom_site_fract_z
_atom_type_partial_charge
O1    O     O_R   0.746490 0.236330 0.638080 -0.623809
O2    O     O_R   0.253510 0.763670 0.361920 -0.646529
O3    O     O_R   0.253510 0.236330 0.361920 -0.625476
O4    O     O_R   0.746490 0.763670 0.638080 -0.623444
O5    O     O_R   0.246490 0.736330 0.638080 -0.623684
O6    O     O_R   0.753510 0.263670 0.361920 -0.646663
O7    O     O_R   0.753510 0.736330 0.361920 -0.625482
O8    O     O_R   0.246490 0.263670 0.638080 -0.623441
O9    O     O_R   0.674170 0.186160 0.516270 -0.646760
O10   O     O_R   0.325830 0.813840 0.483730 -0.632215
O11   O     O_R   0.325830 0.186160 0.483730 -0.625672
O12   O     O_R   0.674170 0.813840 0.516270 -0.630070
O13   O     O_R   0.174170 0.686160 0.516270 -0.646770
O14   O     O_R   0.825830 0.313840 0.483730 -0.632298
O15   O     O_R   0.825830 0.686160 0.483730 -0.625667
O16   O     O_R   0.174170 0.313840 0.516270 -0.630074
O17   O     O_R   0.739960 0.127620 0.525000 -0.628850
O18   O     O_R   0.260040 0.872380 0.475000 -0.627484
O19   O     O_R   0.260040 0.127620 0.475000 -0.627459
O20   O     O_R   0.739960 0.872380 0.525000 -0.623189
O21   O     O_R   0.239960 0.627620 0.525000 -0.628863
O22   O     O_R   0.760040 0.372380 0.475000 -0.627456
O23   O     O_R   0.760040 0.627620 0.475000 -0.627463
O24   O     O_R   0.239960 0.372380 0.525000 -0.623189
O25   O     O_R   0.680700 0.294870 0.629350 -0.621817
O26   O     O_R   0.319300 0.705130 0.370650 -0.638278
O27   O     O_R   0.319300 0.294870 0.370650 -0.636064
O28   O     O_R   0.680700 0.705130 0.629350 -0.632980
O29   O     O_R   0.180700 0.794870 0.629350 -0.621849
O30   O     O_R   0.819300 0.205130 0.370650 -0.638244
O31   O     O_R   0.819300 0.794870 0.370650 -0.636054
O32   O     O_R   0.180700 0.205130 0.629350 -0.632991
C1    C     C_R   0.701896 0.268814 0.675800 0.923616
C2    C     C_R   0.298107 0.731178 0.324160 0.877549
C3    C     C_R   0.298021 0.268990 0.324299 0.894977
C4    C     C_R   0.701902 0.731152 0.675748 0.899834
C5    C     C_R   0.201893 0.768808 0.675800 0.923618
C6    C     C_R   0.798099 0.231161 0.324163 0.877543
C7    C     C_R   0.798021 0.768990 0.324299 0.894976
C8    C     C_R   0.201903 0.231152 0.675748 0.899832
C9    C     C_R   0.696789 0.127905 0.517028 0.907949
C10   C     C_R   0.308516 0.870669 0.465479 0.911865
C11   C     C_R   0.308881 0.129448 0.464412 0.902920
C12   C     C_R   0.691563 0.870884 0.532983 0.899630
C13   C     C_R   0.196786 0.627904 0.517038 0.907912
C14   C     C_R   0.808516 0.370669 0.465479 0.911930
C15   C     C_R   0.808880 0.629447 0.464413 0.902929
C16   C     C_R   0.191562 0.370883 0.532987 0.899626
Zn1   Zn    Zn3+2 0.792340 0.208750 0.507670 0.972969
Zn2   Zn    Zn3+2 0.207660 0.791250 0.492330 0.963834
Zn3   Zn    Zn3+2 0.207660 0.208750 0.492330 0.977113
Zn4   Zn    Zn3+2 0.792340 0.791250 0.507670 0.979781
Zn5   Zn    Zn3+2 0.292340 0.708750 0.507670 0.973207
Zn6   Zn    Zn3+2 0.707660 0.291250 0.492330 0.963646
Zn7   Zn    Zn3+2 0.707660 0.708750 0.492330 0.977137
Zn8   Zn    Zn3+2 0.292340 0.291250 0.507670 0.979755
C17   C     C_R   0.557974 0.998248 0.473974 0.033301
C18   C     C_R   0.469569 0.998655 0.440339 0.028161
C19   C     C_R   0.057956 0.498250 0.474024 0.033353
C20   C     C_R   0.969554 0.498655 0.440381 0.028217
C21   C     C_R   0.545087 0.061957 0.441437 0.042867
C22   C     C_R   0.488873 0.932842 0.456912 0.063857
C23   C     C_R   0.497814 0.063698 0.431675 0.061184
C24   C     C_R   0.528925 0.933899 0.483744 0.068426
C25   C     C_R   0.045061 0.561962 0.441504 0.042591
C26   C     C_R   0.988860 0.432842 0.456952 0.063907
C27   C     C_R   0.997792 0.563701 0.431732 0.061118
C28   C     C_R   0.028911 0.433899 0.483785 0.068468
C29   C     C_R   0.613042 0.935877 0.529801 0.084854
C30   C     C_R   0.397472 0.065075 0.428938 0.074865
C31   C     C_R   0.395957 0.933124 0.434632 0.072347
C32   C     C_R   0.631806 0.061292 0.481659 0.050733
C33   C     C_R   0.113035 0.435875 0.529827 0.084862
C34   C     C_R   0.897465 0.565073 0.428954 0.074853
C35   C     C_R   0.895952 0.433124 0.434646 0.072361
C36   C     C_R   0.131792 0.561293 0.481696 0.050560
C37   C     C_R   0.659855 0.935973 0.541622 -0.124537
C38   C     C_R   0.343613 0.064809 0.441136 -0.121474
C39   C     C_R   0.343027 0.934646 0.443134 -0.120277
C40   C     C_R   0.670266 0.062539 0.513182 -0.105052
C41   C     C_R   0.159852 0.435971 0.541636 -0.124538
C42   C     C_R   0.843610 0.564807 0.441140 -0.121472
C43   C     C_R   0.843026 0.434645 0.443136 -0.120292
C44   C     C_R   0.170260 0.562538 0.513202 -0.105039
C45   C     C_R   0.683770 0.000197 0.542082 -0.292153
C46   C     C_R   0.318803 0.999924 0.443782 -0.285383
C47   C     C_R   0.183767 0.500196 0.542094 -0.292138
C48   C     C_R   0.818801 0.499922 0.443780 -0.285375
C49   C     C_R   0.600561 0.998661 0.495900 0.084330
C50   C     C_R   0.421156 0.999009 0.433965 0.083519
C51   C     C_R   0.100548 0.498661 0.495939 0.084332
C52   C     C_R   0.921147 0.499008 0.433990 0.083531
C53   C     C_R   0.078892 0.375425 0.549407 -0.156488
C54   C     C_R   0.928784 0.628313 0.411566 -0.170401
C55   C     C_R   0.925180 0.368593 0.426407 -0.166102
C56   C     C_R   0.124081 0.619463 0.435188 -0.114706
C57   C     C_R   0.578898 0.875429 0.549384 -0.156514
C58   C     C_R   0.428793 0.128315 0.411545 -0.170416
C59   C     C_R   0.425184 0.868593 0.426391 -0.165991
C60   C     C_R   0.624106 0.119457 0.435132 -0.115012
C61   C     C_R   0.038741 0.373661 0.524590 -0.166306
C62   C     C_R   0.977511 0.627852 0.413706 -0.170331
C63   C     C_R   0.968679 0.367962 0.442863 -0.168950
C64   C     C_R   0.080356 0.621143 0.419194 -0.134889
C65   C     C_R   0.538750 0.873664 0.524560 -0.166306
C66   C     C_R   0.477529 0.127850 0.413660 -0.170284
C67   C     C_R   0.468688 0.867962 0.442836 -0.168738
C68   C     C_R   0.580391 0.121131 0.419106 -0.134707
H1    H     H_    0.653381 0.218869 0.062392 0.196387
H2    H     H_    0.347632 0.781047 0.935659 0.194157
H3    H     H_    0.347811 0.224753 0.933777 0.194443
H4    H     H_    0.651187 0.776932 0.067138 0.193195
H5    H     H_    0.153292 0.719467 0.062719 0.196273
H6    H     H_    0.847481 0.281553 0.936060 0.194314
H7    H     H_    0.847809 0.724749 0.933780 0.194450
H8    H     H_    0.151187 0.276925 0.067141 0.193190
C69   C     C_R   0.722465 0.267977 0.951518 -0.085301
C70   C     C_R   0.278318 0.732746 0.047364 -0.084511
C71   C     C_R   0.277563 0.269157 0.047995 -0.080996
C72   C     C_R   0.721462 0.732566 0.952919 -0.080501
C73   C     C_R   0.222498 0.768019 0.951479 -0.085201
C74   C     C_R   0.778290 0.232690 0.047388 -0.084614
C75   C     C_R   0.777562 0.769159 0.047996 -0.081001
C76   C     C_R   0.221463 0.232565 0.952919 -0.080496
C77   C     C_R   0.778034 0.285667 0.915328 0.339461
C78   C     C_R   0.222767 0.714930 0.083393 0.349264
C79   C     C_R   0.221257 0.283903 0.085907 0.340125
C80   C     C_R   0.777748 0.717828 0.915067 0.337209
C81   C     C_R   0.278135 0.785378 0.915087 0.339620
C82   C     C_R   0.722808 0.214552 0.083221 0.348961
C83   C     C_R   0.721256 0.783907 0.085905 0.340116
C84   C     C_R   0.277750 0.217829 0.915064 0.337217
C85   C     C_R   0.805187 0.267061 0.963302 -0.296750
C86   C     C_R   0.195616 0.733779 0.035523 -0.295061
C87   C     C_R   0.194033 0.264588 0.038406 -0.294834
C88   C     C_R   0.804970 0.737141 0.962528 -0.293270
C89   C     C_R   0.305284 0.766789 0.963071 -0.296627
C90   C     C_R   0.695650 0.233413 0.035359 -0.295229
C91   C     C_R   0.694033 0.764593 0.038404 -0.294802
C92   C     C_R   0.304970 0.237143 0.962526 -0.293303
C93   C     C_R   0.644489 0.327499 0.945194 -0.172144
C94   C     C_R   0.356083 0.673247 0.054243 -0.171045
C95   C     C_R   0.355303 0.328689 0.054921 -0.170320
C96   C     C_R   0.644011 0.672451 0.945682 -0.171506
C97   C     C_R   0.144529 0.827566 0.945148 -0.172437
C98   C     C_R   0.856079 0.173243 0.054235 -0.170740
C99   C     C_R   0.855303 0.828690 0.054922 -0.170250
C100  C     C_R   0.144012 0.172450 0.945681 -0.171571
H9    H     H_    0.631358 0.348116 0.012075 0.159413
H10   H     H_    0.369353 0.652759 0.987260 0.160210
H11   H     H_    0.368408 0.349591 0.988100 0.161169
H12   H     H_    0.630818 0.651732 0.012611 0.160022
H13   H     H_    0.131414 0.848213 0.012011 0.159492
H14   H     H_    0.869360 0.152779 0.987239 0.160155
H15   H     H_    0.868408 0.849592 0.988100 0.161167
H16   H     H_    0.130819 0.151731 0.012610 0.160025
C101  C     C_R   0.616776 0.347298 0.898291 -0.072412
C102  C     C_R   0.383487 0.653037 0.101488 -0.073724
C103  C     C_R   0.382945 0.348037 0.102014 -0.071771
C104  C     C_R   0.616730 0.652440 0.898230 -0.071676
C105  C     C_R   0.116797 0.847331 0.898269 -0.072393
C106  C     C_R   0.883487 0.153039 0.101481 -0.073737
C107  C     C_R   0.882946 0.848038 0.102014 -0.071781
C108  C     C_R   0.116730 0.152439 0.898230 -0.071667
C109  C     C_R   0.633219 0.321998 0.813348 -0.256021
C110  C     C_R   0.366876 0.678116 0.186584 -0.259847
C111  C     C_R   0.366457 0.322522 0.186948 -0.261494
C112  C     C_R   0.633369 0.677672 0.813115 -0.259363
C113  C     C_R   0.133224 0.822010 0.813339 -0.256053
C114  C     C_R   0.866869 0.178112 0.186581 -0.259853
C115  C     C_R   0.866456 0.822523 0.186948 -0.261472
C116  C     C_R   0.133369 0.177672 0.813115 -0.259377
C117  C     C_R   0.679931 0.281801 0.770600 -0.071516
C118  C     C_R   0.320203 0.718408 0.229222 -0.057778
C119  C     C_R   0.319994 0.282279 0.229421 -0.064073
C120  C     C_R   0.679684 0.718237 0.770796 -0.065730
C121  C     C_R   0.179931 0.781802 0.770595 -0.071616
C122  C     C_R   0.820181 0.218372 0.229233 -0.057667
C123  C     C_R   0.819993 0.782280 0.229421 -0.064063
C124  C     C_R   0.179684 0.218238 0.770796 -0.065739
C125  C     C_R   0.708784 0.261219 0.815887 -0.115216
C126  C     C_R   0.291587 0.739324 0.183609 -0.124994
C127  C     C_R   0.291408 0.261934 0.183828 -0.114174
C128  C     C_R   0.707900 0.739250 0.816760 -0.114128
C129  C     C_R   0.208787 0.761223 0.815874 -0.115067
C130  C     C_R   0.791545 0.239248 0.183638 -0.125220
C131  C     C_R   0.791407 0.761936 0.183829 -0.114190
C132  C     C_R   0.207900 0.239250 0.816760 -0.114114
H17   H     H_    0.745751 0.229457 0.782148 0.159377
H18   H     H_    0.254590 0.771029 0.217309 0.154540
H19   H     H_    0.254762 0.229956 0.217371 0.160355
H20   H     H_    0.744443 0.771438 0.783327 0.160609
H21   H     H_    0.245738 0.729427 0.782144 0.159585
H22   H     H_    0.754524 0.270906 0.217354 0.154336
H23   H     H_    0.754762 0.729958 0.217372 0.160349
H24   H     H_    0.244442 0.271439 0.783327 0.160614
C133  C     C_R   0.691228 0.284600 0.903866 0.141952
C134  C     C_R   0.309406 0.716245 0.095356 0.145278
C135  C     C_R   0.308763 0.285732 0.095882 0.139224
C136  C     C_R   0.690371 0.715760 0.904905 0.138832
C137  C     C_R   0.191260 0.784649 0.903827 0.141811
C138  C     C_R   0.809383 0.216201 0.095370 0.145412
C139  C     C_R   0.808762 0.785734 0.095882 0.139219
C140  C     C_R   0.190371 0.215759 0.904904 0.138839
O33   O     O_R   0.062020 0.072840 0.007170 -0.624479
O34   O     O_R   0.937980 0.927160 0.992830 -0.623413
O35   O     O_R   0.937980 0.072840 0.992830 -0.623867
O36   O     O_R   0.062020 0.927160 0.007170 -0.624779
O37   O     O_R   0.562020 0.572840 0.007170 -0.624461
O38   O     O_R   0.437980 0.427160 0.992830 -0.623427
O39   O     O_R   0.437980 0.572840 0.992830 -0.623866
O40   O     O_R   0.562020 0.427160 0.007170 -0.624770
O41   O     O_R   0.947860 0.073950 0.109290 -0.623662
O42   O     O_R   0.052140 0.926050 0.890710 -0.621839
O43   O     O_R   0.052140 0.073950 0.890710 -0.622983
O44   O     O_R   0.947860 0.926050 0.109290 -0.623614
O45   O     O_R   0.447860 0.573950 0.109290 -0.623684
O46   O     O_R   0.552140 0.426050 0.890710 -0.621823
O47   O     O_R   0.552140 0.573950 0.890710 -0.622957
O48   O     O_R   0.447860 0.426050 0.109290 -0.623645
C141  C     C_R   0.074134 0.099481 0.933832 0.916160
C142  C     C_R   0.925785 0.900624 0.066237 0.916852
C143  C     C_R   0.926036 0.099771 0.065889 0.917119
C144  C     C_R   0.074065 0.900346 0.934021 0.918130
C145  C     C_R   0.574134 0.599481 0.933832 0.916231
C146  C     C_R   0.425784 0.400624 0.066236 0.916779
C147  C     C_R   0.426032 0.599764 0.065895 0.917121
C148  C     C_R   0.574056 0.400333 0.934030 0.918128
Zn9   Zn    Zn3+2 0.505960 0.500000 0.080520 0.958371
Zn10  Zn    Zn3+2 0.494040 0.500000 0.919480 0.963802
Zn11  Zn    Zn3+2 0.005960 0.000000 0.080520 0.958425
Zn12  Zn    Zn3+2 0.994040 0.000000 0.919480 0.963756
H25   H     H_    0.715949 0.000702 0.559514 0.192944
H26   H     H_    0.278004 0.000236 0.452942 0.198888
H27   H     H_    0.215951 0.500700 0.559516 0.192945
H28   H     H_    0.778005 0.500235 0.452932 0.198886
H29   H     H_    0.081604 0.329418 0.586316 0.168151
H30   H     H_    0.917229 0.678913 0.393746 0.171073
H31   H     H_    0.915849 0.317615 0.406667 0.175754
H32   H     H_    0.151971 0.664157 0.408433 0.191357
H33   H     H_    0.581605 0.829426 0.586301 0.168176
H34   H     H_    0.417232 0.178918 0.393741 0.171053
H35   H     H_    0.415849 0.817614 0.406659 0.175737
H36   H     H_    0.651999 0.164150 0.408385 0.191054
H37   H     H_    0.013934 0.325609 0.541626 0.152746
H38   H     H_    0.997385 0.679366 0.404154 0.145265
H39   H     H_    0.987625 0.316379 0.440690 0.152277
H40   H     H_    0.076165 0.668819 0.386517 0.177943
H41   H     H_    0.513940 0.825615 0.541602 0.152885
H42   H     H_    0.497408 0.179362 0.404103 0.145114
H43   H     H_    0.487632 0.816378 0.440664 0.152300
H44   H     H_    0.576218 0.168792 0.386381 0.177472
N1    N     N_R   0.806956 0.324917 0.832330 0.204756
O49   O     O_R   0.858897 0.314952 0.781448 -0.397603
O50   O     O_R   0.783345 0.377265 0.812969 -0.352433
N2    N     N_R   0.193766 0.675266 0.166051 0.198032
O51   O     O_R   0.217676 0.623894 0.186312 -0.370541
O52   O     O_R   0.141436 0.682793 0.214529 -0.441114
N3    N     N_R   0.191547 0.321174 0.170208 0.202676
O53   O     O_R   0.140151 0.308282 0.221891 -0.403739
O54   O     O_R   0.213529 0.374756 0.190065 -0.355940
N4    N     N_R   0.807448 0.680503 0.830836 0.203337
O55   O     O_R   0.785606 0.626525 0.811362 -0.350381
O56   O     O_R   0.858752 0.693767 0.778872 -0.390289
N5    N     N_R   0.307141 0.824288 0.831858 0.204533
O57   O     O_R   0.358999 0.813733 0.780753 -0.397932
O58   O     O_R   0.283747 0.876882 0.812442 -0.352446
N6    N     N_R   0.693896 0.174565 0.165653 0.198210
O59   O     O_R   0.717997 0.123412 0.185849 -0.370287
O60   O     O_R   0.641513 0.181572 0.213950 -0.440512
N7    N     N_R   0.691548 0.821182 0.170205 0.202700
O61   O     O_R   0.640152 0.808293 0.221888 -0.403707
O62   O     O_R   0.713531 0.874764 0.190059 -0.355730
N8    N     N_R   0.307449 0.180507 0.830832 0.203318
O63   O     O_R   0.285609 0.126531 0.811354 -0.350565
O64   O     O_R   0.358754 0.193773 0.778868 -0.390331
H45   H     H_    0.611655 0.337972 0.777992 0.180601
H46   H     H_    0.388256 0.661848 0.222142 0.178854
H47   H     H_    0.387878 0.338229 0.222422 0.178349
H48   H     H_    0.612228 0.661441 0.777370 0.179115
H49   H     H_    0.111651 0.837968 0.777993 0.180615
H50   H     H_    0.888258 0.161863 0.222130 0.178837
H51   H     H_    0.887878 0.838229 0.222422 0.178357
H52   H     H_    0.112228 0.161442 0.777370 0.179108

loop_
_geom_bond_atom_site_label_1
_geom_bond_atom_site_label_2
_geom_bond_distance
_ccdc_geom_bond_type
C18   C22   1.412404 A    
C26   C28   1.412080 A    
C96   C136  1.398679 A    
O4    C4    1.254876 A    
O35   C143  1.228449 A    
C6    C122  1.444564 S    
O39   Zn10  1.983992 S    
O5    C5    1.249985 A    
O10   C10   1.256204 A    
C56   H32   1.078815 S    
C82   N6    1.439316 S    
C34   C54   1.409675 A    
C29   C37   1.430736 A    
C69   C90   1.404254 A    
C62   H38   1.078083 S    
O16   Zn3   2.106012 S    
C33   C53   1.407974 A    
O31   Zn4   2.078324 S    
C105  C113  1.372092 A    
C125  C133  1.401515 A    
C53   H29   1.080569 S    
O16   C16   1.255763 A    
C9    C40   1.442544 S    
C31   C39   1.429017 A    
O1    C1    1.249983 A    
C24   C65   1.407077 A    
O22   Zn6   2.028333 S    
H8    C87   1.083590 S    
C104  C145  1.438121 S    
C11   C38   1.467679 S    
C98   C106  1.411348 A    
O30   C6    1.294874 A    
C46   H26   1.083970 S    
C17   C49   1.422808 A    
O48   Zn9   2.007803 S    
C76   C140  1.498419 S    
C45   H25   1.085154 S    
C71   C92   1.406054 A    
O5    Zn5   2.020225 S    
C12   C37   1.458794 S    
C114  H50   1.084935 S    
C25   C64   1.404173 A    
C79   C87   1.410148 A    
C131  H23   1.083297 S    
C80   C88   1.409517 A    
C71   C79   1.418452 A    
C31   C59   1.413338 A    
N1    O49   1.301447 A    
C115  H51   1.084914 S    
O35   Zn12  1.983992 S    
C15   C42   1.467667 S    
O14   Zn1   2.113349 S    
C123  C131  1.419985 A    
H7    C88   1.083601 S    
C129  C137  1.401509 A    
N7    O61   1.301454 A    
C105  C144  1.434770 S    
C131  C139  1.402971 A    
C18   C23   1.412503 A    
O44   Zn11  2.007803 S    
C121  C129  1.419274 A    
C16   C41   1.458785 S    
C76   C84   1.418014 A    
C83   N7    1.439276 S    
C120  C128  1.419901 A    
N8    O63   1.301392 A    
C103  C146  1.437850 S    
C34   C52   1.410324 A    
O8    C8    1.254873 A    
C21   C68   1.404205 A    
O10   Zn5   2.113349 S    
C69   C77   1.417010 A    
O46   Zn10  1.997361 S    
C132  H24   1.083300 S    
C22   C24   1.412075 A    
C124  C132  1.419896 A    
C130  C138  1.402722 A    
O45   Zn9   1.997359 S    
C8    C124  1.445690 S    
C125  H17   1.083400 S    
C108  C141  1.438120 S    
C54   H30   1.078725 S    
C84   C92   1.409499 A    
O42   Zn12  1.997361 S    
C20   C27   1.412493 A    
C55   C63   1.386753 A    
C3    C119  1.445000 S    
C25   C27   1.423276 A    
N2    O52   1.300820 A    
C129  H21   1.083400 S    
C30   C58   1.409699 A    
C128  H20   1.083297 S    
C100  C140  1.398680 A    
O11   C11   1.263592 A    
O15   C15   1.263600 A    
C73   C86   1.404259 A    
C96   C104  1.414168 A    
C70   C89   1.405934 A    
C1    C117  1.443527 S    
N5    O57   1.301552 A    
C27   C62   1.409918 A    
N8    O64   1.301392 A    
C60   H36   1.078823 S    
O32   C8    1.298098 A    
C57   C65   1.390685 A    
C116  C124  1.370590 A    
C95   H11   1.083727 S    
C43   C48   1.380028 A    
C36   C56   1.411456 A    
C97   C137  1.396445 A    
C37   C45   1.370042 A    
C10   C39   1.462231 S    
O39   C147  1.228457 A    
C117  C125  1.419310 A    
O26   C2    1.294866 A    
C14   C43   1.462206 S    
O8    Zn8   2.020132 S    
O38   C146  1.227346 A    
H4    C91   1.083580 S    
C118  C126  1.419935 A    
C30   C50   1.410332 A    
C30   C38   1.430340 A    
C93   C133  1.396445 A    
C59   C67   1.386753 A    
O6    Zn6   2.020225 S    
C29   C49   1.411876 A    
O43   C141  1.265457 A    
C33   C41   1.430735 A    
O20   C12   1.305518 A    
O28   Zn7   2.078324 S    
O19   C11   1.300725 A    
H3    C92   1.083613 S    
O4    Zn4   2.020132 S    
O21   C13   1.290442 A    
O29   Zn2   2.078555 S    
C20   C52   1.422802 A    
C48   H28   1.083969 S    
C36   C44   1.427968 A    
C60   C68   1.388265 A    
O17   C9    1.290444 A    
O23   C15   1.300710 A    
C35   C55   1.413340 A    
O43   Zn12  2.007802 S    
C100  C108  1.414161 A    
C83   C91   1.410145 A    
O25   Zn6   2.078555 S    
C33   C51   1.411867 A    
O14   C14   1.256201 A    
C96   H12   1.083729 S    
O17   Zn1   2.028333 S    
N1    O50   1.301362 A    
O3    Zn3   2.020132 S    
O27   Zn8   2.078324 S    
N4    O56   1.301385 A    
C107  C115  1.371513 A    
O36   Zn11  1.983995 S    
C128  C136  1.403402 A    
O37   C145  1.227594 A    
C47   H27   1.085156 S    
O34   Zn12  1.990427 S    
C132  C140  1.403399 A    
C112  H48   1.084875 S    
C63   H39   1.081685 S    
C98   C138  1.396059 A    
C127  H19   1.083307 S    
H1    C90   1.083665 S    
O24   C16   1.305515 A    
C98   H14   1.083896 S    
C74   C85   1.405901 A    
C40   C45   1.374421 A    
C2    C118  1.444576 S    
C122  C130  1.419971 A    
O19   Zn3   2.017371 S    
C19   C28   1.410266 A    
O21   Zn5   2.028333 S    
N5    O58   1.301359 A    
C61   H37   1.081267 S    
C7    C123  1.444999 S    
C106  C114  1.372168 A    
O3    C3    1.254494 A    
C81   N5    1.439066 S    
C84   N8    1.438843 S    
N2    O51   1.301380 A    
C21   C23   1.423301 A    
O38   Zn10  1.990427 S    
O48   C146  1.265545 A    
C72   C91   1.406387 A    
C55   H31   1.077465 S    
O15   Zn4   2.106012 S    
C28   C61   1.407076 A    
C23   C66   1.409911 A    
C77   N1    1.439221 S    
C18   C50   1.422814 A    
O28   C4    1.298096 A    
C41   C47   1.370052 A    
C100  H16   1.083731 S    
O42   C144  1.263302 A    
C35   C52   1.410124 A    
O46   C148  1.263323 A    
C66   H42   1.078092 S    
O7    Zn7   2.020132 S    
C93   C101  1.411644 A    
O22   C14   1.297045 A    
O30   Zn1   2.078555 S    
C68   H44   1.077287 S    
C4    C120  1.445690 S    
C80   N4    1.438849 S    
H5    C86   1.083682 S    
C113  C121  1.369742 A    
O2    Zn2   2.020225 S    
O29   C5    1.294382 A    
C32   C49   1.405488 A    
C79   N3    1.439262 S    
C19   C51   1.422807 A    
C108  C116  1.371768 A    
C13   C44   1.442546 S    
O36   C144  1.228290 A    
O47   Zn10  2.007802 S    
C101  C109  1.372086 A    
N3    O53   1.301464 A    
C70   C134  1.493656 S    
O26   Zn5   2.078555 S    
C111  H47   1.084913 S    
C29   C57   1.407970 A    
C35   C43   1.429011 A    
O33   C141  1.227591 A    
C69   C133  1.492861 S    
O18   Zn2   2.028333 S    
C17   C24   1.410273 A    
C111  C119  1.370417 A    
C32   C60   1.411470 A    
O32   Zn3   2.078324 S    
O45   C147  1.263128 A    
C97   H13   1.083875 S    
C112  C120  1.370589 A    
C56   C64   1.388214 A    
C73   C81   1.416971 A    
O40   C148  1.228305 A    
C76   C87   1.406376 A    
C75   C83   1.418457 A    
O2    C2    1.250120 A    
N6    O60   1.300843 A    
C119  C127  1.419988 A    
O9    C9    1.251212 A    
C26   C63   1.400540 A    
C130  H22   1.083398 S    
H2    C89   1.083665 S    
C109  H45   1.084939 S    
N3    O54   1.301412 A    
O41   Zn11  1.997359 S    
C94   C134  1.396075 A    
N7    O62   1.301405 A    
C72   C80   1.417982 A    
C17   C21   1.418878 A    
N4    O55   1.301402 A    
C22   C67   1.400540 A    
C44   C47   1.374417 A    
C75   C139  1.498288 S    
C99   H15   1.083734 S    
O47   C145  1.265454 A    
C95   C135  1.398652 A    
C93   H9    1.083887 S    
C110  C118  1.369798 A    
C77   C85   1.408533 A    
C53   C61   1.390692 A    
C58   C66   1.393625 A    
C67   H43   1.081685 S    
C75   C88   1.406058 A    
O27   C3    1.298086 A    
C115  C123  1.370414 A    
O18   C10   1.297052 A    
C107  C142  1.437843 S    
C65   H41   1.081266 S    
C32   C40   1.427984 A    
C99   C107  1.414227 A    
C19   C25   1.418874 A    
O13   C13   1.251214 A    
O40   Zn9   1.983995 S    
C73   C137  1.492910 S    
C94   H10   1.083896 S    
C31   C50   1.410141 A    
C97   C105  1.411607 A    
O24   Zn8   2.017371 S    
C42   C48   1.380868 A    
O23   Zn7   2.017371 S    
C99   C139  1.398666 A    
C109  C117  1.369743 A    
C72   C136  1.498418 S    
H6    C85   1.083671 S    
C103  C111  1.371523 A    
C110  H46   1.084950 S    
C94   C102  1.411295 A    
C113  H49   1.084930 S    
C95   C103  1.414226 A    
C104  C112  1.371764 A    
C59   H35   1.077463 S    
C70   C78   1.417409 A    
O44   C142  1.265536 A    
C58   H34   1.078725 S    
O12   Zn7   2.106012 S    
O33   Zn11  1.990427 S    
O37   Zn9   1.990427 S    
C36   C51   1.405486 A    
C20   C26   1.412412 A    
O13   Zn2   2.113349 S    
C116  H52   1.084881 S    
C102  C110  1.372179 A    
C127  C135  1.402965 A    
C74   C138  1.493586 S    
C71   C135  1.498294 S    
C81   C89   1.408474 A    
C106  C143  1.434668 S    
C78   C86   1.408038 A    
O9    Zn6   2.113349 S    
O20   Zn4   2.017371 S    
C38   C46   1.380872 A    
O6    C6    1.250102 A    
C5    C121  1.443482 S    
O31   C7    1.298082 A    
O34   C142  1.227354 A    
O7    C7    1.254498 A    
O12   C12   1.255762 A    
C78   N2    1.439206 S    
C126  C134  1.402767 A    
C126  H18   1.083390 S    
C57   H33   1.080569 S    
C101  C148  1.434805 S    
C64   H40   1.077233 S    
O1    Zn1   2.020225 S    
C102  C147  1.434643 S    
C74   C82   1.417432 A    
C39   C46   1.380022 A    
C34   C42   1.430310 A    
O11   Zn8   2.106012 S    
O41   C143  1.263159 A    
C54   C62   1.393586 A    
O25   C1    1.294407 A    
N6    O59   1.301364 A    
C114  C122  1.369789 A    
C82   C90   1.408165 A    
