data_mof_unit_19072.cif
_audit_creation_date              2012-12-11T16:47:51-0500
_audit_creation_method            fapswitch 2.2
_symmetry_space_group_name_H-M    P1
_symmetry_Int_Tables_number       1
_space_group_crystal_system       triclinic
_cell_length_a                    26.142544
_cell_length_b                    7.174458
_cell_length_c                    23.87133
_cell_angle_alpha                 90.00017
_cell_angle_beta                  101.479024
_cell_angle_gamma                 89.999836
_cell_volume                      4387.71677266

loop_
_atom_site_label
_atom_site_type_symbol
_atom_type_description
_atom_site_fract_x
_atom_site_fract_y
_atom_site_fract_z
_atom_type_partial_charge
O1    O     O_R   0.797620 0.601060 0.203310 -0.521550
O2    O     O_R   0.202380 0.398940 0.796690 -0.527707
O3    O     O_R   0.702380 0.101060 0.296690 -0.521551
O4    O     O_R   0.297620 0.898940 0.703310 -0.527713
O5    O     O_R   0.692070 0.267810 0.186600 -0.529171
O6    O     O_R   0.307930 0.732190 0.813400 -0.520591
O7    O     O_R   0.807930 0.767810 0.313400 -0.529172
O8    O     O_R   0.192070 0.232190 0.686600 -0.520591
C1    C     C_R   0.673846 0.439531 0.171408 0.694279
C2    C     C_R   0.326235 0.560513 0.828476 0.692851
C3    C     C_R   0.826153 0.939531 0.328592 0.694280
C4    C     C_R   0.173765 0.060513 0.671524 0.692853
O9    O     O_R   0.796590 0.271120 0.196480 -0.537584
O10   O     O_R   0.203410 0.728880 0.803520 -0.538971
O11   O     O_R   0.703410 0.771120 0.303520 -0.537584
O12   O     O_R   0.296590 0.228880 0.696480 -0.538969
O13   O     O_R   0.807640 0.104280 0.306650 -0.528580
O14   O     O_R   0.192360 0.895720 0.693350 -0.530231
O15   O     O_R   0.692360 0.604280 0.193350 -0.528580
O16   O     O_R   0.307640 0.395720 0.806650 -0.530229
C5    C     C_R   0.811668 0.440118 0.183698 0.777928
C6    C     C_R   0.187565 0.560172 0.815127 0.790872
C7    C     C_R   0.688332 0.940119 0.316302 0.777928
C8    C     C_R   0.312435 0.060171 0.684873 0.790875
O17   O     O_3   0.753500 0.435660 0.286130 -0.361548
O18   O     O_3   0.246500 0.564340 0.713870 -0.375738
O19   O     O_3   0.746500 0.935660 0.213870 -0.361549
O20   O     O_3   0.253500 0.064340 0.786130 -0.375736
V1    V     V_3+5 0.749350 0.159470 0.243300 1.607653
V2    V     V_3+5 0.250650 0.840530 0.756700 1.582471
V3    V     V_3+5 0.750650 0.659470 0.256700 1.607652
V4    V     V_3+5 0.249350 0.340530 0.743300 1.582474
C9    C     C_R   0.403809 0.002174 0.670700 0.279290
C10   C     C_R   0.656826 0.080938 0.400684 0.382112
C11   C     C_R   0.096190 0.502204 0.829300 0.279291
C12   C     C_R   0.843176 0.580935 0.099317 0.382112
C13   C     C_R   0.440635 0.992022 0.634186 0.277719
C14   C     C_R   0.620736 0.087689 0.437279 0.351370
C15   C     C_R   0.059364 0.492059 0.865815 0.277709
C16   C     C_R   0.879266 0.587684 0.062722 0.351373
C17   C     C_R   0.424288 0.026088 0.574949 0.012525
C18   C     C_R   0.576462 0.967290 0.427613 -0.115755
C19   C     C_R   0.075714 0.526080 0.925053 0.012526
C20   C     C_R   0.923540 0.467283 0.072388 -0.115754
C21   C     C_R   0.371685 0.071798 0.552562 0.408007
C22   C     C_R   0.570686 0.836824 0.381810 0.442305
C23   C     C_R   0.128319 0.571765 0.947441 0.408012
C24   C     C_R   0.929314 0.336817 0.118191 0.442305
C25   C     C_R   0.336008 0.086090 0.589483 -0.330556
C26   C     C_R   0.608608 0.826953 0.347942 -0.182583
C27   C     C_R   0.163995 0.586065 0.910519 -0.330551
C28   C     C_R   0.891393 0.326948 0.152058 -0.182583
H1    H     H_    0.295600 0.121342 0.572383 0.147467
H2    H     H_    0.603576 0.726447 0.313367 0.174372
H3    H     H_    0.204404 0.621298 0.927620 0.147465
H4    H     H_    0.896423 0.226442 0.186633 0.174373
C29   C     C_R   0.351529 0.050344 0.647976 -0.177405
C30   C     C_R   0.651075 0.949775 0.355839 -0.282006
C31   C     C_R   0.148471 0.550348 0.852025 -0.177405
C32   C     C_R   0.848925 0.449772 0.144162 -0.282006
C33   C     C_R   0.472091 0.164112 0.502279 0.432237
C34   C     C_R   0.527860 0.828178 0.499193 0.386241
C35   C     C_R   0.027914 0.664099 0.997726 0.432221
C36   C     C_R   0.972141 0.328171 0.000807 0.386236
C37   C     C_R   0.508601 0.145610 0.466318 -0.318844
C38   C     C_R   0.490404 0.844999 0.534068 -0.255329
C39   C     C_R   0.991403 0.645598 0.033686 -0.318843
C40   C     C_R   0.009597 0.344993 0.965931 -0.255304
H5    H     H_    0.515882 0.262161 0.440096 0.186599
H6    H     H_    0.483036 0.727847 0.560003 0.174548
H7    H     H_    0.984123 0.762147 0.059910 0.186597
H8    H     H_    0.016962 0.227844 0.939994 0.174558
C41   C     C_R   0.536712 0.979443 0.464712 -0.012927
C42   C     C_R   0.462601 0.011821 0.536176 0.126028
C43   C     C_R   0.963290 0.479434 0.035290 -0.012930
C44   C     C_R   0.037402 0.511811 0.963826 0.126019
C45   C     C_3   0.963486 0.905312 0.521283 0.297985
C46   C     C_3   0.035899 0.095102 0.479580 0.293855
C47   C     C_3   0.536514 0.405311 0.978717 0.297986
C48   C     C_3   0.464101 0.595103 0.020420 0.293855
C49   C     C_3   0.986677 0.095624 0.543758 0.302901
C50   C     C_3   0.012727 0.904790 0.457120 0.292911
C51   C     C_3   0.513323 0.595622 0.956241 0.302901
C52   C     C_3   0.487273 0.404791 0.042880 0.292911
C53   C     C_1   0.127918 0.052215 0.625775 -0.069046
C54   C     C_1   0.871785 0.947971 0.374635 -0.078528
C55   C     C_1   0.372082 0.552215 0.874225 -0.069046
C56   C     C_1   0.628215 0.447971 0.125365 -0.078529
C57   C     C_3   0.019016 0.834423 0.519387 0.313357
C58   C     C_3   0.980374 0.165995 0.481483 0.314202
C59   C     C_3   0.480984 0.334423 0.980613 0.313357
C60   C     C_3   0.519626 0.665995 0.018517 0.314203
C61   C     C_3   0.042130 0.024671 0.541770 -0.296680
C62   C     C_3   0.957263 0.975734 0.459079 -0.294325
C63   C     C_3   0.457870 0.524671 0.958230 -0.296680
C64   C     C_3   0.542737 0.475734 0.040921 -0.294327
C65   C     C_1   0.089334 0.042761 0.587828 0.275170
C66   C     C_1   0.910191 0.957558 0.412825 0.270675
C67   C     C_1   0.410666 0.542761 0.912172 0.275171
C68   C     C_1   0.589809 0.457558 0.087175 0.270675
Cl1   Cl    Cl    0.422421 0.958723 0.745049 -0.547809
Cl2   Cl    Cl    0.711459 0.231225 0.414907 -0.487537
Cl3   Cl    Cl    0.077577 0.458726 0.754952 -0.547809
Cl4   Cl    Cl    0.788542 0.731224 0.085093 -0.487536
O21   O     O_3   0.492863 0.952477 0.654446 -0.606045
H9    H     H_    0.499736 0.932557 0.696183 0.382225
O22   O     O_3   0.630640 0.212811 0.482238 -0.565621
H10   H     H_    0.610736 0.177355 0.511737 0.330202
O23   O     O_3   0.007135 0.452546 0.845554 -0.606061
H11   H     H_    0.000245 0.432929 0.803805 0.382245
O24   O     O_3   0.869362 0.712807 0.017764 -0.565621
H12   H     H_    0.889268 0.677357 0.988266 0.330201
O25   O     O_3   0.355791 0.097768 0.494340 -0.600013
H13   H     H_    0.318049 0.128413 0.485646 0.324503
O26   O     O_3   0.528422 0.718258 0.367609 -0.604214
H14   H     H_    0.499955 0.759527 0.386439 0.315368
O27   O     O_3   0.144215 0.597706 0.005664 -0.600013
H15   H     H_    0.181957 0.628346 0.014359 0.324504
O28   O     O_3   0.971578 0.218247 0.132391 -0.604215
H16   H     H_    0.000045 0.259515 0.113561 0.315366
O29   O     O_3   0.446258 0.330301 0.505913 -0.619705
H17   H     H_    0.456915 0.421685 0.479244 0.301964
O30   O     O_3   0.556476 0.666628 0.498455 -0.604066
H18   H     H_    0.545994 0.575258 0.525237 0.313807
O31   O     O_3   0.053749 0.830284 0.994095 -0.619706
H19   H     H_    0.043092 0.921669 0.020765 0.301968
O32   O     O_3   0.943524 0.166624 0.001544 -0.604062
H20   H     H_    0.954006 0.075253 0.974761 0.313807
Cl5   Cl    Cl    0.969278 0.224191 0.601019 -0.319030
Cl6   Cl    Cl    0.030267 0.776192 0.399953 -0.387539
Cl7   Cl    Cl    0.530721 0.724188 0.898981 -0.319032
Cl8   Cl    Cl    0.469733 0.276195 0.100047 -0.387539
Cl9   Cl    Cl    0.915761 0.777447 0.549182 -0.327838
Cl10  Cl    Cl    0.083627 0.222999 0.451695 -0.390577
Cl11  Cl    Cl    0.584239 0.277445 0.950818 -0.327830
Cl12  Cl    Cl    0.416373 0.723001 0.048305 -0.390577
Cl13  Cl    Cl    0.953061 0.383859 0.454752 -0.411252
Cl14  Cl    Cl    0.046310 0.616613 0.546212 -0.399109
Cl15  Cl    Cl    0.546939 0.883859 0.045248 -0.411252
Cl16  Cl    Cl    0.453690 0.116613 0.953788 -0.399105

loop_
_geom_bond_atom_site_label_1
_geom_bond_atom_site_label_2
_ccdc_geom_bond_type
O17   V3    S    
C7    C30   S    
O1    C5    A    
C50   C62   S    
O19   V1    S    
O13   V1    S    
O3    C7    A    
O24   H12   S    
O1    V3    S    
C48   C52   S    
O15   V3    S    
C25   C29   A    
O30   H18   S    
C46   C58   S    
O7    C3    A    
C51   C60   S    
C45   C57   S    
C26   H2    S    
C50   C57   S    
C4    C53   S    
C9    Cl1   S    
C36   C40   A    
O2    V4    S    
C14   C18   A    
C24   C28   A    
C11   Cl3   S    
C1    C56   S    
C18   C22   A    
O4    C8    A    
C63   C67   S    
C35   C44   A    
C62   C66   S    
C3    C54   S    
O26   H14   S    
C38   C42   A    
C45   C62   S    
C60   C64   S    
C37   C41   A    
C11   C31   A    
C52   C64   S    
C14   O22   S    
O3    V1    S    
O12   V4    S    
C28   C32   A    
C17   C42   S    
C23   O27   S    
C1    O15   A    
C2    O16   A    
C8    C29   S    
O2    C6    A    
O22   H10   S    
C34   C41   A    
O14   V2    S    
C52   C59   S    
C45   C49   S    
C50   Cl6   S    
C47   C59   S    
C40   H8    S    
O11   C7    A    
O12   C8    A    
C57   C61   S    
C45   Cl9   S    
O10   V2    S    
C34   O30   S    
C58   C62   S    
C16   O24   S    
C55   C67   T    
C35   C39   A    
C2    C55   S    
O7    V3    S    
C34   C38   A    
C15   O23   S    
O8    V4    S    
C12   C16   A    
C5    C32   S    
C6    C31   S    
O18   V4    S    
C15   C19   A    
C27   H3    S    
C13   O21   S    
C52   Cl8   S    
C9    C13   A    
C26   C30   A    
C48   C60   S    
C20   C43   S    
C11   C15   A    
O5    C1    A    
C33   C37   A    
C49   C61   S    
C46   C50   S    
C49   Cl5   S    
C21   C25   A    
O8    C4    A    
C36   O32   S    
C51   C63   S    
O9    C5    A    
C10   Cl2   S    
C48   C63   S    
C46   Cl10  S    
O29   H17   S    
C56   C68   T    
C49   C58   S    
C22   O26   S    
O6    V2    S    
O31   H19   S    
C35   O31   S    
C27   C31   A    
O32   H20   S    
O5    V1    S    
C61   C65   S    
C58   Cl13  S    
O25   H13   S    
O16   V4    S    
O9    V1    S    
C19   C44   S    
C37   H5    S    
C3    O13   A    
C18   C41   S    
C9    C29   A    
C10   C14   A    
C33   O29   S    
C12   C32   A    
O6    C2    A    
C23   C27   A    
O28   H16   S    
O11   V3    S    
C33   C42   A    
C40   C44   A    
C47   Cl11  S    
O21   H9    S    
C22   C26   A    
C48   Cl12  S    
C12   Cl4   S    
O10   C6    A    
O20   V2    S    
C51   Cl7   S    
C47   C64   S    
O27   H15   S    
C47   C51   S    
C38   H6    S    
C28   H4    S    
C25   H1    S    
C64   C68   S    
C36   C43   A    
C39   H7    S    
C13   C17   A    
C54   C66   T    
C53   C65   T    
C59   C63   S    
C59   Cl16  S    
C21   O25   S    
C16   C20   A    
C39   C43   A    
C57   Cl14  S    
C4    O14   A    
C10   C30   A    
C17   C21   A    
C24   O28   S    
C46   C61   S    
O23   H11   S    
C60   Cl15  S    
C19   C23   A    
O4    V2    S    
C20   C24   A    
