data_mof_unit_40121.cif
_audit_creation_date              2013-03-05T15:58:27-0500
_audit_creation_method            fapswitch 2.2
_symmetry_space_group_name_H-M    P1
_symmetry_Int_Tables_number       1
_space_group_crystal_system       triclinic
_cell_length_a                    7.720707
_cell_length_b                    14.602402
_cell_length_c                    16.330406
_cell_angle_alpha                 89.999954
_cell_angle_beta                  90.001594
_cell_angle_gamma                 89.997382
_cell_volume                      1841.10413379

loop_
_atom_site_label
_atom_site_type_symbol
_atom_site_description
_atom_site_fract_x
_atom_site_fract_y
_atom_site_fract_z
_atom_type_partial_charge
O1    O     O_R   0.388780 0.834790 0.412340 -0.548525
O2    O     O_R   0.111220 0.165210 0.912340 -0.548518
O3    O     O_R   0.888780 0.665210 0.587660 -0.548493
O4    O     O_R   0.611220 0.334790 0.087660 -0.548509
O5    O     O_R   0.059040 0.845930 0.587040 -0.591333
O6    O     O_R   0.440960 0.154070 0.087040 -0.591346
O7    O     O_R   0.559040 0.654070 0.412960 -0.591381
O8    O     O_R   0.940960 0.345930 0.912960 -0.591352
C1    C     C_R   0.230835 0.868654 0.610404 0.777932
C2    C     C_R   0.269166 0.131345 0.110404 0.777900
C3    C     C_R   0.730838 0.631346 0.389595 0.777846
C4    C     C_R   0.769157 0.368655 0.889595 0.777895
O9    O     O_R   0.059070 0.845930 0.412970 -0.635683
O10   O     O_R   0.440930 0.154070 0.912970 -0.635685
O11   O     O_R   0.559070 0.654070 0.587030 -0.635736
O12   O     O_R   0.940930 0.345930 0.087030 -0.635705
O13   O     O_R   0.888760 0.665210 0.412340 -0.605274
O14   O     O_R   0.611240 0.334790 0.912340 -0.605260
O15   O     O_R   0.388760 0.834790 0.587660 -0.605251
O16   O     O_R   0.111240 0.165210 0.087660 -0.605255
C5    C     C_R   0.225680 0.865216 0.381730 0.782565
C6    C     C_R   0.274318 0.134780 0.881733 0.782572
C7    C     C_R   0.725674 0.634762 0.618252 0.782575
C8    C     C_R   0.774322 0.365223 0.118264 0.782557
O17   O     O_3   0.222280 0.690700 0.500000 -0.343564
O18   O     O_3   0.277720 0.309300 0.000000 -0.343580
O19   O     O_3   0.722280 0.809300 0.500000 -0.343618
O20   O     O_3   0.777720 0.190700 0.000000 -0.343598
V1    V     V_3+5 0.947430 0.761000 0.500000 1.086224
V2    V     V_3+5 0.552570 0.239000 0.000000 1.086217
V3    V     V_3+5 0.447430 0.739000 0.500000 1.086175
V4    V     V_3+5 0.052570 0.261000 0.000000 1.086201
C9    C     C_3   0.886433 0.573183 0.755740 -0.001136
C10   C     C_3   0.613569 0.426766 0.255793 -0.001048
C11   C     C_3   0.386440 0.926735 0.244180 -0.000992
C12   C     C_3   0.113546 0.073247 0.744194 -0.001027
H1    H     H_    0.879163 0.644538 0.780340 0.074255
H2    H     H_    0.620853 0.355403 0.280375 0.074185
H3    H     H_    0.379159 0.855369 0.219609 0.074150
H4    H     H_    0.120818 0.144611 0.719617 0.074173
C13   C     C_3   0.888729 0.509914 0.830366 -0.471278
C14   C     C_3   0.611369 0.490014 0.330436 -0.471359
C15   C     C_3   0.388588 0.989972 0.169527 -0.471408
C16   C     C_3   0.111372 0.010004 0.669546 -0.471368
H5    H     H_    0.872300 0.551544 0.887137 0.126915
H6    H     H_    0.628013 0.448373 0.387185 0.126941
H7    H     H_    0.371842 0.948325 0.112791 0.126964
H8    H     H_    0.128052 0.051648 0.612804 0.126954
H9    H     H_    0.016572 0.476428 0.840716 0.169755
H10   H     H_    0.483498 0.523430 0.340870 0.169694
H11   H     H_    0.516466 0.023351 0.159046 0.169667
H12   H     H_    0.983502 0.976603 0.659090 0.169685
H13   H     H_    0.817027 0.448383 0.618324 0.146640
H14   H     H_    0.682759 0.551550 0.118353 0.146695
H15   H     H_    0.317337 0.051514 0.381631 0.146727
H16   H     H_    0.182722 0.948463 0.881637 0.146708
H17   H     H_    0.825575 0.340720 0.727222 0.109317
H18   H     H_    0.674179 0.659227 0.227221 0.109363
H19   H     H_    0.325920 0.159206 0.272775 0.109372
H20   H     H_    0.174156 0.840772 0.772771 0.109359
C17   C     C_3   0.716273 0.462940 0.664817 -0.362118
C18   C     C_3   0.783578 0.537031 0.164827 -0.361953
C19   C     C_3   0.216492 0.037017 0.335166 -0.361884
C20   C     C_3   0.283550 0.962973 0.835168 -0.361901
C21   C     C_3   0.570503 0.572568 0.757346 -0.407867
C22   C     C_3   0.929476 0.427432 0.257364 -0.408056
C23   C     C_3   0.070540 0.927437 0.242630 -0.408113
C24   C     C_3   0.429447 0.072565 0.742632 -0.408088
C25   C     C_3   0.726956 0.563512 0.695811 0.054273
C26   C     C_3   0.773004 0.436463 0.195834 0.054278
C27   C     C_3   0.227020 0.936451 0.304154 0.054260
C28   C     C_3   0.272983 0.063542 0.804160 0.054249
H21   H     H_    0.452954 0.553670 0.726549 0.200825
H22   H     H_    0.047023 0.446243 0.226543 0.200854
H23   H     H_    0.952996 0.946215 0.273460 0.200884
H24   H     H_    0.546991 0.053770 0.773458 0.200879
H25   H     H_    0.558067 0.643902 0.780451 0.136210
H26   H     H_    0.941805 0.356128 0.280550 0.136268
H27   H     H_    0.058252 0.856146 0.219416 0.136299
H28   H     H_    0.441741 0.143862 0.719430 0.136301
C29   C     C_3   0.743084 0.440870 0.822961 0.171294
C30   C     C_3   0.756899 0.559126 0.322968 0.171354
C31   C     C_3   0.243112 0.059121 0.177027 0.171331
C32   C     C_3   0.256888 0.940876 0.677029 0.171317
C33   C     C_3   0.725372 0.393195 0.737377 -0.354877
C34   C     C_3   0.774449 0.606789 0.237372 -0.354959
C35   C     C_3   0.225632 0.106781 0.262628 -0.354979
C36   C     C_3   0.274422 0.893212 0.762626 -0.354960
C37   C     C_3   0.577771 0.501880 0.830527 -0.319459
C38   C     C_3   0.922311 0.498190 0.330489 -0.319307
C39   C     C_3   0.077659 0.998225 0.169528 -0.319244
C40   C     C_3   0.422308 0.001795 0.669516 -0.319281
H29   H     H_    0.575523 0.539186 0.889960 0.135210
H30   H     H_    0.924776 0.460952 0.389952 0.135218
H31   H     H_    0.075103 0.961014 0.110053 0.135220
H32   H     H_    0.424801 0.039022 0.610045 0.135208
H33   H     H_    0.459238 0.458353 0.829904 0.170820
H34   H     H_    0.040779 0.541761 0.329759 0.170830
H35   H     H_    0.959219 0.041819 0.170304 0.170838
H36   H     H_    0.540774 0.958215 0.670266 0.170834
H37   H     H_    0.592590 0.452694 0.631469 0.144980
H38   H     H_    0.907234 0.547302 0.131465 0.144943
H39   H     H_    0.092845 0.047299 0.368535 0.144926
H40   H     H_    0.407205 0.952699 0.868535 0.144931
H41   H     H_    0.603158 0.352684 0.737194 0.144335
H42   H     H_    0.896603 0.647349 0.237155 0.144258
H43   H     H_    0.103499 0.147363 0.262860 0.144215
H44   H     H_    0.396578 0.852646 0.762850 0.144224
C41   C     C_R   0.050346 0.555662 0.714922 0.222284
C42   C     C_R   0.146695 0.631119 0.701734 -0.341423
C43   C     C_R   0.256787 0.627321 0.639426 0.094432
C44   C     C_R   0.288104 0.545539 0.593816 0.000348
C45   C     C_R   0.221636 0.464135 0.622354 -0.307418
C46   C     C_R   0.106634 0.468650 0.686637 -0.144052
H45   H     H_    0.119173 0.696509 0.730184 0.100560
H46   H     H_    0.309683 0.692860 0.629525 0.185677
H47   H     H_    0.369216 0.543450 0.539859 0.141774
H48   H     H_    0.255669 0.399393 0.594351 0.129737
H49   H     H_    0.058510 0.405536 0.710262 0.127706
C47   C     C_R   0.449602 0.444294 0.215013 0.222205
C48   C     C_R   0.353337 0.368826 0.201741 -0.341412
C49   C     C_R   0.243260 0.372670 0.139427 0.094398
C50   C     C_R   0.211916 0.454483 0.093872 0.000168
C51   C     C_R   0.278268 0.535875 0.122500 -0.307358
C52   C     C_R   0.393217 0.531320 0.186809 -0.143988
H50   H     H_    0.380927 0.303410 0.230125 0.100600
H51   H     H_    0.190370 0.307154 0.129481 0.185761
H52   H     H_    0.130812 0.456601 0.039912 0.141740
H53   H     H_    0.244159 0.600641 0.094560 0.129740
H54   H     H_    0.441197 0.594419 0.210530 0.127708
C53   C     C_R   0.550437 0.944266 0.284934 0.222201
C54   C     C_R   0.646690 0.868797 0.298241 -0.341445
C55   C     C_R   0.756741 0.872663 0.360566 0.094247
C56   C     C_R   0.788051 0.954494 0.406101 0.000191
C57   C     C_R   0.721753 0.035878 0.377424 -0.307385
C58   C     C_R   0.606847 0.031300 0.313100 -0.143930
H55   H     H_    0.619073 0.803370 0.269892 0.100637
H56   H     H_    0.809580 0.807146 0.370573 0.185898
H57   H     H_    0.869110 0.956635 0.460074 0.141688
H58   H     H_    0.755878 0.100658 0.405334 0.129740
H59   H     H_    0.558925 0.094391 0.289332 0.127717
C59   C     C_R   0.949569 0.055719 0.784960 0.222192
C60   C     C_R   0.853301 0.131186 0.798250 -0.341413
C61   C     C_R   0.743243 0.127324 0.860566 0.094211
C62   C     C_R   0.711938 0.045501 0.906112 0.000205
C63   C     C_R   0.778266 0.964113 0.877460 -0.307357
C64   C     C_R   0.893188 0.968685 0.813145 -0.143929
H60   H     H_    0.880906 0.196608 0.769889 0.100631
H61   H     H_    0.690391 0.192834 0.870555 0.185879
H62   H     H_    0.630865 0.043361 0.960079 0.141684
H63   H     H_    0.744157 0.899334 0.905382 0.129728
H64   H     H_    0.941150 0.905587 0.789399 0.127709

loop_
_geom_bond_atom_site_label_1
_geom_bond_atom_site_label_2
_geom_bond_distance
_ccdc_geom_bond_type
C24   H28   1.111967 S    
C31   C35   1.567373 S    
O1    C5    1.425791 A    
O19   V1    1.875920 S    
C15   C31   1.515261 S    
C7    C25   1.639138 S    
O3    C7    1.425886 A    
C43   C44   1.428064 A    
C10   C14   1.529421 S    
C40   H32   1.113134 S    
O4    V2    2.052041 S    
O15   V3    2.052064 S    
C62   C63   1.376065 A    
H20   C36   1.101435 S    
C8    C26   1.639188 S    
C57   C58   1.376553 A    
C22   C38   1.580093 S    
C34   H42   1.113697 S    
O7    C3    1.419520 A    
C14   C30   1.515236 S    
C18   C34   1.563988 S    
C58   H59   1.065956 S    
C51   H53   1.082547 S    
C5    C27   1.639207 S    
O9    V1    2.073901 S    
C45   C46   1.376513 A    
C44   H47   1.081450 S    
C36   H44   1.113711 S    
C60   C61   1.326980 A    
C22   H22   1.073525 S    
C2    C31   1.528549 S    
O1    V3    2.052012 S    
O13   V1    2.052077 S    
C18   C26   1.555533 S    
O2    V4    2.052032 S    
C14   H6    1.115832 S    
C6    C28   1.639211 S    
C49   H51   1.052810 S    
O3    V1    2.052058 S    
C12   C59   1.453127 S    
C42   C43   1.327006 A    
H13   C17   1.107588 S    
C52   H54   1.065963 S    
C1    O15   1.367158 A    
C2    O16   1.367151 A    
C54   C55   1.327015 A    
H15   C19   1.107602 S    
O2    C6    1.425807 A    
H16   C20   1.107612 S    
O12   V4    2.073854 S    
C43   H46   1.053028 S    
O14   V2    2.052092 S    
C11   C15   1.529443 S    
C10   C26   1.579275 S    
C62   H62   1.081433 S    
C9    C25   1.579157 S    
C29   C37   1.561364 S    
C16   H12   1.114323 S    
O11   C7    1.412075 A    
C11   C27   1.579355 S    
C55   H56   1.052802 S    
O12   C8    1.412158 A    
C60   H60   1.082858 S    
O10   V2    2.073871 S    
C33   H41   1.113700 S    
H18   C34   1.101389 S    
C13   H9    1.114386 S    
C44   C45   1.376089 A    
C38   H30   1.113102 S    
O5    V1    2.073884 S    
C3    C30   1.528559 S    
C10   C47   1.453105 S    
C57   H58   1.082576 S    
C22   H26   1.111993 S    
O7    V3    2.073872 S    
O8    V4    2.073837 S    
C50   C51   1.376090 A    
C21   H25   1.112027 S    
C19   H39   1.109434 S    
C53   C58   1.420032 A    
C21   H21   1.073659 S    
C56   H57   1.081440 S    
C47   C52   1.420039 A    
H14   C18   1.107608 S    
C54   H55   1.082853 S    
C30   C34   1.567380 S    
C9    H1    1.118134 S    
C45   H48   1.082540 S    
C37   H33   1.114293 S    
C24   C28   1.576810 S    
C17   H37   1.109418 S    
O5    C1    1.419503 A    
C61   H61   1.052697 S    
C12   H4    1.118125 S    
O8    C4    1.419535 A    
C13   C29   1.515138 S    
C23   C39   1.580073 S    
O9    C5    1.412211 A    
C48   C49   1.326993 A    
C17   C33   1.564046 S    
C41   C46   1.420050 A    
C14   H10   1.114350 S    
O6    V2    2.073916 S    
C19   C27   1.555505 S    
C55   C56   1.428019 A    
C12   C16   1.529436 S    
C23   H23   1.073431 S    
C53   C54   1.346794 A    
C11   C53   1.453144 S    
C47   C48   1.346795 A    
C40   H36   1.114286 S    
O17   V3    1.875980 S    
C63   C64   1.376540 A    
O16   V4    2.052046 S    
C17   C25   1.555563 S    
C20   H40   1.109434 S    
C3    O13   1.367161 A    
C20   C36   1.563985 S    
C19   C35   1.563968 S    
C10   H2    1.118130 S    
C59   C64   1.420066 A    
C32   C36   1.567379 S    
C61   C62   1.428033 A    
C16   C32   1.515253 S    
C35   H43   1.113690 S    
O6    C2    1.419517 A    
O11   V3    2.073821 S    
C56   C57   1.376066 A    
O18   V4    1.875979 S    
C24   H24   1.073448 S    
C31   C39   1.561287 S    
C21   C37   1.580140 S    
C30   C38   1.561308 S    
C9    C13   1.529382 S    
O10   C6    1.412189 A    
O20   V2    1.875920 S    
C64   H64   1.066029 S    
C48   H50   1.082898 S    
C41   C42   1.346818 A    
C15   H11   1.114314 S    
C50   H52   1.081443 S    
C22   C26   1.576826 S    
C46   H49   1.065989 S    
O4    C8    1.425837 A    
C21   C25   1.576840 S    
C11   H3    1.118125 S    
C24   C40   1.580076 S    
H17   C33   1.101407 S    
C4    C29   1.528588 S    
C23   C27   1.576805 S    
C20   C28   1.555529 S    
C37   H29   1.113132 S    
H19   C35   1.101403 S    
C1    C32   1.528538 S    
C39   H31   1.113087 S    
C63   H63   1.082630 S    
C16   H8    1.115806 S    
C9    C41   1.453047 S    
C4    O14   1.367155 A    
C13   H5    1.115860 S    
C59   C60   1.346803 A    
C32   C40   1.561296 S    
C39   H35   1.114245 S    
C49   C50   1.428007 A    
C15   H7    1.115799 S    
C42   H45   1.082928 S    
C38   H34   1.114266 S    
C23   H27   1.111967 S    
C29   C33   1.567398 S    
C12   C28   1.579311 S    
C51   C52   1.376551 A    
C18   H38   1.109434 S    
