data_mof_unit_56348.cif
_audit_creation_date              2012-12-11T16:48:33-0500
_audit_creation_method            fapswitch 2.2
_symmetry_space_group_name_H-M    P1
_symmetry_Int_Tables_number       1
_space_group_crystal_system       triclinic
_cell_length_a                    17.384364
_cell_length_b                    24.227323
_cell_length_c                    14.975389
_cell_angle_alpha                 89.998076
_cell_angle_beta                  124.939424
_cell_angle_gamma                 90.0009
_cell_volume                      5170.44606553

loop_
_atom_site_label
_atom_site_type_symbol
_atom_type_description
_atom_site_fract_x
_atom_site_fract_y
_atom_site_fract_z
_atom_type_partial_charge
Br1   Br    Br    0.954044 0.378462 0.283957 -0.630744
Br2   Br    Br    0.035183 0.386409 0.732492 -0.624522
Br3   Br    Br    0.464998 0.886517 0.267114 -0.624448
Br4   Br    Br    0.546186 0.878218 0.715468 -0.630964
C1    C     C_R   0.311560 0.375810 0.911571 -0.124720
C2    C     C_R   0.533220 0.499460 0.705834 0.076111
C3    C     C_R   0.096200 0.875084 0.906246 -0.123775
C4    C     C_R   0.314369 0.362144 0.003803 0.078933
C5    C     C_R   0.682215 0.355566 0.999541 0.075198
C6    C     C_R   0.817769 0.855559 0.000416 0.075171
C7    C     C_R   0.185625 0.862148 0.996177 0.078934
C8    C     C_3   0.555999 0.771708 0.271422 -0.251175
C9    C     C_3   0.593510 0.799715 0.211930 -0.788147
C10   C     C_3   0.448104 0.768085 0.718256 -0.245155
C11   C     C_3   0.406058 0.799354 0.769791 -0.792413
C12   C     C_3   0.052093 0.268261 0.281336 -0.245438
C13   C     C_R   0.966774 0.999447 0.294156 0.076067
C14   C     C_3   0.093863 0.299479 0.229440 -0.792235
C15   C     C_3   0.944064 0.271685 0.728430 -0.251118
C16   C     C_3   0.906487 0.299784 0.787772 -0.788181
C17   C     C_R   0.933936 0.999227 0.633920 0.081518
C18   C     C_R   0.191802 0.498514 0.646349 0.140697
C19   C     C_R   0.804128 0.498452 0.358115 0.138861
C20   C     C_R   0.695959 0.998462 0.641792 0.138848
C21   C     C_R   0.308297 0.998515 0.353534 0.140717
C22   C     C_2   0.946245 0.450552 0.478665 0.010765
C23   C     C_2   0.046795 0.450946 0.541754 0.009052
C24   C     C_2   0.453380 0.950970 0.457689 0.009107
C25   C     C_R   0.687008 0.373380 0.090442 -0.128242
C26   C     C_2   0.553937 0.950559 0.520748 0.010921
C27   C     C_2   0.896749 0.496772 0.456882 -0.202743
C28   C     C_2   0.095463 0.496570 0.555128 -0.198151
C29   C     C_2   0.404724 0.996568 0.444552 -0.198143
C30   C     C_2   0.603445 0.996805 0.542833 -0.202960
C31   C     C_R   0.394798 0.775149 0.084309 0.095469
C32   C     C_R   0.603870 0.773709 0.910728 0.098626
C33   C     C_R   0.896097 0.273737 0.089121 0.098607
C34   C     C_R   0.105177 0.275145 0.915622 0.095387
C35   C     C_R   0.354998 0.741514 0.992181 0.007796
C36   C     C_R   0.812994 0.873378 0.909534 -0.128398
C37   C     C_R   0.641405 0.741705 0.004903 0.006215
C38   C     C_R   0.858546 0.241701 0.994996 0.006223
C39   C     C_R   0.144978 0.241518 0.007771 0.007755
C40   C     C_R   0.281647 0.764771 0.892529 -0.200810
C41   C     C_R   0.713828 0.765571 0.104149 -0.207338
C42   C     C_R   0.786078 0.265543 0.895745 -0.207288
C43   C     C_R   0.218314 0.264782 0.107421 -0.200955
C44   C     C_R   0.736235 0.310324 0.896325 -0.161383
C45   C     C_R   0.265561 0.311482 0.107813 -0.168172
C46   C     C_R   0.234389 0.811466 0.892137 -0.168217
C47   C     C_R   0.188439 0.875808 0.088417 -0.124615
C48   C     C_R   0.763659 0.810357 0.103570 -0.161331
C49   C     C_R   0.756522 0.329869 0.996133 0.029089
C50   C     C_R   0.241609 0.334408 0.008412 0.032565
C51   C     C_R   0.258368 0.834407 0.991538 0.032588
C52   C     C_R   0.743428 0.829868 0.003767 0.028969
C53   C     C_R   0.439661 0.651492 0.088838 -0.132029
C54   C     C_R   0.558294 0.651773 0.910972 -0.151560
C55   C     C_R   0.941693 0.151779 0.089008 -0.151488
C56   C     C_R   0.060334 0.151490 0.911148 -0.132045
C57   C     C_R   0.845167 0.317074 0.089650 0.103020
C58   C     C_R   0.377747 0.682962 0.997169 0.073754
C59   C     C_R   0.153162 0.320304 0.915746 0.101953
C60   C     C_R   0.346829 0.820314 0.084177 0.101941
C61   C     C_R   0.654821 0.817045 0.910198 0.103084
C62   C     C_3   0.886644 0.311199 0.208178 0.094786
C63   C     C_3   0.105589 0.318349 0.795473 0.100722
C64   C     C_3   0.394549 0.818439 0.204479 0.100693
C65   C     C_3   0.613606 0.811028 0.791742 0.094641
C66   C     C_3   0.447438 0.767388 0.205217 -0.122872
C67   C     C_3   0.556835 0.762423 0.791392 -0.121565
C68   C     C_3   0.943378 0.262566 0.208519 -0.121563
C69   C     C_R   0.619827 0.683301 0.001952 0.079475
C70   C     C_3   0.052632 0.267336 0.794735 -0.122856
C71   C     C_R   0.592200 0.448082 0.612591 0.175885
C72   C     C_R   0.604497 0.447976 0.529610 0.182596
C73   C     C_R   0.895710 0.947934 0.470552 0.182569
C74   C     C_R   0.907987 0.948040 0.387556 0.175719
C75   C     C_R   0.579566 0.497981 0.649992 0.032446
C76   C     C_R   0.602363 0.497814 0.480925 0.030469
C77   C     C_R   0.897677 0.997779 0.519100 0.030541
C78   C     C_R   0.920447 0.997947 0.350014 0.032510
C79   C     C_R   0.605141 0.547143 0.623243 -0.191380
C80   C     C_R   0.880160 0.183301 0.998005 0.079482
C81   C     C_R   0.616525 0.547080 0.538159 -0.196309
C82   C     C_R   0.883385 0.047029 0.461763 -0.196272
C83   C     C_R   0.894748 0.047091 0.376662 -0.191352
C84   C     C_3   0.548957 0.395871 0.481687 -0.529222
C85   C     C_3   0.534877 0.396242 0.571718 -0.533487
C86   C     C_3   0.965545 0.896292 0.428614 -0.533480
C87   C     C_3   0.951496 0.895924 0.518666 -0.529240
C88   C     C_R   0.552159 0.453750 0.303499 -0.163149
C89   C     C_R   0.504262 0.453811 0.734629 -0.132650
C90   C     C_R   0.995732 0.953804 0.265357 -0.132698
C91   C     C_R   0.122246 0.182963 0.002806 0.073797
C92   C     C_R   0.947845 0.953747 0.696513 -0.163189
C93   C     C_R   0.240670 0.545136 0.703812 -0.133187
C94   C     C_R   0.756994 0.545012 0.298946 -0.136605
C95   C     C_R   0.743059 0.045015 0.701002 -0.136678
C96   C     C_R   0.259385 0.045138 0.296114 -0.133153
C97   C     C_R   0.547096 0.545326 0.301979 -0.117662
C98   C     C_R   0.511664 0.545841 0.742012 -0.124394
C99   C     C_R   0.988327 0.045835 0.257983 -0.124416
C100  C     C_R   0.952903 0.045323 0.698012 -0.117675
C101  C     C_R   0.245176 0.453109 0.702965 -0.099086
C102  C     C_R   0.566073 0.499234 0.366088 0.081573
C103  C     C_R   0.752878 0.453057 0.298715 -0.084717
C104  C     C_R   0.747154 0.953062 0.701250 -0.084394
C105  C     C_R   0.254877 0.953110 0.296990 -0.099372
C106  C     C_R   0.349277 0.650517 0.907362 -0.116389
C107  C     C_R   0.649784 0.650832 0.092228 -0.115007
C108  C     C_R   0.850210 0.150827 0.907750 -0.115009
C109  C     C_R   0.150718 0.150520 0.092624 -0.116392
C110  C     C_R   0.403793 0.375080 0.093745 -0.123751
C111  C     C_R   0.592019 0.366489 0.909461 -0.122963
C112  C     C_R   0.907961 0.866485 0.090518 -0.122930
H1    H     H_    0.252878 0.373131 0.828158 0.121578
H2    H     H_    0.740826 0.746224 0.181747 0.126176
H3    H     H_    0.759065 0.246182 0.818157 0.126178
H4    H     H_    0.247674 0.243999 0.184277 0.126638
H5    H     H_    0.675029 0.323685 0.819090 0.114050
H6    H     H_    0.327849 0.323864 0.185041 0.120437
H7    H     H_    0.172086 0.823839 0.814915 0.120460
H8    H     H_    0.824836 0.823741 0.180816 0.114121
H9    H     H_    0.835408 0.297247 0.225238 0.064755
H10   H     H_    0.152355 0.307103 0.770233 0.061704
H11   H     H_    0.347897 0.807255 0.229912 0.061665
H12   H     H_    0.745783 0.371762 0.174100 0.133808
H13   H     H_    0.665029 0.797026 0.774997 0.064873
H14   H     H_    0.424364 0.729860 0.226647 0.086412
H15   H     H_    0.580859 0.723151 0.776378 0.082902
H16   H     H_    0.919485 0.223325 0.223799 0.082854
H17   H     H_    0.075718 0.229780 0.773401 0.086434
H18   H     H_    0.604975 0.586404 0.657461 0.125175
H19   H     H_    0.623380 0.586338 0.508979 0.123226
H20   H     H_    0.876431 0.086279 0.490871 0.123223
H21   H     H_    0.894800 0.086345 0.342342 0.125185
H22   H     H_    0.481720 0.401513 0.400374 0.201660
H23   H     H_    0.754235 0.871767 0.825869 0.134144
H24   H     H_    0.570099 0.361109 0.629115 0.188431
H25   H     H_    0.930474 0.861094 0.371361 0.188418
H26   H     H_    0.018706 0.901688 0.599946 0.201757
H27   H     H_    0.593054 0.360834 0.487770 0.193373
H28   H     H_    0.459879 0.402694 0.539677 0.202882
H29   H     H_    0.040500 0.902861 0.460583 0.202958
H30   H     H_    0.907580 0.860820 0.512741 0.193323
H31   H     H_    0.484865 0.665362 0.171662 0.093671
H32   H     H_    0.510737 0.665825 0.828800 0.097332
H33   H     H_    0.989225 0.165837 0.171183 0.097242
H34   H     H_    0.247123 0.873118 0.171824 0.121309
H35   H     H_    0.015115 0.165357 0.828322 0.093657
H36   H     H_    0.576806 0.412286 0.331988 0.103819
H37   H     H_    0.502492 0.411953 0.712027 0.097437
H38   H     H_    0.997495 0.911943 0.287945 0.097467
H39   H     H_    0.923206 0.912281 0.668031 0.103821
H40   H     H_    0.222221 0.587733 0.678911 0.091440
H41   H     H_    0.773542 0.587512 0.325504 0.089482
H42   H     H_    0.726564 0.087514 0.674413 0.089470
H43   H     H_    0.277873 0.087736 0.320971 0.091443
H44   H     H_    0.562712 0.587835 0.328407 0.079719
H45   H     H_    0.929153 0.535529 0.497675 0.129947
H46   H     H_    0.522750 0.588679 0.732585 0.089599
H47   H     H_    0.977240 0.088670 0.267419 0.089628
H48   H     H_    0.937289 0.087831 0.671566 0.079726
H49   H     H_    0.234204 0.410728 0.675634 0.086319
H50   H     H_    0.762024 0.410721 0.325811 0.083533
H51   H     H_    0.738043 0.910728 0.674159 0.083596
H52   H     H_    0.265902 0.910726 0.324329 0.086386
H53   H     H_    0.313010 0.663720 0.823653 0.084696
H54   H     H_    0.686502 0.664044 0.175983 0.083688
H55   H     H_    0.813495 0.164032 0.823989 0.083684
H56   H     H_    0.062126 0.534713 0.512062 0.128743
H57   H     H_    0.186982 0.163726 0.176329 0.084695
H58   H     H_    0.431260 0.371011 0.178751 0.092819
H59   H     H_    0.560287 0.351198 0.828343 0.082332
H60   H     H_    0.939672 0.851190 0.171633 0.082313
H61   H     H_    0.068726 0.871017 0.821239 0.092831
H62   H     H_    0.913708 0.411087 0.443278 0.147480
H63   H     H_    0.080490 0.412161 0.580280 0.147401
H64   H     H_    0.419650 0.912202 0.419094 0.147464
H65   H     H_    0.586457 0.911064 0.555969 0.147461
H66   H     H_    0.573897 0.775063 0.139324 0.241782
H67   H     H_    0.438075 0.034695 0.487674 0.128712
H68   H     H_    0.565100 0.842029 0.185480 0.297230
H69   H     H_    0.671198 0.802317 0.267159 0.224006
H70   H     H_    0.583832 0.793049 0.349950 0.218694
H71   H     H_    0.586089 0.729485 0.293687 0.142433
H72   H     H_    0.420160 0.776604 0.842123 0.240410
H73   H     H_    0.435782 0.841527 0.794784 0.295270
H74   H     H_    0.328878 0.802740 0.709967 0.226237
H75   H     H_    0.424769 0.787495 0.639387 0.220923
H76   H     H_    0.416543 0.726229 0.696771 0.143675
H77   H     H_    0.079561 0.276683 0.157072 0.240484
H78   H     H_    0.571061 0.035594 0.502166 0.129935
H79   H     H_    0.064103 0.341644 0.204426 0.295322
H80   H     H_    0.171063 0.302882 0.289035 0.226250
H81   H     H_    0.075592 0.287731 0.360202 0.220910
H82   H     H_    0.083686 0.226410 0.302827 0.143761
H83   H     H_    0.926030 0.275194 0.860423 0.241774
H84   H     H_    0.934907 0.342103 0.814127 0.297189
H85   H     H_    0.828801 0.302391 0.732479 0.224003
H86   H     H_    0.916295 0.292969 0.649864 0.218687
H87   H     H_    0.913951 0.229466 0.706239 0.142415
H88   H     H_    0.252282 0.743984 0.815681 0.126607
N1    N     N_R   0.395410 0.396350 0.944340 -0.046893
N2    N     N_R   0.474920 0.471030 0.794350 -0.041079
N3    N     N_R   0.025080 0.971030 0.205650 -0.041064
N4    N     N_R   0.974920 0.971030 0.794350 -0.038390
N5    N     N_R   0.320260 0.527820 0.794570 -0.041377
N6    N     N_R   0.679740 0.527820 0.205430 -0.040472
N7    N     N_R   0.820260 0.027820 0.794570 -0.040479
N8    N     N_R   0.179740 0.027820 0.205430 -0.041376
N9    N     N_R   0.524590 0.527840 0.205200 -0.038924
N10   N     N_R   0.475410 0.527840 0.794800 -0.041976
N11   N     N_R   0.024590 0.027840 0.205200 -0.041970
N12   N     N_R   0.604590 0.396350 0.055660 -0.046222
N13   N     N_R   0.975410 0.027840 0.794800 -0.038915
N14   N     N_R   0.320750 0.471000 0.795020 -0.044742
N15   N     N_R   0.679250 0.471000 0.204980 -0.044461
N16   N     N_R   0.820750 0.971000 0.795020 -0.044510
N17   N     N_R   0.179250 0.971000 0.204980 -0.044718
N18   N     N_R   0.393620 0.602490 0.942710 -0.039060
N19   N     N_R   0.606380 0.602490 0.057290 -0.038657
N20   N     N_R   0.893620 0.102490 0.942710 -0.038666
N21   N     N_R   0.106380 0.102490 0.057290 -0.039063
N22   N     N_R   0.451720 0.396350 0.057510 -0.043978
N23   N     N_R   0.895410 0.896350 0.944340 -0.046226
N24   N     N_R   0.548280 0.396350 0.942490 -0.041247
N25   N     N_R   0.951720 0.896350 0.057510 -0.041241
N26   N     N_R   0.048280 0.896350 0.942490 -0.043978
N27   N     N_R   0.104590 0.896350 0.055660 -0.046882
N28   N     N_R   0.449930 0.602500 0.055880 -0.040699
N29   N     N_R   0.550070 0.602500 0.944120 -0.039346
N30   N     N_R   0.949930 0.102500 0.055880 -0.039354
N31   N     N_R   0.050070 0.102500 0.944120 -0.040696
N32   N     N_R   0.525080 0.471030 0.205650 -0.038395
Ni1   Ni    Ni4+2 0.435420 0.434270 0.870230 0.215960
Ni2   Ni    Ni4+2 0.564580 0.434270 0.129770 0.211731
Ni3   Ni    Ni4+2 0.935420 0.934270 0.870230 0.211717
Ni4   Ni    Ni4+2 0.064580 0.934270 0.129770 0.215979
Ni5   Ni    Ni4+2 0.563430 0.564580 0.128740 0.210096
Ni6   Ni    Ni4+2 0.436570 0.564580 0.871260 0.212227
Ni7   Ni    Ni4+2 0.063430 0.064580 0.128740 0.212225
Ni8   Ni    Ni4+2 0.936570 0.064580 0.871260 0.210080

loop_
_geom_bond_atom_site_label_1
_geom_bond_atom_site_label_2
_ccdc_geom_bond_type
C41   H2    S    
C27   H45   S    
N22   Ni2   S    
C112  N25   A    
C20   C95   A    
C10   C67   S    
C15   C16   S    
C12   C68   S    
C54   N29   A    
C37   C69   S    
N18   Ni6   S    
C6    C112  A    
C53   C58   A    
C43   C45   A    
C95   N7    A    
C73   C74   A    
C74   C86   S    
C3    C7    A    
N7    N16   A    
C94   N6    A    
C22   C23   S    
N12   N24   A    
C18   C28   S    
C97   H44   S    
N5    N14   A    
C60   C64   S    
N15   Ni2   S    
C71   C85   S    
C23   H63   S    
C16   H85   S    
C86   H29   S    
C54   H32   S    
C36   H23   S    
C92   N4    A    
C92   H39   S    
C50   C59   A    
C52   C61   A    
N32   Ni2   S    
C70   H17   S    
C76   C102  S    
C66   H14   S    
C3    H61   S    
C6    C36   A    
C13   C78   S    
C38   C42   A    
C93   H40   S    
C33   C38   A    
C65   C67   S    
N20   N30   A    
C16   H84   S    
C79   H18   S    
C111  H59   S    
N19   N29   A    
C17   C100  A    
C49   C57   A    
C57   C62   S    
C98   N10   A    
C62   C68   S    
Br3   C64   S    
C47   H34   S    
C97   N9    A    
C4    C110  A    
C30   H78   S    
C29   H67   S    
C39   C91   S    
N16   Ni3   S    
C68   H16   S    
C31   C60   A    
C20   C104  A    
N9    N32   A    
C6    C52   S    
C45   C50   A    
C72   C84   S    
C84   H27   S    
C77   C82   A    
C32   C67   S    
C5    C25   A    
N30   Ni7   S    
C87   H26   S    
C10   H76   S    
C2    C89   A    
C22   H62   S    
C28   H56   S    
C103  H50   S    
N18   N28   A    
C22   C27   D    
C18   C93   A    
C14   H77   S    
C108  N20   A    
C32   C37   A    
N26   N27   A    
C56   N31   A    
C83   H21   S    
C89   N2    A    
C2    C75   S    
N4    Ni3   S    
C15   H87   S    
Br4   C65   S    
C69   C107  A    
C110  H58   S    
C59   C63   S    
N8    N17   A    
C55   H33   S    
C44   C49   A    
C100  N13   A    
C42   C44   A    
C9    H69   S    
C112  H60   S    
N17   Ni4   S    
C14   H80   S    
N28   Ni5   S    
C5    C111  A    
C38   C80   S    
C55   C80   A    
C31   C66   S    
Br2   C63   S    
C63   H10   S    
C4    C50   S    
C44   H5    S    
C53   N28   A    
C26   C30   D    
C32   C61   A    
N20   Ni8   S    
C25   N12   A    
C111  N24   A    
C41   C48   A    
C19   C27   S    
C8    H71   S    
C67   H15   S    
C88   N32   A    
C15   H86   S    
C20   C30   S    
N6    N15   A    
C1    H1    S    
N27   Ni4   S    
C56   H35   S    
N21   N31   A    
C90   N3    A    
C31   C35   A    
C71   C72   A    
C106  H53   S    
C16   H83   S    
C88   H36   S    
C76   C81   A    
C105  H52   S    
C110  N22   A    
C74   C78   A    
C21   C96   A    
C109  N21   A    
C58   C106  A    
C94   H41   S    
C73   C77   A    
C98   H46   S    
C85   H24   S    
C19   C103  A    
C51   C60   A    
N3    N11   A    
Br1   C62   S    
N1    N22   A    
C63   C70   S    
C107  N19   A    
C84   C85   S    
N25   Ni4   S    
N1    Ni1   S    
C24   H64   S    
C64   H11   S    
C84   H22   S    
N9    Ni5   S    
C93   N5    A    
N3    Ni4   S    
C81   H19   S    
C103  N15   A    
C10   H75   S    
C82   H20   S    
C43   H4    S    
N23   N25   A    
C11   H74   S    
C17   C77   S    
C24   C29   D    
C101  N14   A    
C53   H31   S    
C26   H65   S    
C95   H42   S    
C55   N30   A    
C5    C49   S    
C85   H28   S    
C99   N11   A    
N23   Ni3   S    
C97   C102  A    
C12   H82   S    
C109  H57   S    
C34   C59   A    
C34   C70   S    
C40   C46   A    
N4    N13   A    
C9    H68   S    
C35   C58   S    
C8    C66   S    
C73   C87   S    
C79   C81   A    
C14   H79   S    
C82   C83   A    
C99   H47   S    
N7    Ni8   S    
C104  H51   S    
C15   C70   S    
C46   H7    S    
C72   C76   A    
C105  N17   A    
C39   C43   A    
N6    Ni5   S    
N5    Ni6   S    
C100  H48   S    
C1    C4    A    
C33   C57   A    
C35   C40   A    
C13   C90   A    
C17   C92   A    
C21   C105  A    
N21   Ni7   S    
C18   C101  A    
C11   H72   S    
N11   Ni7   S    
C46   C51   A    
C62   H9    S    
C8    H70   S    
N10   Ni6   S    
C7    C51   S    
N12   Ni2   S    
C12   C14   S    
C107  H54   S    
C36   N23   A    
C89   H37   S    
C13   C99   A    
N13   Ni8   S    
C34   C39   A    
C47   N27   A    
C33   C68   S    
C91   C109  A    
C104  N16   A    
C75   C79   A    
C90   H38   S    
C48   H8    S    
C96   H43   S    
N2    N10   A    
C86   C87   S    
C96   N8    A    
N19   Ni5   S    
C61   C65   S    
C45   H6    S    
C24   C26   S    
C101  H49   S    
C42   H3    S    
N2    Ni1   S    
C2    C98   A    
C11   H73   S    
N8    Ni7   S    
N31   Ni8   S    
C86   H25   S    
C7    C47   A    
C23   C28   D    
C1    N1    A    
C108  H55   S    
C56   C91   A    
C48   C52   A    
N29   Ni6   S    
N24   Ni1   S    
C19   C94   A    
C8    C9    S    
C65   H13   S    
C9    H66   S    
C25   H12   S    
C21   C29   S    
C40   H88   S    
C64   C66   S    
C37   C41   A    
C10   C11   S    
C80   C108  A    
C88   C102  A    
N14   Ni1   S    
C71   C75   A    
C87   H30   S    
C12   H81   S    
C78   C83   A    
C54   C69   A    
N26   Ni3   S    
C3    N26   A    
C106  N18   A    
