data_mof_unit_10195.cif
_audit_creation_date              2013-03-05T15:59:23-0500
_audit_creation_method            fapswitch 2.2
_symmetry_space_group_name_H-M    P1
_symmetry_Int_Tables_number       1
_space_group_crystal_system       triclinic
_cell_length_a                    10.564699
_cell_length_b                    12.639262
_cell_length_c                    13.268521
_cell_angle_alpha                 82.584765
_cell_angle_beta                  92.569962
_cell_angle_gamma                 100.947101
_cell_volume                      1724.58119449

loop_
_atom_site_label
_atom_site_type_symbol
_atom_site_description
_atom_site_fract_x
_atom_site_fract_y
_atom_site_fract_z
_atom_type_partial_charge
O1    O     O_R   0.467970 0.366730 0.627150 -0.580412
O2    O     O_R   0.510820 0.544830 0.662520 -0.612995
C1    C     C_R   0.475921 0.439300 0.690216 0.873034
O3    O     O_R   0.664630 0.410960 0.482340 -0.600690
O4    O     O_R   0.707470 0.589060 0.517710 -0.568353
C2    C     C_R   0.741632 0.500378 0.498757 0.949631
Zn1   Zn    Zn3+2 0.471390 0.381080 0.476380 1.078518
Zn2   Zn    Zn3+2 0.528610 0.618920 0.523620 1.087676
O5    O     O_R   0.489180 0.455170 0.337480 -0.566783
O6    O     O_R   0.532030 0.633270 0.372850 -0.579466
O7    O     O_R   0.292530 0.410940 0.482290 -0.594081
O8    O     O_R   0.335370 0.589040 0.517660 -0.569462
C3    C     C_R   0.514786 0.560437 0.308592 0.970787
C4    C     C_R   0.258158 0.498999 0.502762 0.935415
C5    C     C_3   0.946015 0.443761 0.589327 -0.274308
C6    C     C_3   0.053104 0.546146 0.580699 0.247393
H1    H     H_    0.899958 0.398145 0.659563 0.234783
C7    C     C_3   0.123028 0.498457 0.504149 -0.262522
C8    C     C_3   0.016345 0.397876 0.510647 0.331478
C9    C     C_3   0.943482 0.450518 0.420839 -0.197333
C10   C     C_3   0.051574 0.553341 0.414117 -0.223252
C11   C     C_3   0.982262 0.600824 0.492328 0.327172
C12   C     C_3   0.876192 0.499912 0.499071 -0.228872
H2    H     H_    0.894929 0.409974 0.356313 0.237414
H3    H     H_    0.094135 0.597754 0.342383 0.255071
C13   C     C_R   0.502471 0.727550 0.049745 -0.140444
H4    H     H_    0.398648 0.737542 0.860042 0.181652
H5    H     H_    0.505896 0.810518 0.015200 0.226465
C14   C     C_R   0.514098 0.595045 0.198207 -0.294701
C15   C     C_R   0.468326 0.293850 0.838971 0.266584
C16   C     C_R   0.512063 0.275525 0.939147 -0.198225
C17   C     C_R   0.533549 0.359007 0.000526 0.329124
C18   C     C_R   0.485380 0.456313 0.967623 0.025995
C19   C     C_R   0.443976 0.476265 0.865805 0.006231
C20   C     C_R   0.482679 0.537115 0.031076 0.007478
C21   C     C_R   0.469672 0.642698 0.989870 -0.010200
C22   C     C_R   0.420911 0.659474 0.891248 -0.027562
C23   C     C_R   0.398899 0.573882 0.832611 -0.015766
C24   C     C_R   0.478435 0.512701 0.135194 0.590756
C25   C     C_R   0.539658 0.705158 0.152315 0.290331
C26   C     C_R   0.453584 0.400429 0.798683 -0.214182
H6    H     H_    0.537304 0.197765 0.967390 0.245030
H7    H     H_    0.353243 0.586859 0.758995 0.192823
C27   C     C_R   0.380656 0.114293 0.310520 0.719812
H8    H     H_    0.330423 0.270017 0.312026 0.224310
N1    N     N_R   0.432930 0.222190 0.444670 -0.169482
C28   C     C_R   0.650855 0.798263 0.634502 0.299426
C29   C     C_R   0.701460 0.905364 0.651827 0.111099
C30   C     C_R   0.661670 0.992009 0.590088 0.231330
C31   C     C_R   0.564756 0.970060 0.514317 -0.110519
C32   C     C_R   0.524942 0.861206 0.492084 -0.025858
C33   C     C_R   0.503617 0.052089 0.460066 -0.097152
C34   C     C_R   0.442080 0.034662 0.365121 -0.216954
C35   C     C_R   0.430525 0.933832 0.331799 0.694892
C36   C     C_R   0.447216 0.845316 0.402056 0.238943
C37   C     C_R   0.493636 0.148139 0.499451 0.118940
C38   C     C_R   0.375999 0.207375 0.353114 0.002251
N2    N     N_R   0.566370 0.776980 0.554790 -0.172539
H9    H     H_    0.532568 0.165788 0.573171 0.193938
N3    N     N_R   0.112038 0.597016 0.668258 0.233463
O9    O     O_R   0.196745 0.686558 0.655759 -0.308700
O10   O     O_R   0.076193 0.555089 0.759582 -0.330418
F1    F     F_    0.427166 0.408931 0.172722 -0.639044
N4    N     N_R   0.443409 0.204849 0.779075 0.231466
O11   O     O_R   0.513006 0.129376 0.793126 -0.339735
O12   O     O_R   0.336165 0.187465 0.726446 -0.280645
N5    N     N_R   0.614865 0.347568 0.089758 0.253039
O13   O     O_R   0.707125 0.427181 0.108434 -0.354143
O14   O     O_R   0.610733 0.252969 0.142912 -0.299003
F2    F     F_    0.365794 0.914690 0.242999 -0.517996
F3    F     F_    0.322721 0.101977 0.218216 -0.531452
N6    N     N_R   0.701078 0.712479 0.694407 0.249521
O15   O     O_R   0.811439 0.692370 0.671065 -0.290440
O16   O     O_R   0.664207 0.684407 0.787633 -0.356365
N7    N     N_R   0.731859 0.100458 0.595948 0.223599
O17   O     O_R   0.771850 0.162833 0.513380 -0.328328
O18   O     O_R   0.757604 0.136925 0.683356 -0.290856
N8    N     N_R   0.802574 0.925760 0.726549 0.281259
O19   O     O_R   0.779369 0.897072 0.822628 -0.255478
O20   O     O_R   0.918320 0.972605 0.698543 -0.199240
N9    N     N_R   0.342682 0.757106 0.399555 0.237225
O21   O     O_R   0.321419 0.708685 0.317960 -0.385123
O22   O     O_R   0.243683 0.761075 0.452637 -0.323468
N10   N     N_R   0.040403 0.287241 0.521211 0.273694
O23   O     O_R   0.031427 0.235025 0.442141 -0.286467
O24   O     O_R   0.085592 0.245366 0.606830 -0.263945
N11   N     N_R   0.961787 0.712810 0.477545 0.268813
O25   O     O_R   0.008516 0.779736 0.542347 -0.211539
O26   O     O_R   0.909284 0.749505 0.393083 -0.274240
N12   N     N_R   0.606209 0.792865 0.204961 0.234537
O27   O     O_R   0.699517 0.776612 0.268773 -0.297812
O28   O     O_R   0.599917 0.892632 0.169268 -0.295851

loop_
_geom_bond_atom_site_label_1
_geom_bond_atom_site_label_2
_geom_bond_distance
_ccdc_geom_bond_type
N11   O25   1.299867 A    
N6    O16   1.298129 A    
C16   H6    1.083060 S    
C15   N4    1.437298 S    
C7    C10   1.543451 S    
C4    C7    1.427257 S    
C8    C9    1.537148 S    
N9    O21   1.301592 A    
C34   C35   1.384210 A    
Zn1   O7    2.002742 S    
H8    C38   1.079702 S    
C3    C14   1.473590 S    
C21   C22   1.389995 A    
N10   O24   1.300285 A    
C15   C16   1.392841 A    
O7    C4    1.297999 A    
N8    O20   1.301119 A    
C5    C6    1.544358 S    
C27   F3    1.358181 S    
N3    O10   1.300649 A    
C7    C8    1.526461 S    
C6    N3    1.458311 S    
C29   N8    1.434209 S    
O5    C3    1.315780 A    
Zn2   N2    2.053539 S    
C5    C8    1.538772 S    
C27   C34   1.405932 A    
C9    H2    1.110304 S    
C31   C33   1.424894 A    
C30   N7    1.439121 S    
C15   C26   1.418086 A    
C36   N9    1.415051 S    
C5    C12   1.543442 S    
C19   C23   1.416736 A    
C10   C11   1.539200 S    
C19   C26   1.409842 A    
O3    Zn1   2.004268 S    
N9    O22   1.299070 A    
C18   C19   1.407483 A    
N5    O13   1.301603 A    
Zn1   N1    2.065925 S    
N10   O23   1.300498 A    
O3    C2    1.298075 A    
N8    O19   1.300665 A    
N3    O9    1.299774 A    
N5    O14   1.301620 A    
C20   C21   1.404735 A    
N4    O12   1.301431 A    
C20   C24   1.376963 A    
N7    O17   1.300898 A    
C22   C23   1.391121 A    
N12   O28   1.301407 A    
C28   C29   1.401988 A    
C35   F2    1.361231 S    
C9    C12   1.540979 S    
C27   C38   1.379144 A    
Zn2   O8    2.004270 S    
C14   C24   1.404135 A    
C31   C32   1.425027 A    
C32   N2    1.390243 A    
C11   N11   1.459278 S    
N7    O18   1.301374 A    
C17   N5    1.439610 S    
C13   C21   1.398387 A    
C29   C30   1.399813 A    
O8    C4    1.300255 A    
N11   O26   1.298655 A    
N1    C38   1.350188 A    
C8    N10   1.456289 S    
C33   C34   1.414925 A    
C5    H1    1.110446 S    
C10   H3    1.108072 S    
C35   C36   1.393831 A    
C1    C26   1.473857 S    
C6    C11   1.523546 S    
O1    Zn1   1.986584 S    
C16   C17   1.393705 A    
O2    Zn2   1.956432 S    
N6    O15   1.298140 A    
O6    C3    1.316254 A    
C6    C7    1.528110 S    
O4    Zn2   2.002739 S    
C24   F1    1.359170 S    
C13   H5    1.083556 S    
C37   H9    1.077541 S    
C25   N12   1.439093 S    
N4    O11   1.301363 A    
O2    C1    1.322470 A    
C23   H7    1.077074 S    
C17   C18   1.428761 A    
C28   N2    1.373046 A    
C13   C25   1.407651 A    
N12   O27   1.299229 A    
O4    C2    1.297850 A    
H4    C22   1.083669 S    
C2    C12   1.422531 S    
C14   C25   1.426164 A    
C18   C20   1.409902 A    
C32   C36   1.432785 A    
C28   N6    1.430783 S    
Zn1   O5    1.956433 S    
C9    C10   1.554527 S    
Zn2   O6    1.986586 S    
C30   C31   1.416982 A    
N1    C37   1.351385 A    
C11   C12   1.525516 S    
O1    C1    1.308102 A    
C33   C37   1.405455 A    
