data_mof_unit_13128.cif
_audit_creation_date              2012-10-26T18:55:15-0400
_audit_creation_method            fapswitch 2.2
_symmetry_space_group_name_H-M    P1
_symmetry_Int_Tables_number       1
_space_group_crystal_system       triclinic
_cell_length_a                    12.72949
_cell_length_b                    13.902869
_cell_length_c                    27.784282
_cell_angle_alpha                 90.108243
_cell_angle_beta                  92.612269
_cell_angle_gamma                 98.093584
_cell_volume                      4862.95498194

loop_
_atom_site_label
_atom_site_type_symbol
_atom_type_description
_atom_site_fract_x
_atom_site_fract_y
_atom_site_fract_z
_atom_type_partial_charge
C1    C     C_R   0.483437 0.315816 0.499624 0.530391
C2    C     C_R   0.395271 0.475659 0.871043 -0.010686
C3    C     C_R   0.502898 0.496247 0.354443 -0.050704
C4    C     C_R   0.496961 0.504293 0.645401 -0.060291
C5    C     C_R   0.404940 0.462526 0.973288 0.012292
C6    C     C_R   0.595943 0.542926 0.026416 0.012557
C7    C     C_R   0.584350 0.556282 0.975613 -0.004691
C8    C     C_R   0.416508 0.449198 0.024075 -0.004518
C9    C     C_R   0.492368 0.511269 0.949051 -0.033080
C10   C     C_R   0.508530 0.494104 0.050649 -0.032366
C11   C     C_R   0.306521 0.435380 0.946458 0.300458
C12   C     C_R   0.516558 0.684184 0.500493 0.534830
C13   C     C_R   0.694361 0.570026 0.053258 0.301306
C14   C     C_R   0.302309 0.442567 0.895691 0.114936
C15   C     C_R   0.698745 0.562254 0.104008 0.114436
C16   C     C_R   0.500864 0.500302 0.407342 0.557192
C17   C     C_R   0.499116 0.499748 0.592611 0.558378
C18   C     C_R   0.342131 0.385868 0.048948 -0.084021
C19   C     C_R   0.658660 0.619615 0.950688 -0.085181
C20   C     C_1   0.526293 0.787446 0.500962 -0.040989
C21   C     C_1   0.473703 0.212552 0.499259 -0.041981
C22   C     C_2   0.545060 0.979764 0.501823 0.299203
C23   C     C_R   0.513812 0.487338 0.101777 -0.108956
C24   C     C_2   0.454929 0.020232 0.498580 0.299623
C25   C     C_1   0.464687 0.125494 0.498920 -0.016207
C26   C     C_1   0.535308 0.874503 0.501394 -0.016992
C27   C     C_2   0.026886 0.475595 0.484339 0.264569
C28   C     C_2   0.973124 0.524495 0.515618 0.264338
C29   C     C_1   0.854604 0.518447 0.510479 0.182878
C30   C     C_1   0.145399 0.481585 0.489501 0.183433
C31   C     C_R   0.430826 0.437794 0.176722 0.460454
C32   C     C_R   0.569973 0.567136 0.822911 0.448711
C33   C     C_R   0.603080 0.530767 0.179579 0.410032
C34   C     C_R   0.487135 0.517772 0.897920 -0.105912
C35   C     C_R   0.398255 0.473176 0.820199 0.375570
C36   C     C_R   0.448541 0.551306 0.275113 0.323748
C37   C     C_R   0.546902 0.447473 0.724951 0.337830
C38   C     C_R   0.441244 0.552581 0.325286 0.027894
C39   C     C_R   0.554158 0.444744 0.674759 0.025234
C40   C     C_R   0.568129 0.435857 0.332665 0.224172
C41   C     C_R   0.437007 0.569526 0.666784 0.267839
C42   C     C_R   0.575089 0.435358 0.282301 0.112518
C43   C     C_R   0.431399 0.573099 0.716994 0.109291
C44   C     C_R   0.513996 0.491646 0.253665 0.209201
C45   C     C_R   0.427532 0.436728 0.126028 0.036055
C46   C     C_R   0.486880 0.512396 0.746091 0.176199
C47   C     C_3   0.565247 0.291911 0.371555 -0.089279
C48   C     C_3   0.447451 0.716613 0.630731 -0.072690
C49   C     C_3   0.971330 0.625651 0.583119 -0.100450
C50   C     C_3   0.028756 0.375169 0.416574 -0.104299
C51   C     C_3   0.168132 0.361902 0.117128 -0.068916
C52   C     C_3   0.832675 0.644054 0.882578 -0.068183
C53   C     C_3   0.544742 0.299683 0.759588 -0.086701
C54   C     C_3   0.443029 0.697367 0.239722 -0.091486
C55   C     C_3   0.151338 0.329614 0.958441 -0.110358
C56   C     C_R   0.573300 0.568449 0.873619 0.038555
C57   C     C_3   0.848917 0.676632 0.041387 -0.111001
C58   C     C_3   0.269413 0.011306 0.492033 -0.115943
C59   C     C_3   0.730556 0.988687 0.508640 -0.117037
C60   C     C_R   0.342235 0.384107 0.099008 0.268054
C61   C     C_R   0.658497 0.621295 0.900606 0.267091
C62   C     C_R   0.605871 0.528931 0.128692 -0.014485
Cu1   Cu    Cu3+1 0.395330 0.493960 0.496930 1.017439
Cu2   Cu    Cu3+1 0.604670 0.506040 0.503070 1.016368
H1    H     H_    0.285177 0.332929 0.030330 0.158262
H2    H     H_    0.928096 0.678601 0.563245 0.111102
H3    H     H_    0.024869 0.666869 0.610936 0.169006
H4    H     H_    0.072350 0.322140 0.436188 0.112423
H5    H     H_    0.084328 0.429883 0.397692 0.124336
H6    H     H_    0.975232 0.334162 0.388683 0.163396
H7    H     H_    0.720804 0.397009 0.274240 0.272500
H8    H     H_    0.619379 0.304347 0.267681 0.234633
H9    H     H_    0.421349 0.685719 0.762018 0.232633
H10   H     H_    0.310691 0.602190 0.757277 0.266126
H11   H     H_    0.136648 0.361328 0.079126 0.114488
H12   H     H_    0.715545 0.672655 0.969273 0.158208
H13   H     H_    0.177514 0.436933 0.132407 0.149409
H14   H     H_    0.108254 0.316290 0.138155 0.155151
H15   H     H_    0.823675 0.568856 0.867527 0.150172
H16   H     H_    0.864184 0.645217 0.920588 0.114290
H17   H     H_    0.892355 0.689626 0.861431 0.154636
H18   H     H_    0.571696 0.334534 0.629120 0.226801
H19   H     H_    0.680889 0.419915 0.637285 0.261133
H20   H     H_    0.416574 0.660024 0.371285 0.228444
H21   H     H_    0.311687 0.570069 0.362535 0.260382
H22   H     H_    0.527163 0.260785 0.724478 0.137675
H23   H     H_    0.536381 0.249374 0.338457 0.102272
H24   H     H_    0.469696 0.305518 0.777639 0.145015
H25   H     H_    0.591547 0.255061 0.782913 0.142579
H26   H     H_    0.517259 0.693453 0.220641 0.134618
H27   H     H_    0.461571 0.737211 0.274541 0.137276
H28   H     H_    0.392883 0.739891 0.216889 0.143897
H29   H     H_    0.192926 0.362566 0.850367 0.267403
H30   H     H_    0.190044 0.486088 0.848894 0.263804
H31   H     H_    0.808113 0.641853 0.149494 0.264633
H32   H     H_    0.811426 0.518353 0.150447 0.271555
H33   H     H_    0.199312 0.275097 0.944661 0.102234
H34   H     H_    0.496570 0.304399 0.392904 0.110739
H35   H     H_    0.085437 0.339286 0.932187 0.175788
H36   H     H_    0.113588 0.298880 0.991293 0.118740
H37   H     H_    0.914856 0.667228 0.067668 0.175399
H38   H     H_    0.800495 0.730771 0.055187 0.101450
H39   H     H_    0.886612 0.707702 0.008588 0.118538
H40   H     H_    0.270905 0.056756 0.459091 0.118743
H41   H     H_    0.266367 0.056234 0.524984 0.123248
H42   H     H_    0.195548 0.958327 0.489412 0.153594
H43   H     H_    0.733933 0.943623 0.475765 0.122583
H44   H     H_    0.728722 0.943371 0.541634 0.119109
H45   H     H_    0.614147 0.247223 0.393796 0.163428
H46   H     H_    0.804413 0.041665 0.511357 0.153305
H47   H     H_    0.520267 0.704519 0.612217 0.093905
H48   H     H_    0.469474 0.757044 0.665150 0.133859
H49   H     H_    0.403509 0.762896 0.607008 0.158875
H50   H     H_    0.915444 0.571407 0.602115 0.124994
N1    N     N_R   0.516135 0.486712 0.202034 -0.366207
N2    N     N_3   0.801149 0.578174 0.128873 -0.601136
N3    N     N_R   0.484741 0.517928 0.797680 -0.388531
N4    N     N_1   0.238040 0.484880 0.492320 -0.196606
N5    N     N_1   0.761960 0.515120 0.507680 -0.196468
N6    N     N_3   0.643582 0.377232 0.259666 -0.574339
N7    N     N_3   0.371130 0.640790 0.737949 -0.576892
N8    N     N_3   0.618270 0.379357 0.654502 -0.581735
N9    N     N_3   0.372662 0.613720 0.345689 -0.578865
N10   N     N_3   0.199998 0.426571 0.870740 -0.602213
O1    O     O_R   0.399110 0.356330 0.497030 -0.508516
O2    O     O_2   0.651441 0.613434 0.798670 -0.432588
O3    O     O_2   0.317275 0.424431 0.793164 -0.535145
O4    O     O_2   0.684634 0.578284 0.206723 -0.519523
O5    O     O_3   0.628875 0.379928 0.360488 -0.535500
O6    O     O_3   0.380960 0.628453 0.638449 -0.504204
O7    O     O_3   0.033599 0.579557 0.551996 -0.579527
O8    O     O_3   0.966409 0.420516 0.447969 -0.580987
O9    O     O_3   0.264306 0.322317 0.121111 -0.526415
O10   O     O_3   0.736238 0.683183 0.878438 -0.527710
O11   O     O_3   0.605259 0.391666 0.753933 -0.514620
O12   O     O_R   0.600890 0.643670 0.502970 -0.508776
O13   O     O_3   0.386145 0.604171 0.246501 -0.516277
O14   O     O_3   0.211866 0.420827 0.970444 -0.561168
O15   O     O_3   0.788972 0.585214 0.029266 -0.560284
O16   O     O_3   0.357129 0.959492 0.495070 -0.583314
O17   O     O_3   0.642861 0.040503 0.505329 -0.584190
O18   O     O_R   0.575890 0.366530 0.502210 -0.470922
O19   O     O_R   0.424110 0.633470 0.497790 -0.468226
O20   O     O_R   0.411620 0.494910 0.427670 -0.525785
O21   O     O_R   0.588380 0.505090 0.572330 -0.523393
O22   O     O_R   0.588400 0.505120 0.432860 -0.436718
O23   O     O_R   0.411600 0.494880 0.567140 -0.438466
O24   O     O_2   0.349312 0.391330 0.200882 -0.427213

loop_
_geom_bond_atom_site_label_1
_geom_bond_atom_site_label_2
_ccdc_geom_bond_type
C2    C35   A    
C40   O5    S    
Cu2   O12   S    
C45   C60   A    
C1    C21   S    
C23   C45   A    
Cu2   O21   S    
C52   O10   S    
C55   H33   S    
C53   O11   S    
H29   N10   S    
C32   N3    A    
C24   O16   S    
C18   H1    S    
C5    C9    A    
C57   H38   S    
C29   N5    T    
C47   H34   S    
C20   C26   T    
H7    N6    S    
C47   O5    S    
C13   O15   S    
C19   H12   S    
C17   O23   A    
C50   H5    S    
C1    O1    A    
C54   H26   S    
C41   O6    S    
C11   C14   A    
C54   O13   S    
C4    C41   A    
C32   O2    S    
C59   H46   S    
C57   O15   S    
C16   O22   A    
Cu1   O23   S    
C22   C26   S    
C1    O18   A    
C23   C62   A    
C3    C38   A    
C33   C62   A    
C55   H36   S    
Cu1   O20   S    
C37   O11   S    
C53   H22   S    
C52   H15   S    
C36   O13   S    
C43   N7    S    
C38   N9    S    
C34   C56   A    
C2    C34   A    
C40   C42   A    
C49   H50   S    
C27   C30   S    
C12   C20   S    
C27   O8    S    
C41   C43   A    
C48   O6    S    
C42   C44   A    
C31   N1    A    
C61   O10   S    
C57   H39   S    
C33   N1    A    
C14   N10   S    
C49   H2    S    
C24   C25   S    
C44   N1    S    
C16   O20   A    
Cu1   N4    S    
C30   N4    T    
C47   H45   S    
C33   O4    S    
C59   H43   S    
C46   N3    S    
C58   H42   S    
C47   H23   S    
C17   O21   A    
C51   H13   S    
C54   H28   S    
C49   O7    S    
H20   N9    S    
C4    C39   A    
H31   N2    S    
H8    N6    S    
C35   O3    S    
C39   N8    S    
Cu1   O1    S    
C50   O8    S    
C4    C17   S    
C18   C60   A    
C48   H48   S    
C3    C40   A    
C7    C19   A    
C13   C15   A    
C31   C45   A    
C9    C34   A    
C22   C24   D    
C35   N3    A    
C58   H40   S    
C31   O24   S    
Cu2   N5    S    
C58   O16   S    
C7    C9    A    
C21   C25   T    
C28   C29   S    
C49   H3    S    
Cu2   O22   S    
C15   N2    S    
C11   O14   S    
C51   H11   S    
C6    C10   A    
C5    C8    A    
C5    C11   A    
C6    C7    A    
C10   C23   A    
C57   H37   S    
H9    N7    S    
C59   H44   S    
C12   O19   A    
C28   O7    S    
C58   H41   S    
C36   C38   A    
H10   N7    S    
C50   H6    S    
C51   H14   S    
C54   H27   S    
C37   C39   A    
C6    C13   A    
C53   H25   S    
C51   O9    S    
C42   N6    S    
Cu2   O18   S    
C19   C61   A    
C22   O17   S    
C15   C62   A    
C32   C56   A    
H21   N9    S    
C53   H24   S    
H19   N8    S    
C52   H17   S    
C2    C14   A    
C43   C46   A    
C8    C18   A    
C36   C44   A    
C55   O14   S    
Cu1   Cu2   S    
C48   H47   S    
C59   O17   S    
C8    C10   A    
C12   O12   A    
C55   H35   S    
C27   C28   D    
Cu1   O19   S    
C56   C61   A    
H32   N2    S    
C37   C46   A    
C52   H16   S    
C50   H4    S    
C60   O9    S    
H18   N8    S    
C3    C16   S    
C48   H49   S    
H30   N10   S    
