data_mof_unit_52733.cif
_audit_creation_date              2012-12-10T20:46:51-0500
_audit_creation_method            fapswitch 2.2
_symmetry_space_group_name_H-M    P1
_symmetry_Int_Tables_number       1
_space_group_crystal_system       triclinic
_cell_length_a                    12.889096
_cell_length_b                    8.92815
_cell_length_c                    8.124382
_cell_angle_alpha                 90.055586
_cell_angle_beta                  97.035845
_cell_angle_gamma                 89.673251
_cell_volume                      927.864280643

loop_
_atom_site_label
_atom_site_type_symbol
_atom_type_description
_atom_site_fract_x
_atom_site_fract_y
_atom_site_fract_z
_atom_type_partial_charge
C1    C     C_R   0.498076 0.218117 0.499657 0.997534
C2    C     C_R   0.871834 0.537987 0.691785 -0.317820
C3    C     C_R   0.136586 0.446111 0.596907 0.488908
C4    C     C_R   0.863961 0.410371 0.424270 0.457586
C5    C     C_R   0.029539 0.468737 0.580358 -0.131278
C6    C     C_R   0.970983 0.433132 0.427199 -0.144650
C7    C     C_1   0.497824 0.065241 0.499753 -0.132272
C8    C     C_1   0.498498 0.934806 0.499914 -0.156721
C9    C     C_R   0.499636 0.781936 0.499999 0.924414
C10   C     C_R   0.297994 0.487815 0.468872 0.952461
C11   C     C_R   0.702179 0.492562 0.531804 0.977186
C12   C     C_R   0.814092 0.476742 0.551126 -0.242707
C13   C     C_R   0.186772 0.459614 0.453413 -0.266621
C14   C     C_R   0.021060 0.425715 0.282713 0.535280
C15   C     C_R   0.980518 0.529669 0.710472 0.530371
C16   C     C_R   0.128911 0.449508 0.296552 -0.322572
H1    H     H_    0.832423 0.591862 0.786602 0.198518
H2    H     H_    0.167381 0.457272 0.185793 0.247765
H3    H     H_    0.687044 0.097229 0.314653 0.377022
H4    H     H_    0.324441 0.196071 0.836599 0.381596
H5    H     H_    0.010287 0.392531 0.046092 0.393469
H6    H     H_    0.993092 0.644370 0.916114 0.353749
N1    N     N_1   0.500020 0.500000 0.073640 0.015650
N2    N     N_1   0.499980 0.500000 0.926360 0.015424
O1    O     O_R   0.499990 0.285340 0.636850 -0.603298
O2    O     O_2   0.878474 0.159743 0.240599 -0.240871
O3    O     O_3   0.714283 0.177708 0.391894 -0.587854
O4    O     O_2   0.246418 0.466212 0.900267 -0.284799
O5    O     O_2   0.116309 0.265907 0.857198 -0.291264
O6    O     O_3   0.288280 0.231568 0.728974 -0.554487
O7    O     O_3   0.962624 0.413906 0.129494 -0.687271
O8    O     O_3   0.040050 0.595954 0.843643 -0.713468
O9    O     O_R   0.500010 0.714660 0.363150 -0.623684
O10   O     O_R   0.500010 0.285340 0.363150 -0.608631
O11   O     O_R   0.499990 0.714660 0.636850 -0.619213
O12   O     O_R   0.346350 0.500000 0.614250 -0.557930
O13   O     O_R   0.653650 0.500000 0.385750 -0.578212
O14   O     O_R   0.346360 0.500000 0.340500 -0.619189
O15   O     O_R   0.653640 0.500000 0.659500 -0.618015
O16   O     O_2   0.743450 0.343324 0.138565 -0.249298
S1    S     S_3+6 0.800029 0.270798 0.291024 0.087036
S2    S     S_3+6 0.196741 0.352863 0.778758 0.062063
Zn1   Zn    Zn3+2 0.499990 0.500000 0.682780 1.081149
Zn2   Zn    Zn3+2 0.500010 0.500000 0.317220 1.074945

loop_
_geom_bond_atom_site_label_1
_geom_bond_atom_site_label_2
_ccdc_geom_bond_type
C11   O15   A    
C11   C12   S    
C3    S2    S    
O14   Zn2   S    
C11   O13   A    
O5    S2    D    
C4    C12   A    
H3    O3    S    
O3    S1    S    
C3    C13   A    
C14   O7    S    
C10   O14   A    
C2    C12   A    
O1    Zn1   S    
O13   Zn2   S    
O10   Zn2   S    
C15   O8    S    
H4    O6    S    
C2    H1    S    
C1    O1    A    
C2    C15   A    
H5    O7    S    
H6    O8    S    
C9    O9    A    
C16   H2    S    
O16   S1    D    
C10   O12   A    
C1    O10   A    
C5    C6    A    
C14   C16   A    
C5    C15   A    
C6    C14   A    
C4    S1    S    
N1    N2    T    
C7    C8    T    
O11   Zn1   S    
C4    C6    A    
C13   C16   A    
O4    S2    D    
C9    O11   A    
N2    Zn1   S    
O6    S2    S    
O12   Zn1   S    
O15   Zn1   S    
C1    C7    S    
O9    Zn2   S    
N1    Zn2   S    
O2    S1    D    
C8    C9    S    
C3    C5    A    
C10   C13   S    
