data_mof_unit_10252.cif
_audit_creation_date              2012-10-26T19:57:56-0400
_audit_creation_method            fapswitch 2.2
_symmetry_space_group_name_H-M    P1
_symmetry_Int_Tables_number       1
_space_group_crystal_system       triclinic
_cell_length_a                    7.489896
_cell_length_b                    8.723333
_cell_length_c                    12.95859
_cell_angle_alpha                 87.433984
_cell_angle_beta                  78.589036
_cell_angle_gamma                 102.762568
_cell_volume                      805.959242117

loop_
_atom_site_label
_atom_site_type_symbol
_atom_type_description
_atom_site_fract_x
_atom_site_fract_y
_atom_site_fract_z
_atom_type_partial_charge
C1    C     C_R   0.452907 0.200000 0.506679 0.560876
C2    C     C_R   0.704061 0.637503 0.122466 0.167709
C3    C     C_R   0.575822 0.592665 0.859152 0.226488
C4    C     C_R   0.425120 0.423580 0.140128 0.213158
C5    C     C_R   0.573744 0.568223 0.967527 -0.001329
C6    C     C_R   0.425950 0.450578 0.032206 -0.055406
C7    C     C_2   0.428702 0.031772 0.521664 0.251742
C8    C     C_2   0.571319 0.968222 0.478437 0.251046
C9    C     C_R   0.547090 0.799998 0.493369 0.537443
C10   C     C_R   0.465350 0.495337 0.701188 0.556791
C11   C     C_R   0.534886 0.507295 0.298766 0.615003
C12   C     C_R   0.555977 0.523021 0.184810 0.045091
C13   C     C_R   0.443400 0.490538 0.815207 0.008027
C14   C     C_R   0.276523 0.368755 0.989372 0.230808
C15   C     C_R   0.711586 0.663275 0.013381 0.271129
C16   C     C_R   0.294157 0.378813 0.879178 0.200202
Cu1   Cu    Cu3+1 0.686350 0.517570 0.488220 1.171042
Cu2   Cu    Cu3+1 0.313650 0.482430 0.511780 1.187382
H1    H     H_    0.303131 0.202291 0.162950 0.361145
H2    H     H_    0.816074 0.992339 0.383170 0.353815
H3    H     H_    0.655292 0.754301 0.739982 0.326171
H4    H     H_    0.959888 0.750653 0.119094 0.346254
H5    H     H_    0.114940 0.179408 0.879195 0.343100
H6    H     H_    0.006315 0.283081 0.020238 0.343098
H7    H     H_    0.878399 0.872525 0.994850 0.332353
H8    H     H_    0.980306 0.293152 0.636337 0.349024
H9    H     H_    0.019705 0.706851 0.363664 0.347604
H10   H     H_    0.183964 0.007665 0.616938 0.351269
N1    N     N_2   0.033570 0.455950 0.529530 0.109011
N2    N     N_2   0.966430 0.544050 0.470470 0.109781
O1    O     O_R   0.621060 0.286250 0.492350 -0.429077
O2    O     O_3   0.708910 0.714983 0.797072 -0.581866
O3    O     O_3   0.837994 0.723662 0.170362 -0.696430
O4    O     O_3   0.171163 0.277820 0.831821 -0.688464
O5    O     O_3   0.112048 0.286482 0.056211 -0.659409
O6    O     O_3   0.848441 0.783188 0.951696 -0.610362
O7    O     O_3   0.906049 0.348742 0.599232 -0.551927
O8    O     O_3   0.093955 0.651247 0.400762 -0.555981
O9    O     O_3   0.265147 0.939214 0.584808 -0.674938
O10   O     O_3   0.734895 0.060783 0.415316 -0.668466
O11   O     O_R   0.378940 0.713750 0.507650 -0.433173
O12   O     O_R   0.306310 0.256580 0.512240 -0.536816
O13   O     O_R   0.693690 0.743420 0.487760 -0.550991
O14   O     O_R   0.631800 0.512400 0.642670 -0.470222
O15   O     O_R   0.368200 0.487600 0.357330 -0.437944
O16   O     O_R   0.317060 0.482730 0.662570 -0.473124
O17   O     O_R   0.682940 0.517270 0.337430 -0.480979
O18   O     O_3   0.304017 0.296220 0.203404 -0.609657

loop_
_geom_bond_atom_site_label_1
_geom_bond_atom_site_label_2
_ccdc_geom_bond_type
C10   O16   A    
C11   C12   S    
Cu1   O13   S    
H8    O7    S    
N1    N2    D    
C2    C15   A    
C6    C14   A    
C9    O13   A    
C1    O12   A    
C11   O17   A    
C3    C13   A    
H5    O4    S    
C2    C12   A    
Cu1   Cu2   S    
C13   C16   A    
Cu1   O14   S    
C7    C8    D    
Cu2   N1    S    
Cu1   N2    S    
C5    C6    A    
C5    C15   A    
Cu1   O1    S    
Cu2   O16   S    
C2    O3    S    
Cu2   O12   S    
C3    O2    S    
H2    O10   S    
H3    O2    S    
C14   C16   A    
C11   O15   A    
H6    O5    S    
C4    C12   A    
H9    O8    S    
C10   O14   A    
Cu2   O15   S    
C15   O6    S    
C1    O1    A    
N2    O8    S    
C4    C6    A    
C4    O18   S    
Cu2   O11   S    
N1    O7    S    
C14   O5    S    
H4    O3    S    
C7    O9    S    
H1    O18   S    
C8    O10   S    
H10   O9    S    
C16   O4    S    
H7    O6    S    
C1    C7    S    
C9    O11   A    
Cu1   O17   S    
C8    C9    S    
C3    C5    A    
C10   C13   S    
