data_mof_unit_37253.cif
_audit_creation_date              2012-12-10T17:29:21-0500
_audit_creation_method            fapswitch 2.2
_symmetry_space_group_name_H-M    P1
_symmetry_Int_Tables_number       1
_space_group_crystal_system       triclinic
_cell_length_a                    12.005576
_cell_length_b                    12.848813
_cell_length_c                    13.13177
_cell_angle_alpha                 87.157216
_cell_angle_beta                  113.445355
_cell_angle_gamma                 94.056899
_cell_volume                      1853.26722874

loop_
_atom_site_label
_atom_site_type_symbol
_atom_type_description
_atom_site_fract_x
_atom_site_fract_y
_atom_site_fract_z
_atom_type_partial_charge
Br1   Br    Br    0.803737 0.791146 0.645781 -0.523233
C1    C     C_R   0.477136 0.299490 0.499404 0.870378
C2    C     C_R   0.609704 0.485938 0.828965 -0.125848
C3    C     C_R   0.541837 0.812241 0.510798 -0.130681
C4    C     C_R   0.566169 0.491760 0.708491 0.868464
C5    C     C_R   0.462302 0.188119 0.498744 -0.048369
C6    C     C_R   0.339161 0.030708 0.431615 -0.190807
C7    C     C_R   0.348008 0.137913 0.443151 -0.206726
C8    C     C_R   0.566655 0.132111 0.547370 -0.250088
C9    C     C_R   0.558867 0.025732 0.535743 0.127885
C10   C     C_R   0.444596 0.974832 0.476281 0.189297
C11   C     C_R   0.437446 0.868791 0.462794 -0.316954
C12   C     C_R   0.556150 0.482197 0.988404 0.090496
C13   C     C_R   0.656377 0.862744 0.570570 0.267194
C14   C     C_R   0.663925 0.969994 0.581730 -0.242621
C15   C     C_R   0.009899 0.601268 0.398430 -0.320891
C16   C     C_R   0.524287 0.700619 0.503867 0.928856
C17   C     C_R   0.129924 0.591464 0.408474 0.025921
C18   C     C_R   0.157275 0.455568 0.543434 -0.029515
C19   C     C_R   0.037185 0.462970 0.536596 0.091864
C20   C     C_R   0.962526 0.536852 0.462968 0.086846
C21   C     C_R   0.842303 0.544052 0.455947 -0.002619
C22   C     C_R   0.870139 0.408643 0.591598 0.034245
C23   C     C_R   0.529732 0.451327 0.879569 0.091128
C24   C     C_R   0.989918 0.398575 0.601218 -0.320484
C25   C     C_R   0.433301 0.503646 0.291522 0.869406
C26   C     C_R   0.261316 0.396962 0.009218 -0.190633
C27   C     C_R   0.390962 0.490311 0.173091 -0.053999
C28   C     C_R   0.725923 0.529270 0.892932 -0.172714
C29   C     C_R   0.759498 0.544895 0.005316 -0.142592
C30   C     C_R   0.674876 0.524259 0.052612 -0.187371
C31   C     C_R   0.462609 0.469774 0.028271 0.083115
C32   C     C_R   0.352247 0.412249 0.967277 0.179929
C33   C     C_R   0.335588 0.369092 0.866739 -0.245867
C34   C     C_R   0.423341 0.388292 0.823280 -0.204066
C35   C     C_R   0.475336 0.514464 0.126746 -0.247282
C36   C     C_R   0.281689 0.434265 0.113376 -0.196995
H1    H     H_    0.215817 0.414534 0.149529 0.154519
H2    H     H_    0.165685 0.641428 0.358516 0.125889
H3    H     H_    0.253987 0.321818 0.820872 0.138679
H4    H     H_    0.215040 0.398428 0.598972 0.119634
H5    H     H_    0.177270 0.352396 0.963846 0.136940
H6    H     H_    0.553585 0.564814 0.172437 0.139913
H7    H     H_    0.789201 0.554354 0.855290 0.178780
H8    H     H_    0.705779 0.539513 0.139907 0.129299
H9    H     H_    0.849622 0.577453 0.054923 0.145611
H10   H     H_    0.407960 0.352312 0.745720 0.154673
H11   H     H_    0.349606 0.829823 0.416254 0.164521
H12   H     H_    0.250976 0.991930 0.386593 0.140839
H13   H     H_    0.751372 0.009487 0.627879 0.169122
H14   H     H_    0.267066 0.181761 0.405347 0.158586
H15   H     H_    0.654572 0.171783 0.592113 0.147689
H16   H     H_    0.783873 0.600515 0.399557 0.124493
H17   H     H_    0.834498 0.358829 0.641753 0.121570
H18   H     H_    0.954749 0.658779 0.340710 0.145286
H19   H     H_    0.044951 0.340902 0.658716 0.138010
N1    N     N_R   0.798200 0.480260 0.519790 -0.092589
N2    N     N_R   0.201820 0.519740 0.480210 -0.098379
O1    O     O_R   0.579910 0.341070 0.505280 -0.622142
O2    O     O_R   0.388440 0.353740 0.492580 -0.633329
O3    O     O_R   0.643280 0.490550 0.663120 -0.608953
O4    O     O_R   0.451810 0.503220 0.650420 -0.606825
O5    O     O_R   0.611560 0.646260 0.507420 -0.576536
O6    O     O_R   0.420090 0.658930 0.494720 -0.622728
O7    O     O_R   0.548190 0.496780 0.349580 -0.617362
O8    O     O_R   0.356720 0.509450 0.336880 -0.624588
Zn1   Zn    Zn3+2 0.627850 0.491540 0.508480 0.971091
Zn2   Zn    Zn3+2 0.372150 0.508460 0.491520 0.943617

loop_
_geom_bond_atom_site_label_1
_geom_bond_atom_site_label_2
_ccdc_geom_bond_type
O8    Zn2   S    
C10   C11   A    
C15   C20   A    
C3    C11   A    
C8    C9    A    
O3    Zn1   S    
C12   C31   A    
C25   C27   S    
C18   C19   A    
C26   H5    S    
C24   H19   S    
O4    Zn2   S    
C11   H11   S    
C34   H10   S    
C31   C32   A    
C5    C8    A    
C13   C14   A    
C32   C33   A    
C35   H6    S    
C15   H18   S    
C4    O3    A    
C6    C7    A    
C16   O6    A    
C1    C5    S    
C20   C21   A    
C16   O5    A    
C6    C10   A    
C7    H14   S    
O2    Zn2   S    
C2    C23   A    
C28   C29   A    
C8    H15   S    
C27   C36   A    
N1    Zn1   S    
C33   H3    S    
C3    C16   S    
C31   C35   A    
C21   N1    A    
N2    Zn2   S    
C36   H1    S    
C26   C36   A    
C4    O4    A    
C21   H16   S    
C1    O2    A    
C9    C14   A    
C22   C24   A    
C18   N2    A    
C3    C13   A    
C29   C30   A    
O5    Zn1   S    
C23   C34   A    
O7    Zn1   S    
C19   C24   A    
C30   H8    S    
C25   O8    A    
O6    Zn2   S    
C27   C35   A    
C19   C20   A    
C6    H12   S    
C22   H17   S    
C15   C17   A    
C33   C34   A    
C9    C10   A    
C14   H13   S    
C22   N1    A    
C17   H2    S    
C12   C30   A    
C1    O1    A    
C2    C28   A    
C5    C7    A    
Br1   C13   S    
O1    Zn1   S    
C28   H7    S    
C25   O7    A    
C29   H9    S    
C26   C32   A    
C18   H4    S    
C12   C23   A    
C17   N2    A    
C2    C4    S    
