data_mof_unit_12535.cif
_audit_creation_date              2012-12-10T20:28:43-0500
_audit_creation_method            fapswitch 2.2
_symmetry_space_group_name_H-M    P1
_symmetry_Int_Tables_number       1
_space_group_crystal_system       triclinic
_cell_length_a                    10.660486
_cell_length_b                    10.694556
_cell_length_c                    9.858321
_cell_angle_alpha                 89.76384
_cell_angle_beta                  91.442931
_cell_angle_gamma                 90.24488
_cell_volume                      1123.56322217

loop_
_atom_site_label
_atom_site_type_symbol
_atom_type_description
_atom_site_fract_x
_atom_site_fract_y
_atom_site_fract_z
_atom_type_partial_charge
C1    C     C_R   0.502288 0.260069 0.500212 0.963647
C2    C     C_R   0.061835 0.541526 0.617030 0.068775
C3    C     C_R   0.125316 0.513573 0.497073 -0.111105
C4    C     C_R   0.060935 0.464261 0.384230 -0.190092
C5    C     C_R   0.933900 0.445552 0.389439 -0.189743
C6    C     C_R   0.873049 0.465178 0.510978 -0.075356
C7    C     C_R   0.495912 0.062288 0.620754 0.155640
C8    C     C_R   0.515516 0.128367 0.501363 -0.047327
C9    C     C_R   0.555134 0.065522 0.385382 -0.216220
C10   C     C_R   0.556504 0.935999 0.385292 -0.214105
C11   C     C_R   0.520055 0.871259 0.501910 -0.083691
C12   C     C_R   0.259705 0.508983 0.498613 0.911856
C13   C     C_R   0.502343 0.935292 0.622303 0.113695
C14   C     C_3   0.402062 0.922036 0.724793 -0.556199
C15   C     C_3   0.392655 0.063978 0.722064 -0.237735
C16   C     C_R   0.444547 0.404461 0.070464 0.228245
C17   C     C_R   0.561835 0.589918 0.073217 -0.030700
C18   C     C_R   0.562212 0.589702 0.929248 -0.125714
C19   C     C_R   0.444649 0.404247 0.927683 0.202076
C20   C     C_3   0.309075 0.369302 0.919875 -0.493880
C21   C     C_3   0.309333 0.369780 0.073376 -0.521923
C22   C     C_R   0.503734 0.739844 0.499972 0.876106
C23   C     C_R   0.739538 0.485676 0.502753 0.885742
C24   C     C_R   0.114209 0.614725 0.722375 -0.182440
C25   C     C_R   0.058699 0.617486 0.848365 -0.271577
C26   C     C_R   0.955952 0.540009 0.875634 -0.010577
C27   C     C_R   0.899241 0.470496 0.766900 0.001209
C28   C     C_R   0.942645 0.490933 0.632485 0.081279
H1    H     H_    0.108109 0.440658 0.292033 0.160833
H2    H     H_    0.439722 0.884857 0.823055 0.199565
H3    H     H_    0.423519 0.107527 0.819497 0.136059
H4    H     H_    0.610562 0.663368 0.128528 0.142674
H5    H     H_    0.611211 0.662950 0.875903 0.150259
H6    H     H_    0.249972 0.443623 0.873523 0.239497
H7    H     H_    0.292760 0.275106 0.877032 0.189408
H8    H     H_    0.250727 0.445521 0.114811 0.207212
H9    H     H_    0.294443 0.275669 0.118606 0.215182
H10   H     H_    0.198479 0.669518 0.708244 0.155070
H11   H     H_    0.102393 0.673539 0.927941 0.143234
H12   H     H_    0.882970 0.416501 0.298629 0.212685
H13   H     H_    0.578409 0.115482 0.293489 0.169509
H14   H     H_    0.579458 0.887345 0.293042 0.162610
H15   H     H_    0.317954 0.871521 0.683743 0.194479
N1    N     N_R   0.499160 0.499140 0.142800 -0.113404
N2    N     N_R   0.499160 0.499180 0.857150 -0.124910
O1    O     O_R   0.500020 0.316790 0.614690 -0.611768
O2    O     O_R   0.500000 0.316760 0.385350 -0.627859
O3    O     O_R   0.316770 0.500020 0.614690 -0.616651
O4    O     O_R   0.316760 0.499980 0.385350 -0.624404
O5    O     O_R   0.500000 0.683240 0.614650 -0.627924
O6    O     O_R   0.499980 0.683210 0.385310 -0.633471
O7    O     O_R   0.683240 0.500020 0.614650 -0.633702
O8    O     O_R   0.683230 0.499980 0.385310 -0.604605
Zn1   Zn    Zn3+2 0.500010 0.500020 0.653130 0.954713
Zn2   Zn    Zn3+2 0.499990 0.499980 0.346870 0.965437
C29   C     C_2   0.264835 0.107027 0.671235 0.433207
H16   H     H_    0.185229 0.095626 0.736641 0.077251
O9    O     O_2   0.248540 0.153837 0.559067 -0.570047
C30   C     C_2   0.917764 0.533932 0.019534 0.310475
H17   H     H_    0.975872 0.579011 0.097224 0.081520
O10   O     O_2   0.821819 0.482193 0.054337 -0.631748
C31   C     C_2   0.814732 0.361910 0.793394 0.460306
H18   H     H_    0.750042 0.361233 0.875856 0.127284
O11   O     O_2   0.815865 0.270271 0.719887 -0.597862

loop_
_geom_bond_atom_site_label_1
_geom_bond_atom_site_label_2
_ccdc_geom_bond_type
C24   H10   S    
C19   N2    A    
C30   H17   S    
C12   O4    A    
C16   C21   S    
C27   C31   S    
C10   H14   S    
C1    C8    S    
C2    C28   A    
C9    C10   A    
C16   N1    A    
C11   C22   S    
C9    H13   S    
C19   C20   S    
C12   O3    A    
C22   O5    A    
C20   H6    S    
C15   C29   S    
O1    Zn1   S    
C7    C15   S    
C17   C18   A    
C23   O7    A    
C17   N1    A    
C7    C8    A    
C20   C21   S    
C21   H8    S    
O5    Zn1   S    
C13   C14   S    
C25   H11   S    
O3    Zn1   S    
C4    C5    A    
C11   C13   A    
N1    Zn2   S    
C26   C27   A    
C31   H18   S    
C14   H2    S    
C16   C19   A    
C6    C23   S    
C1    O2    A    
O7    Zn1   S    
N2    Zn1   S    
C23   O8    A    
C2    C3    A    
O8    Zn2   S    
C2    C24   A    
C5    C6    A    
C18   H5    S    
C1    O1    A    
C30   O10   D    
C10   C11   A    
C3    C4    A    
C18   N2    A    
C7    C13   A    
C21   H9    S    
C24   C25   A    
O2    Zn2   S    
C26   C30   S    
C5    H12   S    
C27   C28   A    
C29   H16   S    
C17   H4    S    
C14   C15   S    
C8    C9    A    
C31   O11   D    
C3    C12   S    
O6    Zn2   S    
C25   C26   A    
O4    Zn2   S    
C20   H7    S    
C15   H3    S    
C22   O6    A    
C6    C28   A    
C4    H1    S    
C29   O9    D    
C14   H15   S    
