data_mof_unit_66363.cif
_audit_creation_date              2013-03-05T16:45:33-0500
_audit_creation_method            fapswitch 2.2
_symmetry_space_group_name_H-M    P1
_symmetry_Int_Tables_number       1
_space_group_crystal_system       triclinic
_cell_length_a                    15.834049
_cell_length_b                    15.887077
_cell_length_c                    17.09525
_cell_angle_alpha                 90.452276
_cell_angle_beta                  96.65492
_cell_angle_gamma                 92.45291
_cell_volume                      4267.17817434

loop_
_atom_site_label
_atom_site_type_symbol
_atom_site_description
_atom_site_fract_x
_atom_site_fract_y
_atom_site_fract_z
_atom_type_partial_charge
O1    O     O_R   0.579470 0.503770 0.617500 -0.595351
O2    O     O_R   0.436280 0.496960 0.611050 -0.565970
C1    C     C_R   0.510577 0.498484 0.651293 0.842509
O3    O     O_R   0.571630 0.623970 0.503220 -0.562779
O4    O     O_R   0.428430 0.617160 0.496770 -0.597213
C2    C     C_R   0.499885 0.659919 0.500238 0.852201
Cu1   Cu    Cu3+1 0.584780 0.504030 0.503820 0.996263
Cu2   Cu    Cu3+1 0.415220 0.495970 0.496180 1.046054
O5    O     O_R   0.563720 0.503040 0.388950 -0.567469
O6    O     O_R   0.420530 0.496230 0.382500 -0.552279
O7    O     O_R   0.571570 0.382840 0.503230 -0.600568
O8    O     O_R   0.428370 0.376030 0.496780 -0.510772
C3    C     C_R   0.489510 0.500567 0.348796 0.868960
C4    C     C_R   0.500118 0.340093 0.499883 0.861981
C5    C     C_3   0.572774 0.953942 0.562019 -0.420227
C6    C     C_3   0.414471 0.947929 0.523174 -0.375686
C7    C     C_3   0.413599 0.045324 0.520697 -0.315896
H1    H     H_    0.563938 0.929849 0.621605 0.207927
H2    H     H_    0.360902 0.920457 0.481580 0.176265
H3    H     H_    0.397365 0.070772 0.577476 0.228408
H4    H     H_    0.362241 0.064123 0.474929 0.177720
C8    C     C_1   0.500411 0.250497 0.500030 -0.070271
C9    C     C_3   0.500286 0.917220 0.500978 0.234865
C10   C     C_3   0.574717 0.051954 0.560956 0.215054
C11   C     C_3   0.500680 0.082834 0.501046 0.173604
C12   C     C_3   0.514327 0.048794 0.418322 -0.463501
C13   C     C_3   0.514170 0.951172 0.418396 -0.347394
C14   C     C_1   0.500511 0.174998 0.500328 -0.032131
C15   C     C_1   0.499757 0.825078 0.500627 -0.065596
C16   C     C_1   0.499619 0.749547 0.500410 -0.119830
H5    H     H_    0.575748 0.930147 0.401375 0.191636
H6    H     H_    0.575856 0.074569 0.400998 0.178080
H7    H     H_    0.635071 0.931771 0.547831 0.154054
H8    H     H_    0.635786 0.073824 0.539600 0.101926
H9    H     H_    0.463105 0.069646 0.373417 0.202629
C17   C     C_R   0.516681 0.496628 0.737326 -0.134624
C18   C     C_R   0.456622 0.449751 0.776406 0.292627
C19   C     C_R   0.460242 0.456899 0.858288 -0.199715
C20   C     C_R   0.524180 0.508266 0.901916 0.323957
C21   C     C_R   0.584665 0.551860 0.862656 -0.165560
C22   C     C_R   0.581189 0.546117 0.781113 -0.263401
C23   C     C_R   0.533135 0.548403 0.141193 -0.207895
C24   C     C_R   0.535010 0.556754 0.222937 0.289946
C25   C     C_R   0.480146 0.485756 0.099036 0.317751
N1    N     N_2   0.529811 0.518208 0.984941 -0.231587
N2    N     N_2   0.475447 0.475258 0.016194 -0.229420
C26   C     C_R   0.483969 0.500410 0.262974 -0.152322
H10   H     H_    0.571785 0.592066 0.110635 0.196309
H11   H     H_    0.627667 0.582322 0.751951 0.168976
C27   C     C_R   0.431110 0.438762 0.220717 -0.219076
C28   C     C_R   0.428826 0.432015 0.139401 -0.163306
H12   H     H_    0.393714 0.393794 0.251022 0.226270
H13   H     H_    0.413749 0.421075 0.887649 0.197368
H14   H     H_    0.387962 0.383609 0.107696 0.174362
N3    N     N_R   0.287860 0.489910 0.490440 -0.227607
C29   C     C_R   0.250913 0.533282 0.546122 0.008818
C30   C     C_R   0.161588 0.533144 0.545347 -0.254141
C31   C     C_R   0.108453 0.488011 0.486065 0.326113
C32   C     C_R   0.147559 0.444870 0.429681 -0.321212
C33   C     C_R   0.236682 0.445900 0.432187 0.532330
C34   C     C_R   0.842107 0.464088 0.465394 -0.252475
C35   C     C_R   0.752681 0.460745 0.461327 0.077463
C36   C     C_R   0.891389 0.518910 0.520112 0.383412
N4    N     N_2   0.016961 0.482888 0.479832 -0.215374
N5    N     N_2   0.983123 0.525794 0.528449 -0.221261
N6    N     N_R   0.712150 0.510100 0.509550 -0.170264
H15   H     H_    0.871908 0.423851 0.426249 0.164134
H16   H     H_    0.108418 0.409744 0.383263 0.186447
C37   C     C_R   0.758272 0.563536 0.562697 0.081990
C38   C     C_R   0.847686 0.568630 0.568899 -0.292457
H17   H     H_    0.725703 0.602361 0.600830 0.125181
H18   H     H_    0.134918 0.567962 0.590587 0.173875
H19   H     H_    0.882812 0.611407 0.611720 0.153623
H20   H     H_    0.290700 0.568885 0.591550 0.156041
N7    N     N_R   0.573287 0.087467 0.640382 0.139379
O9    O     O_R   0.633668 0.140856 0.669332 -0.326021
O10   O     O_R   0.515026 0.063278 0.684186 -0.342889
N8    N     N_R   0.586950 0.623661 0.263649 0.132815
O11   O     O_R   0.558961 0.665763 0.320204 -0.369084
O12   O     O_R   0.657323 0.650053 0.237599 -0.341030
H21   H     H_    0.634177 0.591347 0.895473 0.164443
N9    N     N_R   0.393894 0.392644 0.734589 0.136219
O13   O     O_R   0.415280 0.342072 0.680672 -0.328681
O14   O     O_R   0.318987 0.382047 0.758231 -0.338409
H22   H     H_    0.715654 0.418371 0.419475 0.130678
N10   N     N_R   0.271905 0.401661 0.371520 0.120780
O15   O     O_R   0.248280 0.420430 0.298545 -0.380863
O16   O     O_R   0.303678 0.328675 0.386665 -0.366621
H23   H     H_    0.404318 0.926266 0.583271 0.194209
H24   H     H_    0.462828 0.925299 0.373572 0.192576

loop_
_geom_bond_atom_site_label_1
_geom_bond_atom_site_label_2
_geom_bond_distance
_ccdc_geom_bond_type
C5    H1    1.112791 S    
N3    C29   1.369808 A    
C36   N5    1.442311 S    
C12   H6    1.113203 S    
Cu1   Cu2   2.670347 S    
N1    N2    1.246642 D    
C24   N8    1.439255 S    
Cu1   O7    1.927582 S    
C12   C13   1.550836 S    
C18   C19   1.397823 A    
C9    C15   1.463508 S    
C17   C18   1.414159 A    
O4    C2    1.289625 A    
O7    C4    1.289613 A    
N8    O12   1.301445 A    
N6    C37   1.363997 A    
C7    H3    1.110060 S    
C29   C30   1.412818 A    
C13   H24   1.113142 S    
C34   C36   1.415019 A    
C37   H17   1.081740 S    
O5    C3    1.289250 A    
C6    C7    1.548845 S    
C27   H12   1.081732 S    
C9    C13   1.551167 S    
C20   N1    1.418914 S    
C5    C9    1.549888 S    
C6    H23   1.113071 S    
O1    Cu1   1.954946 S    
N3    C33   1.375035 A    
C17   C22   1.402337 A    
C34   C35   1.408299 A    
C23   C25   1.411023 A    
O3    Cu1   1.925656 S    
Cu2   N3    2.005750 S    
C22   H11   1.083647 S    
C25   N2    1.417678 S    
C26   C27   1.400057 A    
C31   N4    1.438980 S    
C35   H22   1.081764 S    
C29   H20   1.081239 S    
C35   N6    1.364480 A    
C13   H5    1.113116 S    
C10   C11   1.562945 S    
O3    C2    1.289141 A    
C20   C21   1.395311 A    
C3    C26   1.459547 S    
C33   N10   1.427154 S    
N10   O15   1.300930 A    
C11   C12   1.551714 S    
C10   H8    1.115405 S    
C11   C14   1.464478 S    
N7    O9    1.301054 A    
C15   C16   1.199846 T    
C32   H16   1.083799 S    
C34   H15   1.082298 S    
C36   C38   1.403058 A    
Cu2   O8    1.925656 S    
C38   H19   1.082821 S    
C27   C28   1.389549 A    
C23   H10   1.082634 S    
N7    O10   1.301455 A    
C25   C28   1.394744 A    
C21   C22   1.390817 A    
C2    C16   1.424090 S    
O8    C4    1.288976 A    
C6    C9    1.549722 S    
N9    O14   1.301361 A    
C18   N9    1.438309 S    
C23   C24   1.399441 A    
Cu1   O5    1.953194 S    
C5    C10   1.556402 S    
N8    O11   1.301162 A    
C21   H21   1.083195 S    
O2    Cu2   1.953196 S    
O6    C3    1.292187 A    
O4    Cu2   1.927585 S    
C10   N7    1.469214 S    
C28   H14   1.083232 S    
C7    C11   1.552215 S    
N4    N5    1.252190 D    
C4    C8    1.423634 S    
O2    C1    1.291341 A    
C31   C32   1.395181 A    
Cu1   N6    2.005923 S    
C30   C31   1.410078 A    
C19   C20   1.411333 A    
C19   H13   1.082641 S    
C1    C17   1.463321 S    
C6    H2    1.113186 S    
N10   O16   1.299674 A    
C30   H18   1.082297 S    
C37   C38   1.406231 A    
C7    H4    1.113403 S    
C12   H9    1.113354 S    
C32   C33   1.406241 A    
Cu2   O6    1.954946 S    
N9    O13   1.301433 A    
C8    C14   1.199594 T    
O1    C1    1.292185 A    
C24   C26   1.413815 A    
C5    H7    1.113440 S    
