data_mof_unit_66173.cif
_audit_creation_date              2012-12-10T19:18:31-0500
_audit_creation_method            fapswitch 2.2
_symmetry_space_group_name_H-M    P1
_symmetry_Int_Tables_number       1
_space_group_crystal_system       triclinic
_cell_length_a                    15.766187
_cell_length_b                    15.004089
_cell_length_c                    10.568722
_cell_angle_alpha                 90.562378
_cell_angle_beta                  90.052012
_cell_angle_gamma                 90.002896
_cell_volume                      2499.98658972

loop_
_atom_site_label
_atom_site_type_symbol
_atom_type_description
_atom_site_fract_x
_atom_site_fract_y
_atom_site_fract_z
_atom_type_partial_charge
C1    C     C_R   0.338030 0.500003 0.500292 0.860305
C2    C     C_3   0.499242 0.498208 0.123697 -0.327526
C3    C     C_3   0.050504 0.597357 0.484530 0.346099
C4    C     C_3   0.050107 0.465806 0.631628 0.330121
C5    C     C_3   0.951368 0.458881 0.629595 0.571468
C6    C     C_3   0.951897 0.599873 0.494023 0.547394
C7    C     C_1   0.750804 0.500069 0.500655 -0.026683
C8    C     C_3   0.082838 0.500693 0.502784 -0.276508
C9    C     C_3   0.917474 0.500609 0.501754 -0.366696
C10   C     C_3   0.951508 0.444365 0.386953 1.018795
C11   C     C_3   0.049322 0.440237 0.393744 -0.437456
C12   C     C_1   0.825963 0.500305 0.501130 0.178601
C13   C     C_1   0.174196 0.500286 0.501962 0.191253
C14   C     C_R   0.499657 0.499450 0.257384 1.005150
C15   C     C_1   0.249348 0.500062 0.501126 -0.101369
C16   C     C_3   0.474814 0.051815 0.359749 0.547977
C17   C     C_3   0.463736 0.945946 0.364984 0.514709
C18   C     C_3   0.429350 0.052649 0.595356 0.437226
C19   C     C_3   0.439244 0.947582 0.607550 0.465389
C20   C     C_3   0.496668 0.090098 0.496832 -0.505616
C21   C     C_3   0.496976 0.909977 0.496765 -0.486868
C22   C     C_3   0.589306 0.947711 0.515470 0.967896
C23   C     C_3   0.587580 0.052090 0.530156 0.957872
C24   C     C_1   0.497950 0.809144 0.496971 0.529906
C25   C     C_1   0.497861 0.190864 0.496996 0.403734
C26   C     C_R   0.662128 0.500006 0.500228 0.925207
C27   C     C_R   0.500144 0.500499 0.742796 0.997349
C28   C     C_3   0.430520 0.541512 0.042162 -0.091919
C29   C     C_3   0.499166 0.415451 0.037157 -0.003364
C30   C     C_3   0.430321 0.458719 0.956629 -0.030357
C31   C     C_3   0.499774 0.501510 0.876314 -0.392462
C32   C     C_3   0.499798 0.585206 0.961887 0.560514
C33   C     C_3   0.569167 0.457924 0.957089 0.562319
C34   C     C_3   0.569068 0.541387 0.043317 0.527291
H1    H     H_    0.077989 0.641183 0.559729 0.170069
H2    H     H_    0.069703 0.513546 0.707545 0.169449
H3    H     H_    0.076925 0.461305 0.301838 0.257833
H4    H     H_    0.070151 0.370288 0.409162 0.241630
N1    N     N_1   0.498630 0.731150 0.497460 -0.078231
N2    N     N_1   0.498630 0.268850 0.497460 -0.086962
O1    O     O_R   0.377210 0.574260 0.500130 -0.612276
O2    O     O_R   0.377210 0.425740 0.500130 -0.616424
O3    O     O_R   0.500050 0.574220 0.314080 -0.600699
O4    O     O_R   0.500050 0.425780 0.314080 -0.612150
O5    O     O_R   0.622930 0.574200 0.500140 -0.589592
O6    O     O_R   0.622930 0.425800 0.500140 -0.586927
O7    O     O_R   0.500090 0.574240 0.686180 -0.577591
O8    O     O_R   0.500090 0.425760 0.686180 -0.600359
Zn1   Zn    Zn3+2 0.500090 0.599130 0.500180 1.111319
Zn2   Zn    Zn3+2 0.500090 0.400870 0.500180 1.071679
N3    N     N_3   0.355550 0.413740 0.906191 -0.395009
H5    H     H_    0.318031 0.395606 0.983206 0.226276
H6    H     H_    0.320984 0.460662 0.855020 0.205832
F1    F     F_    0.927069 0.480767 0.272845 -0.596084
F2    F     F_    0.918426 0.358810 0.386839 -0.612243
N4    N     N_3   0.376712 0.915066 0.339421 -0.392742
H7    H     H_    0.331700 0.949662 0.392360 0.265090
H8    H     H_    0.362406 0.925368 0.244050 0.214419
N5    N     N_3   0.403429 0.099000 0.299979 -0.421790
H9    H     H_    0.344732 0.086718 0.340645 0.227737
H10   H     H_    0.399293 0.078908 0.205132 0.218929
N6    N     N_3   0.432169 0.098087 0.719770 -0.409970
H11   H     H_    0.403654 0.160793 0.712464 0.238746
H12   H     H_    0.493363 0.109742 0.752228 0.220694
N7    N     N_3   0.472909 0.920847 0.731618 -0.349054
H13   H     H_    0.425347 0.928945 0.799726 0.264348
H14   H     H_    0.523220 0.961287 0.760420 0.242588
F3    F     F_    0.348505 0.068968 0.549992 -0.603898
F4    F     F_    0.359627 0.908391 0.597931 -0.568384
F5    F     F_    0.648318 0.089082 0.451499 -0.472013
F6    F     F_    0.639409 0.924294 0.412552 -0.470427
F7    F     F_    0.612295 0.075930 0.651303 -0.628589
F8    F     F_    0.627907 0.909691 0.619807 -0.572949
F9    F     F_    0.543793 0.068934 0.281797 -0.495239
F10   F     F_    0.513611 0.908340 0.270009 -0.507885
N8    N     N_3   0.355021 0.585670 0.091329 -0.398523
H15   H     H_    0.320861 0.609096 0.013693 0.233532
H16   H     H_    0.375092 0.641729 0.142592 0.245624
N9    N     N_3   0.499102 0.323278 0.079178 -0.320281
H17   H     H_    0.499222 0.282773 0.998177 0.238069
H18   H     H_    0.441434 0.312049 0.125007 0.208001
F11   F     F_    0.499840 0.672490 0.921060 -0.562088
F12   F     F_    0.640246 0.415046 0.910017 -0.556018
F13   F     F_    0.640331 0.583541 0.091265 -0.541857
F14   F     F_    0.931039 0.645153 0.604859 -0.546225
F15   F     F_    0.920083 0.507563 0.731726 -0.524685
F16   F     F_    0.087850 0.384731 0.660021 -0.613021
F17   F     F_    0.079094 0.629970 0.369636 -0.608213
N10   N     N_3   0.924075 0.366073 0.648890 -0.285329
H19   H     H_    0.858853 0.359508 0.633966 0.238436
H20   H     H_    0.955913 0.321505 0.589229 0.267627
N11   N     N_3   0.915314 0.652330 0.390192 -0.287039
H21   H     H_    0.849139 0.652355 0.394901 0.234599
H22   H     H_    0.933856 0.629498 0.301057 0.288490

loop_
_geom_bond_atom_site_label_1
_geom_bond_atom_site_label_2
_ccdc_geom_bond_type
C27   O8    A    
C30   N3    S    
C4    H2    S    
C8    C13   S    
C4    C8    S    
C3    C6    S    
C6    C9    S    
O7    Zn1   S    
C4    F16   S    
N6    H11   S    
C6    F14   S    
C2    C29   S    
C16   F9    S    
C19   C21   S    
N8    H16   S    
C25   N2    T    
C30   C31   S    
N2    Zn2   S    
C20   C25   S    
C27   O7    A    
C29   C33   S    
C24   N1    T    
N4    H7    S    
C18   C19   S    
C11   H3    S    
N6    H12   S    
C26   O5    A    
C16   C17   S    
N7    H14   S    
C31   C33   S    
C1    C15   S    
C3    H1    S    
N10   H20   S    
C9    C10   S    
C2    C34   S    
O8    Zn2   S    
N5    H9    S    
C21   C22   S    
C23   F5    S    
C34   F13   S    
C2    C14   S    
O1    Zn1   S    
C7    C12   T    
N5    H10   S    
C27   C31   S    
N3    H5    S    
C28   C32   S    
N8    H15   S    
C3    C8    S    
N9    H18   S    
C18   N6    S    
C17   C21   S    
N3    H6    S    
C16   N5    S    
C32   C34   S    
C11   H4    S    
C5    C9    S    
C29   C30   S    
C31   C32   S    
C29   N9    S    
C20   C23   S    
O5    Zn1   S    
C16   C20   S    
N11   H22   S    
C33   C34   S    
C10   F2    S    
C33   F12   S    
C17   N4    S    
O2    Zn2   S    
C5    F15   S    
C1    O1    A    
N1    Zn1   S    
C13   C15   T    
C19   F4    S    
C28   N8    S    
C22   F6    S    
C14   O4    A    
O4    Zn2   S    
C3    F17   S    
C23   F7    S    
O3    Zn1   S    
C4    C5    S    
C32   F11   S    
O6    Zn2   S    
C28   C30   S    
C7    C26   S    
C8    C11   S    
C6    N11   S    
N11   H21   S    
N4    H8    S    
C19   N7    S    
C18   C20   S    
C10   F1    S    
C9    C12   S    
C10   C11   S    
C26   O6    A    
N9    H17   S    
C1    O2    A    
N7    H13   S    
C21   C24   S    
C17   F10   S    
C22   C23   S    
C2    C28   S    
C22   F8    S    
N10   H19   S    
C18   F3    S    
C5    N10   S    
C14   O3    A    
