data_mof_unit_56702.cif
_audit_creation_date              2012-12-11T14:46:16-0500
_audit_creation_method            fapswitch 2.2
_symmetry_space_group_name_H-M    P1
_symmetry_Int_Tables_number       1
_space_group_crystal_system       triclinic
_cell_length_a                    10.956034
_cell_length_b                    10.912435
_cell_length_c                    18.821015
_cell_angle_alpha                 90.079216
_cell_angle_beta                  89.889592
_cell_angle_gamma                 120.029019
_cell_volume                      1948.1428026

loop_
_atom_site_label
_atom_site_type_symbol
_atom_type_description
_atom_site_fract_x
_atom_site_fract_y
_atom_site_fract_z
_atom_type_partial_charge
C1    C     C_R   0.867257 0.636532 0.604877 0.550365
C2    C     C_R   0.956711 0.159464 0.709395 0.055970
C3    C     C_R   0.959422 0.177050 0.784561 -0.019228
C4    C     C_R   0.271154 0.633273 0.603551 0.542817
C5    C     C_R   0.715148 0.115194 0.707364 0.002347
C6    C     C_R   0.726022 0.152640 0.779342 0.024860
C7    C     C_R   0.584987 0.066022 0.672114 -0.063051
C8    C     C_R   0.477876 0.080686 0.703312 -0.116781
C9    C     C_R   0.497873 0.140973 0.770320 -0.136390
C10   C     C_R   0.621476 0.179254 0.807616 -0.064702
C11   C     C_R   0.838160 0.144278 0.670195 -0.015495
C12   C     C_R   0.414212 0.616462 0.777873 -0.118124
C13   C     C_R   0.718818 0.540294 0.713666 -0.135282
C14   C     C_R   0.708715 0.544499 0.787444 -0.148651
C15   C     C_R   0.817727 0.655751 0.825603 0.028232
C16   C     C_R   0.860125 0.220393 0.601281 0.563260
C17   C     C_R   0.938198 0.758247 0.789911 -0.126331
C18   C     C_R   0.943821 0.759114 0.717589 -0.129018
C19   C     C_R   0.836267 0.649515 0.678493 0.034042
C20   C     C_R   0.418409 0.619133 0.300955 -0.133772
C21   C     C_R   0.455842 0.636181 0.229844 -0.141268
C22   C     C_R   0.424857 0.720693 0.186314 0.021310
C23   C     C_R   0.395074 0.609143 0.705485 -0.129756
C24   C     C_R   0.361688 0.793975 0.215348 -0.145026
C25   C     C_R   0.323482 0.776589 0.286717 -0.142808
C26   C     C_R   0.346979 0.684756 0.329169 0.023453
C27   C     C_R   0.719288 0.108730 0.292736 -0.155500
C28   C     C_R   0.865106 0.639016 0.397741 0.549894
C29   C     C_R   0.708358 0.091167 0.220471 -0.162761
C30   C     C_R   0.829349 0.140616 0.177738 0.053143
C31   C     C_R   0.963999 0.207826 0.208266 0.067683
C32   C     C_R   0.974516 0.229204 0.281657 -0.093211
C33   C     C_R   0.851969 0.180674 0.323529 0.022218
C34   C     C_R   0.325287 0.672958 0.674885 0.028046
C35   C     C_R   0.878810 0.791106 0.296658 -0.029104
C36   C     C_R   0.869598 0.801565 0.224007 -0.132349
C37   C     C_R   0.803381 0.679236 0.181605 0.014169
C38   C     C_R   0.735625 0.545483 0.212486 -0.162924
C39   C     C_R   0.743816 0.533844 0.285432 -0.153242
C40   C     C_R   0.274388 0.636049 0.397141 0.541009
C41   C     C_R   0.821097 0.656097 0.327449 0.010679
C42   C     C_R   0.807523 0.105403 0.894783 0.535104
C43   C     C_R   0.399968 0.702227 0.895231 0.555010
C44   C     C_R   0.797822 0.690016 0.897673 0.547909
C45   C     C_R   0.839328 0.161236 0.820430 -0.036557
C46   C     C_R   0.805453 0.103662 0.103337 0.550483
C47   C     C_R   0.458225 0.728166 0.110953 0.554747
C48   C     C_R   0.795193 0.698388 0.106337 0.539079
C49   C     C_R   0.863649 0.230970 0.395485 0.559025
C50   C     C_R   0.281403 0.750474 0.717057 -0.125553
C51   C     C_R   0.304259 0.761186 0.789861 -0.129566
C52   C     C_R   0.366906 0.690262 0.820510 0.038112
C53   C     C_1   0.955444 0.919593 0.337736 0.212887
C54   C     C_R   0.085472 0.219184 0.821949 -0.091286
C55   C     C_R   0.204645 0.236281 0.786990 -0.145005
C56   C     C_R   0.197630 0.201414 0.715483 -0.124373
C57   C     C_R   0.073490 0.158226 0.676726 0.135835
Cr1   Cr    Cr6+3 0.791660 0.390250 0.499930 1.012839
Cr2   Cr    Cr6+3 0.098520 0.708290 0.500540 1.018539
Cr3   Cr    Cr6+3 0.109770 0.401430 0.499480 1.032564
Cr4   Cr    Cr6+3 0.874790 0.925890 0.000070 1.028605
Cr5   Cr    Cr6+3 0.574120 0.948670 0.999300 1.011633
Cr6   Cr    Cr6+3 0.551420 0.625320 0.000920 1.006059
H1    H     H_    0.224584 0.797937 0.694176 0.124504
H2    H     H_    0.504401 0.579182 0.208045 0.135463
H3    H     H_    0.337324 0.860387 0.182560 0.136133
H4    H     H_    0.270326 0.821038 0.822085 0.115281
H5    H     H_    0.267514 0.827482 0.307280 0.142223
H6    H     H_    0.624158 0.071930 0.324095 0.139528
H7    H     H_    0.603777 0.037762 0.197892 0.144501
H8    H     H_    0.078084 0.288529 0.305518 0.150668
H9    H     H_    0.915561 0.906004 0.200329 0.158122
H10   H     H_    0.679877 0.451018 0.180225 0.127602
H11   H     H_    0.698054 0.428699 0.308046 0.149157
H12   H     H_    0.381003 0.048608 0.674656 0.093505
H13   H     H_    0.466483 0.564106 0.800598 0.134798
H14   H     H_    0.428523 0.547870 0.674038 0.125677
H15   H     H_    0.302040 0.274912 0.816096 0.102608
H16   H     H_    0.289055 0.207899 0.689799 0.094992
H17   H     H_    0.094737 0.246249 0.877794 0.134607
H18   H     H_    0.635052 0.231951 0.858129 0.133842
H19   H     H_    0.095969 0.340453 0.133632 0.241191
H20   H     H_    0.178363 0.300069 0.196464 0.229219
H21   H     H_    0.076929 0.015425 0.609432 0.223406
H22   H     H_    0.148113 0.179851 0.576443 0.239359
H23   H     H_    0.568807 0.022464 0.618933 0.125006
H24   H     H_    0.416734 0.155710 0.794168 0.095596
H25   H     H_    0.636425 0.452132 0.684478 0.129360
H26   H     H_    0.615351 0.463927 0.814208 0.107417
H27   H     H_    0.025933 0.845101 0.817213 0.139629
H28   H     H_    0.037247 0.843602 0.692940 0.120700
H29   H     H_    0.438049 0.548114 0.332763 0.135200
N1    N     N_3   0.087887 0.257449 0.164802 -0.608492
N2    N     N_1   0.017918 0.021129 0.371410 -0.299419
N3    N     N_3   0.063623 0.103508 0.606315 -0.597819
O1    O     O_R   0.766500 0.250040 0.579790 -0.525160
O2    O     O_R   0.413330 0.603360 0.920440 -0.526938
O3    O     O_R   0.676110 0.626250 0.926750 -0.509161
O4    O     O_R   0.798570 0.516780 0.574780 -0.501683
O5    O     O_R   0.895350 0.809870 0.080950 -0.513186
O6    O     O_R   0.872490 0.049760 0.073800 -0.478615
O7    O     O_R   0.691680 0.088070 0.079070 -0.542428
O8    O     O_R   0.451720 0.825250 0.074050 -0.507189
O9    O     O_R   0.413580 0.606370 0.080960 -0.511370
O10   O     O_R   0.676340 0.629040 0.075550 -0.522686
O11   O     O_3   0.666780 0.833290 0.000090 -0.270051
O12   O     O_R   0.218690 0.701900 0.425960 -0.504554
O13   O     O_R   0.984000 0.732950 0.581090 -0.534174
O14   O     O_R   0.218600 0.700890 0.574760 -0.515760
O15   O     O_R   0.249390 0.515350 0.579940 -0.521412
O16   O     O_R   0.982790 0.280900 0.573700 -0.468077
O17   O     O_R   0.766600 0.251130 0.419260 -0.531270
O18   O     O_R   0.798660 0.517790 0.425980 -0.512150
O19   O     O_R   0.984100 0.734040 0.420570 -0.497880
O20   O     O_R   0.249490 0.516440 0.419420 -0.527156
O21   O     O_R   0.982880 0.281910 0.424890 -0.489409
O22   O     O_3   0.999980 0.499990 0.499980 -0.249619
O23   O     O_R   0.895110 0.806860 0.920430 -0.520076
O24   O     O_R   0.872260 0.046970 0.925000 -0.494964
O25   O     O_R   0.691430 0.085060 0.918550 -0.523272
O26   O     O_R   0.451490 0.822460 0.925250 -0.490127

loop_
_geom_bond_atom_site_label_1
_geom_bond_atom_site_label_2
_ccdc_geom_bond_type
C55   C56   A    
C6    C45   A    
C35   C53   S    
C50   H1    S    
C35   C36   A    
C4    O14   A    
C26   C40   S    
C1    O4    A    
C2    C57   A    
C7    C8    A    
C39   C41   A    
C27   C33   A    
C46   O7    A    
C12   C23   A    
C29   C30   A    
C56   H16   S    
C20   C26   A    
Cr1   O17   S    
C18   H28   S    
C36   C37   A    
C15   C44   S    
Cr5   O8    S    
Cr6   O3    S    
C30   C31   A    
C3    C54   A    
C42   O24   A    
C7    H23   S    
Cr4   O24   S    
C33   C49   S    
H20   N1    S    
C28   C41   S    
C56   C57   A    
C18   C19   A    
C39   H11   S    
Cr1   O1    S    
C44   O3    A    
C48   O10   A    
C8    C9    A    
Cr1   O18   S    
Cr6   O10   S    
C9    C10   A    
C43   O26   A    
Cr5   O25   S    
C27   H6    S    
C24   H3    S    
C22   C47   S    
C53   N2    T    
Cr2   O22   S    
H19   N1    S    
C13   C14   A    
C25   H5    S    
C35   C41   A    
C2    C11   A    
C12   C52   A    
C50   C51   A    
C32   H8    S    
C54   H17   S    
C38   C39   A    
C48   O5    A    
C46   O6    A    
C4    C34   S    
C16   O1    A    
C1    C19   S    
C13   C19   A    
C51   C52   A    
C47   O8    A    
C24   C25   A    
C5    C7    A    
C55   H15   S    
C25   C26   A    
C31   N1    S    
C3    C45   A    
Cr1   O22   S    
Cr2   O12   S    
Cr6   O11   S    
C42   C45   S    
Cr4   O6    S    
C14   H26   S    
C37   C38   A    
C20   H29   S    
C11   C16   S    
C31   C32   A    
C44   O23   A    
C23   C34   A    
C17   C18   A    
Cr3   O22   S    
C51   H4    S    
C23   H14   S    
C37   C48   S    
Cr4   O11   S    
C28   O19   A    
C40   O12   A    
C49   O17   A    
C22   C24   A    
Cr3   O21   S    
Cr4   O5    S    
C29   H7    S    
C15   C17   A    
C4    O15   A    
C54   C55   A    
C47   O9    A    
C21   H2    S    
Cr4   O23   S    
C30   C46   S    
Cr1   O4    S    
C43   O2    A    
Cr6   O9    S    
C6    C10   A    
C34   C50   A    
C5    C11   A    
Cr5   O11   S    
C10   H18   S    
Cr2   O13   S    
C32   C33   A    
C12   H13   S    
C2    C3    A    
Cr6   O2    S    
Cr3   O16   S    
C9    H24   S    
C17   H27   S    
H22   N3    S    
C42   O25   A    
C5    C6    A    
C27   C29   A    
Cr2   O19   S    
C13   H25   S    
Cr2   O14   S    
C8    H12   S    
C43   C52   S    
Cr3   O15   S    
C28   O18   A    
C1    O13   A    
C40   O20   A    
C49   O21   A    
C20   C21   A    
C57   N3    S    
C14   C15   A    
Cr3   O20   S    
C21   C22   A    
H21   N3    S    
Cr5   O26   S    
C36   H9    S    
C16   O16   A    
Cr5   O7    S    
C38   H10   S    
