data_mof_unit_46624.cif
_audit_creation_date              2012-12-10T18:58:10-0500
_audit_creation_method            fapswitch 2.2
_symmetry_space_group_name_H-M    P1
_symmetry_Int_Tables_number       1
_space_group_crystal_system       triclinic
_cell_length_a                    11.098641
_cell_length_b                    10.819607
_cell_length_c                    9.59366
_cell_angle_alpha                 90.909642
_cell_angle_beta                  102.6709
_cell_angle_gamma                 91.142611
_cell_volume                      1123.5126115

loop_
_atom_site_label
_atom_site_type_symbol
_atom_type_description
_atom_site_fract_x
_atom_site_fract_y
_atom_site_fract_z
_atom_type_partial_charge
C1    C     C_R   0.496880 0.262618 0.498402 0.922543
C2    C     C_R   0.488954 0.129213 0.497142 -0.187424
C3    C     C_R   0.414051 0.061194 0.383328 0.582757
C4    C     C_R   0.412399 0.930895 0.384532 0.108270
C5    C     C_R   0.488147 0.870556 0.500432 -0.072175
C6    C     C_R   0.549205 0.940268 0.619550 -0.210327
C7    C     C_3   0.681622 0.939568 0.698485 0.369050
C8    C     C_3   0.680639 0.079490 0.695626 1.097639
C9    C     C_R   0.595347 0.554741 0.098931 0.103124
C10   C     C_R   0.411501 0.436065 0.047888 0.137976
C11   C     C_R   0.414136 0.434186 0.901034 0.733045
C12   C     C_R   0.263378 0.502621 0.442529 0.816217
C13   C     C_R   0.596140 0.552998 0.951776 0.010605
C14   C     C_3   0.642478 0.683672 0.955431 -0.123144
C15   C     C_3   0.635586 0.688767 0.112686 0.679777
C16   C     C_R   0.498547 0.737425 0.500535 0.857052
C17   C     C_R   0.736718 0.500347 0.557785 0.897008
C18   C     C_2   0.129032 0.496868 0.412382 -0.288102
C19   C     C_2   0.064683 0.531561 0.510262 0.082940
C20   C     C_2   0.870684 0.512752 0.589078 -0.337135
C21   C     C_2   0.933122 0.498371 0.484980 0.630584
C22   C     C_R   0.549003 0.067536 0.617583 -0.139094
Cu1   Cu    Cu3+1 0.499990 0.499980 0.640670 1.038140
Cu2   Cu    Cu3+1 0.500010 0.500020 0.359330 1.046377
H1    H     H_    0.576913 0.745887 0.887260 0.194243
H2    H     H_    0.917383 0.541926 0.696557 0.143505
H3    H     H_    0.082369 0.453823 0.311337 0.196756
H4    H     H_    0.694896 0.903247 0.807810 0.107667
N1    N     N_R   0.500780 0.500930 0.148120 -0.223779
N2    N     N_R   0.500790 0.500890 0.852210 -0.258622
O1    O     O_R   0.500000 0.319640 0.618810 -0.521399
O2    O     O_R   0.500010 0.319680 0.381230 -0.556223
O3    O     O_R   0.320680 0.500000 0.575130 -0.536952
O4    O     O_R   0.320690 0.500040 0.337550 -0.617216
O5    O     O_R   0.499990 0.680320 0.618770 -0.623127
O6    O     O_R   0.500000 0.680360 0.381190 -0.515025
O7    O     O_R   0.679310 0.499960 0.662450 -0.582793
O8    O     O_R   0.679320 0.500000 0.424870 -0.535271
F1    F     F_    0.876159 0.448803 0.355018 -0.655751
F2    F     F_    0.757273 0.131377 0.614997 -0.599362
N3    N     N_3   0.308168 0.374572 0.084610 -0.475383
H5    H     H_    0.336363 0.325481 0.177496 0.321168
H6    H     H_    0.243333 0.440349 0.096198 0.233838
F3    F     F_    0.326464 0.367799 0.807343 -0.620929
N4    N     N_3   0.768521 0.693214 0.931565 -0.545208
H7    H     H_    0.762415 0.692785 0.821368 0.260473
H8    H     H_    0.818941 0.615462 0.970181 0.240528
N5    N     N_3   0.753778 0.713561 0.213447 -0.489132
H9    H     H_    0.736951 0.717702 0.316400 0.262263
H10   H     H_    0.813233 0.640213 0.211390 0.223349
F4    F     F_    0.544207 0.766740 0.136001 -0.614877
N6    N     N_3   0.119261 0.604240 0.636488 -0.588986
H11   H     H_    0.173555 0.676533 0.609993 0.239249
H12   H     H_    0.172264 0.548005 0.712633 0.285213
F5    F     F_    0.343581 0.120724 0.272314 -0.668199
N7    N     N_3   0.336193 0.859552 0.269230 -0.464180
H13   H     H_    0.267226 0.814928 0.309886 0.192317
H14   H     H_    0.291369 0.916413 0.187979 0.298832
F6    F     F_    0.757801 0.888854 0.617078 -0.624033
F7    F     F_    0.693841 0.134726 0.829403 -0.638655

loop_
_geom_bond_atom_site_label_1
_geom_bond_atom_site_label_2
_ccdc_geom_bond_type
C2    C22   A    
C8    C22   S    
Cu1   Cu2   S    
Cu2   O2    S    
C6    C7    S    
C15   F4    S    
N3    H5    S    
Cu2   O8    S    
C21   F1    S    
C9    N1    A    
C20   C21   D    
N5    H10   S    
C2    C3    A    
C9    C15   S    
C7    C8    S    
C16   O5    A    
C17   O7    A    
C13   C14   S    
C4    N7    S    
C10   N3    S    
Cu2   N1    S    
N3    H6    S    
C10   N1    A    
Cu2   O6    S    
C20   H2    S    
C15   N5    S    
C7    F6    S    
N5    H9    S    
C19   C21   S    
N7    H14   S    
C1    C2    S    
C14   N4    S    
Cu1   O5    S    
C17   O8    A    
N4    H8    S    
C14   H1    S    
C5    C6    A    
Cu2   O4    S    
C11   F3    S    
C10   C11   A    
C18   H3    S    
C12   O4    A    
C3    C4    A    
C6    C22   A    
Cu1   N2    S    
N4    H7    S    
C13   N2    A    
C1    O1    A    
C17   C20   S    
N6    H11   S    
C18   C19   D    
C12   C18   S    
N7    H13   S    
C8    F7    S    
C9    C13   A    
C14   C15   S    
C5    C16   S    
C8    F2    S    
C12   O3    A    
Cu1   O7    S    
C3    F5    S    
C19   N6    S    
C1    O2    A    
C16   O6    A    
C7    H4    S    
C11   N2    A    
N6    H12   S    
C4    C5    A    
Cu1   O3    S    
Cu1   O1    S    
