data_mof_unit_67470.cif
_audit_creation_date              2012-10-26T21:06:53-0400
_audit_creation_method            fapswitch 2.2
_symmetry_space_group_name_H-M    P1
_symmetry_Int_Tables_number       1
_space_group_crystal_system       triclinic
_cell_length_a                    10.89157
_cell_length_b                    8.800168
_cell_length_c                    7.617324
_cell_angle_alpha                 103.076226
_cell_angle_beta                  94.078673
_cell_angle_gamma                 88.287712
_cell_volume                      709.298360638

loop_
_atom_site_label
_atom_site_type_symbol
_atom_type_description
_atom_site_fract_x
_atom_site_fract_y
_atom_site_fract_z
_atom_type_partial_charge
C1    C     C_R   0.492733 0.200993 0.454522 0.534550
C2    C     C_3   0.078052 0.422029 0.664348 -0.106559
C3    C     C_3   0.936625 0.402206 0.639014 -0.221799
C4    C     C_3   0.071203 0.659964 0.543478 -0.218512
C5    C     C_3   0.060907 0.390943 0.317462 -0.104186
C6    C     C_3   0.121134 0.488458 0.505494 0.033368
C7    C     C_3   0.886890 0.738549 0.366248 -0.254559
C8    C     C_3   0.903189 0.916475 0.393881 -0.333353
C9    C     C_3   0.787919 0.013065 0.451436 -0.450533
C10   C     C_3   0.146775 0.270497 0.690418 -0.284618
C11   C     C_3   0.223034 0.295199 0.866378 -0.300960
C12   C     C_3   0.876972 0.494274 0.498303 0.045931
C13   C     C_3   0.297392 0.147780 0.877832 -0.451499
C14   C     C_3   0.870822 0.784177 0.700496 -0.213646
C15   C     C_3   0.854722 0.751231 0.887511 -0.305629
C16   C     C_3   0.757429 0.865168 0.982100 -0.455437
C17   C     C_3   0.108065 0.217539 0.274453 -0.264029
C18   C     C_3   0.061564 0.103547 0.100826 -0.317408
C19   C     C_3   0.133872 0.948343 0.084059 -0.455879
C20   C     C_3   0.926681 0.667709 0.533752 0.037288
C21   C     C_3   0.918610 0.398971 0.314475 -0.232552
C22   C     C_2   0.479341 0.034283 0.431705 -0.180635
C23   C     C_2   0.510467 0.965812 0.568536 -0.186985
C24   C     C_R   0.260388 0.495264 0.502272 0.526117
C25   C     C_R   0.503299 0.799017 0.545541 0.537822
C26   C     C_R   0.739042 0.494225 0.497497 0.531857
Cu1   Cu    Cu3+1 0.514070 0.517380 0.684380 0.908587
Cu2   Cu    Cu3+1 0.485930 0.482620 0.315620 0.906553
H1    H     H_    0.094607 0.512621 0.791936 0.134387
H2    H     H_    0.108872 0.724429 0.677276 0.095628
H3    H     H_    0.086533 0.450261 0.212614 0.130174
H4    H     H_    0.878944 0.281584 0.287822 0.115230
H5    H     H_    0.778479 0.114818 0.389246 0.139412
H6    H     H_    0.705914 0.942558 0.401850 0.162401
H7    H     H_    0.789006 0.056252 0.600024 0.138299
H8    H     H_    0.985104 0.959355 0.484114 0.142772
H9    H     H_    0.920041 0.935679 0.262241 0.169425
H10   H     H_    0.941823 0.683528 0.250591 0.109046
H11   H     H_    0.790454 0.708595 0.319745 0.161393
H12   H     H_    0.879816 0.444714 0.197606 0.108443
H13   H     H_    0.242343 0.041107 0.827672 0.154093
H14   H     H_    0.373085 0.138254 0.789192 0.159845
H15   H     H_    0.335987 0.154264 0.017688 0.168316
H16   H     H_    0.281164 0.394147 0.874448 0.220157
H17   H     H_    0.166854 0.335061 0.980309 0.153800
H18   H     H_    0.082563 0.173654 0.684288 0.121986
H19   H     H_    0.214229 0.230460 0.587179 0.160582
H20   H     H_    0.787385 0.987466 0.011903 0.132320
H21   H     H_    0.671017 0.860966 0.897801 0.185575
H22   H     H_    0.732365 0.832500 0.105417 0.136422
H23   H     H_    0.110496 0.720627 0.447260 0.105350
H24   H     H_    0.821274 0.636347 0.887514 0.195775
H25   H     H_    0.942673 0.762462 0.969237 0.135508
H26   H     H_    0.923071 0.894427 0.730497 0.136516
H27   H     H_    0.776059 0.809839 0.650459 0.176506
H28   H     H_    0.234362 0.966484 0.107962 0.153397
H29   H     H_    0.108693 0.883180 0.184182 0.137569
H30   H     H_    0.117357 0.875361 0.947146 0.132663
H31   H     H_    0.963307 0.084811 0.102733 0.141425
H32   H     H_    0.063485 0.145081 0.977247 0.170035
H33   H     H_    0.210110 0.216296 0.281469 0.170415
H34   H     H_    0.446617 0.966629 0.299846 0.121684
H35   H     H_    0.076126 0.160911 0.376870 0.151136
H36   H     H_    0.548876 0.032225 0.697708 0.113385
H37   H     H_    0.464553 0.343857 0.966090 0.242672
H38   H     H_    0.560342 0.648374 0.045418 0.238127
H39   H     H_    0.914152 0.277672 0.588900 0.111858
H40   H     H_    0.898551 0.428378 0.772405 0.108666
N1    N     N_2   0.464720 0.456420 0.038520 -0.289332
N2    N     N_2   0.535280 0.543580 0.961480 -0.278624
O1    O     O_R   0.509140 0.286130 0.619770 -0.509401
O2    O     O_R   0.485380 0.256770 0.308360 -0.519888
O3    O     O_R   0.329570 0.514650 0.655700 -0.507214
O4    O     O_R   0.305810 0.485300 0.344290 -0.511925
O5    O     O_R   0.514620 0.743230 0.691640 -0.516282
O6    O     O_R   0.490860 0.713870 0.380230 -0.505268
O7    O     O_R   0.694190 0.514700 0.655710 -0.512034
O8    O     O_R   0.670430 0.485350 0.344300 -0.515720

loop_
_geom_bond_atom_site_label_1
_geom_bond_atom_site_label_2
_ccdc_geom_bond_type
C19   H28   S    
Cu2   N1    S    
Cu2   O4    S    
C16   H20   S    
C13   H13   S    
C7    C8    S    
C2    C6    S    
C19   H29   S    
C26   O8    A    
C2    H1    S    
C15   H25   S    
C16   H22   S    
C5    C6    S    
C24   O3    A    
C5    C17   S    
C15   C16   S    
C18   C19   S    
C8    H8    S    
C3    C12   S    
C17   H33   S    
C3    H40   S    
C8    C9    S    
C10   H18   S    
Cu2   O8    S    
C14   H27   S    
C1    C22   S    
C9    H5    S    
Cu2   O2    S    
Cu1   O5    S    
C13   H14   S    
C19   H30   S    
C21   H4    S    
C10   H19   S    
C26   O7    A    
C4    H23   S    
C1    O2    A    
C14   C20   S    
C16   H21   S    
C4    C6    S    
C12   C21   S    
C12   C26   S    
C25   O5    A    
C22   H34   S    
C6    C24   S    
C12   C20   S    
C17   C18   S    
C11   H16   S    
C1    O1    A    
C15   H24   S    
Cu1   N2    S    
C18   H32   S    
C23   H36   S    
C14   H26   S    
C9    H6    S    
C11   H17   S    
C8    H9    S    
C2    C10   S    
C13   H15   S    
Cu1   O1    S    
C14   C15   S    
C3    H39   S    
Cu1   O7    S    
C25   O6    A    
C2    C3    S    
C17   H35   S    
C11   C13   S    
C24   O4    A    
H38   N2    S    
C21   H12   S    
H37   N1    S    
C7    H10   S    
C23   C25   S    
N1    N2    D    
C10   C11   S    
C4    C20   S    
C18   H31   S    
C5    C21   S    
C7    C20   S    
Cu1   Cu2   S    
C9    H7    S    
C7    H11   S    
C22   C23   D    
Cu1   O3    S    
C4    H2    S    
C5    H3    S    
Cu2   O6    S    
