data_mof_unit_67067.cif
_audit_creation_date              2012-12-11T17:41:21-0500
_audit_creation_method            fapswitch 2.2
_symmetry_space_group_name_H-M    P1
_symmetry_Int_Tables_number       1
_space_group_crystal_system       triclinic
_cell_length_a                    8.29922
_cell_length_b                    12.982109
_cell_length_c                    14.29107
_cell_angle_alpha                 93.495687
_cell_angle_beta                  90.968862
_cell_angle_gamma                 98.009668
_cell_volume                      1521.37905732

loop_
_atom_site_label
_atom_site_type_symbol
_atom_type_description
_atom_site_fract_x
_atom_site_fract_y
_atom_site_fract_z
_atom_type_partial_charge
Ba1   Ba    Ba6+2 0.855630 0.555280 0.454520 1.700495
Ba2   Ba    Ba6+2 0.334200 0.444810 0.545490 1.690642
C1    C     C_3   0.614186 0.939332 0.174835 -0.385862
C2    C     C_R   0.180708 0.496339 0.195529 0.084670
C3    C     C_R   0.336442 0.543017 0.225232 -0.256170
C4    C     C_3   0.115776 0.795160 0.198582 0.372571
C5    C     C_R   0.447736 0.588049 0.162691 0.013728
C6    C     C_R   0.403814 0.590781 0.068330 -0.128061
C7    C     C_R   0.247841 0.546623 0.035025 0.055072
C8    C     C_R   0.135028 0.496786 0.097820 -0.005419
C9    C     C_R   0.050544 0.508128 0.902524 -0.060447
C10   C     C_R   0.937266 0.459247 0.965390 0.034614
C11   C     C_R   0.003779 0.510143 0.805364 -0.014713
C12   C     C_3   0.632912 0.843505 0.227907 0.348352
C13   C     C_R   0.845136 0.467263 0.776017 0.137101
C14   C     C_R   0.733140 0.422926 0.839058 0.000512
C15   C     C_R   0.779139 0.418701 0.932781 -0.146046
C16   C     C_3   0.094855 0.830355 0.099803 0.196790
C17   C     C_R   0.204930 0.552413 0.939456 0.037135
C18   C     C_R   0.780499 0.165991 0.522815 -0.285770
C19   C     C_R   0.443927 0.814773 0.455136 0.110771
C20   C     C_R   0.406238 0.993491 0.436051 -0.132099
C21   C     C_R   0.347970 0.887162 0.424221 -0.052454
C22   C     C_R   0.581263 0.847236 0.513574 0.091013
C23   C     C_3   0.530091 0.292998 0.254366 0.653321
C24   C     C_R   0.643816 0.956671 0.527028 -0.117651
C25   C     C_R   0.556520 0.029782 0.483126 -0.121680
C26   C     C_R   0.623027 0.137123 0.486753 0.019582
C27   C     C_R   0.863113 0.100856 0.572856 -0.026742
C28   C     C_3   0.219047 0.752550 0.649756 0.301974
C29   C     C_R   0.791836 0.996128 0.579407 0.366698
C30   C     C_3   0.290916 0.863032 0.675232 -0.440899
C31   C     C_3   0.966536 0.239898 0.335988 0.356730
C32   C     C_3   0.959725 0.123873 0.309904 0.303970
C33   C     C_3   0.720772 0.684394 0.740044 0.302021
C34   C     C_3   0.590411 0.263877 0.158051 -0.245885
C35   C     C_3   0.732618 0.712982 0.845074 -0.393157
C36   C     C_3   0.153583 0.094330 0.199129 0.309580
C37   C     C_3   0.265447 0.145032 0.962196 0.208540
C38   C     C_3   0.828944 0.380869 0.633943 0.557520
C39   C     C_3   0.003563 0.192415 0.803055 0.353289
C40   C     C_3   0.001199 0.163371 0.907182 1.022646
C41   C     C_3   0.527879 0.158457 0.749046 0.428762
C42   C     C_3   0.538866 0.049335 0.778627 0.205654
C43   C     C_R   0.981826 0.450892 0.060341 0.034358
H1    H     H_    0.713364 0.867145 0.290809 0.053269
H2    H     H_    0.627089 0.614894 0.726877 0.071442
H3    H     H_    0.570582 0.999573 0.222659 0.085498
H4    H     H_    0.824587 0.783014 0.860115 0.151161
H5    H     H_    0.769107 0.647953 0.883474 0.067351
H6    H     H_    0.612835 0.729845 0.870590 0.113583
H7    H     H_    0.509783 0.811261 0.250656 -0.075268
H8    H     H_    0.524379 0.918113 0.115990 0.114177
H9    H     H_    0.617361 0.359403 0.284930 0.032172
H10   H     H_    0.518066 0.190570 0.128311 0.088100
H11   H     H_    0.578228 0.327304 0.111261 0.064890
H12   H     H_    0.405701 0.859387 0.714749 0.122992
H13   H     H_    0.719873 0.251810 0.163138 0.055812
H14   H     H_    0.732452 0.971486 0.145806 0.131503
H15   H     H_    0.201741 0.888466 0.084064 0.001775
H16   H     H_    0.052222 0.276598 0.801354 0.016035
H17   H     H_    0.876215 0.180658 0.776457 0.019003
H18   H     H_    0.637869 0.184260 0.709282 -0.079628
H19   H     H_    0.420013 0.154533 0.701661 0.040780
H20   H     H_    0.572531 0.002666 0.716083 0.021520
H21   H     H_    0.018432 0.729207 0.209102 0.111564
H22   H     H_    0.419095 0.014075 0.803773 -0.004110
H23   H     H_    0.314729 0.907375 0.612220 0.064441
H24   H     H_    0.374583 0.540000 0.297585 0.081506
H25   H     H_    0.491431 0.627835 0.021077 0.066798
H26   H     H_    0.692185 0.380931 0.979425 0.094343
H27   H     H_    0.894552 0.409343 0.104597 0.080735
H28   H     H_    0.292856 0.593278 0.894968 0.076570
H29   H     H_    0.332888 0.046921 0.407772 0.177169
H30   H     H_    0.844354 0.240105 0.508263 -0.025302
H31   H     H_    0.236904 0.768128 0.204838 -0.084884
H32   H     H_    0.981661 0.867268 0.095138 0.107223
H33   H     H_    0.310603 0.712640 0.611546 0.050371
H34   H     H_    0.207461 0.902581 0.720241 0.134165
H35   H     H_    0.110120 0.751535 0.604189 0.097440
H36   H     H_    0.162393 0.172165 0.169908 0.110545
H37   H     H_    0.061285 0.038544 0.157756 -0.001111
H38   H     H_    0.273571 0.066453 0.190768 0.046862
H39   H     H_    0.351421 0.352279 0.306927 0.289750
H40   H     H_    0.381391 0.192112 0.987441 0.108286
H41   H     H_    0.285833 0.107560 0.893070 0.072428
H42   H     H_    0.230308 0.084301 0.012638 -0.002610
H43   H     H_    0.871841 0.190665 0.015695 0.314152
H44   H     H_    0.029022 0.017279 0.866649 0.284169
H45   H     H_    0.843477 0.256678 0.353462 -0.127444
H46   H     H_    0.643064 0.978546 0.871479 0.324064
H47   H     H_    0.843705 0.314760 0.677583 -0.303251
H48   H     H_    0.729641 0.352548 0.587147 0.070061
H49   H     H_    0.920043 0.396611 0.580538 0.073470
H50   H     H_    0.975575 0.961250 0.652729 0.302022
H51   H     H_    0.371666 0.703891 0.364183 0.271071
H52   H     H_    0.085848 0.772629 0.971992 0.303967
H53   H     H_    0.052496 0.261050 0.396749 0.058789
H54   H     H_    0.874111 0.101339 0.248979 -0.026278
H55   H     H_    0.908029 0.079112 0.368590 0.007908
H56   H     H_    0.841671 0.669005 0.716023 0.050788
O1    O     O_2   0.887370 0.460630 0.272300 -0.492507
O2    O     O_2   0.204773 0.116695 0.575004 -0.492688
O3    O     O_3   0.096903 0.132283 0.745732 -0.672948
O4    O     O_3   0.129410 0.451380 0.388510 -0.499955
O5    O     O_3   0.575400 0.626570 0.547370 -0.436363
O6    O     O_2   0.344320 0.238700 0.455090 -0.443497
O7    O     O_3   0.519568 0.204938 0.306895 -0.651237
O8    O     O_2   0.386753 0.399577 0.833433 -0.483213
O9    O     O_3   0.512054 0.226030 0.827959 -0.592582
O10   O     O_3   0.670210 0.653170 0.329170 -0.467659
O11   O     O_2   0.782604 0.585704 0.166151 -0.487380
O12   O     O_3   0.675344 0.768401 0.695094 -0.604304
O13   O     O_3   0.016443 0.293722 0.257982 -0.641516
O14   O     O_3   0.703644 0.772345 0.169039 -0.595793
O15   O     O_2   0.845380 0.761330 0.544970 -0.445168
O16   O     O_3   0.088930 0.704860 0.376040 -0.484614
O17   O     O_2   0.011112 0.887702 0.437824 -0.468668
O18   O     O_3   0.118664 0.099309 0.295463 -0.620827
O19   O     O_3   0.376103 0.322439 0.244277 -0.763616
O20   O     O_3   0.146188 0.212133 0.955795 -0.677995
O21   O     O_3   0.871261 0.206277 0.948607 -0.715988
O22   O     O_3   0.970867 0.053979 0.915907 -0.732071
O23   O     O_3   0.102320 0.878921 0.264196 -0.627143
O24   O     O_3   0.658870 0.050602 0.849205 -0.658730
O25   O     O_3   0.795944 0.471591 0.684022 -0.696384
O26   O     O_3   0.859051 0.934305 0.639732 -0.697538
O27   O     O_3   0.401212 0.710330 0.431742 -0.711728
O28   O     O_3   0.081721 0.743916 0.034882 -0.751873
O29   O     O_2   0.302330 0.539400 0.727760 -0.477250
O30   O     O_3   0.060300 0.548700 0.611500 -0.493005
O31   O     O_3   0.519500 0.346920 0.670840 -0.481021
O32   O     O_3   0.178291 0.707243 0.733793 -0.645501
O33   O     O_3   0.614310 0.373510 0.452640 -0.525903
O34   O     O_3   0.100780 0.295230 0.623970 -0.496132
P1    P     P_3+3 0.054400 0.427280 0.286870 0.984269
P2    P     P_3+3 0.668300 0.742890 0.573060 1.093708
P3    P     P_3+3 0.138596 0.840536 0.377101 0.976515
P4    P     P_3+3 0.135310 0.572810 0.713130 0.990561
P5    P     P_3+3 0.064656 0.159429 0.628012 0.941632
P6    P     P_3+3 0.650409 0.646804 0.206925 0.961371
P7    P     P_3+3 0.528593 0.239739 0.427407 0.928545
P8    P     P_3+3 0.535683 0.353940 0.793393 1.019300

loop_
_geom_bond_atom_site_label_1
_geom_bond_atom_site_label_2
_ccdc_geom_bond_type
O14   P6    S    
C36   H38   S    
C1    H8    S    
C39   C40   S    
Ba2   O6    S    
C21   P3    S    
O16   P3    S    
C29   O26   S    
C38   H48   S    
C33   H2    S    
O7    P7    S    
C41   H18   S    
C5    C6    A    
C12   H1    S    
C9    C17   A    
C24   C25   A    
Ba2   O33   S    
Ba2   P4    S    
C30   H12   S    
O23   P3    S    
C33   C35   S    
C22   C24   A    
C31   H53   S    
C34   H13   S    
C35   H6    S    
C13   C14   A    
C1    H3    S    
H51   O27   S    
Ba1   Ba2   S    
C3    H24   S    
C7    C17   A    
C12   H7    S    
C6    C7    A    
C13   O25   S    
C10   C15   A    
C41   H19   S    
C32   H55   S    
Ba1   O15   S    
C37   H42   S    
Ba1   P1    S    
C7    C8    A    
Ba1   O5    S    
C2    P1    S    
C28   H35   S    
O31   P8    S    
C24   C29   A    
C36   H37   S    
C43   H27   S    
C42   H20   S    
C39   H17   S    
O29   P4    D    
C40   O22   S    
C31   C32   S    
C18   C27   A    
O34   P5    S    
C4    C16   S    
C42   O24   S    
Ba2   O30   S    
C42   H22   S    
C17   H28   S    
C14   P8    S    
C23   H9    S    
H43   O21   S    
C3    C5    A    
C14   C15   A    
O5    P2    S    
C18   C26   A    
C33   H56   S    
Ba2   O5    S    
C39   H16   S    
O3    P5    S    
C18   H30   S    
O6    P7    D    
O11   P6    D    
C41   C42   S    
C34   H11   S    
O33   P7    S    
C35   H4    S    
Ba2   O31   S    
H39   O19   S    
C28   O32   S    
C38   O25   S    
C8    C43   A    
C32   H54   S    
C31   O13   S    
O8    P8    D    
Ba1   O16   S    
C38   H47   S    
C19   O27   S    
O32   P4    S    
C1    C12   S    
O4    P1    S    
C36   O18   S    
C16   H15   S    
C41   O9    S    
C15   H26   S    
C20   C25   A    
C11   C13   A    
C36   H36   S    
O12   P2    S    
C26   P7    S    
C37   H40   S    
C2    C8    A    
Ba1   O33   S    
C23   O19   S    
C11   P4    S    
C5    P6    S    
Ba1   P2    S    
C40   O21   S    
O15   P2    D    
C32   O18   S    
C27   P5    S    
C4    O23   S    
O13   P1    S    
H46   O24   S    
C38   H49   S    
C2    C3    A    
Ba1   O30   S    
C9    C10   A    
C4    H31   S    
C10   C43   A    
C22   P2    S    
H44   O22   S    
Ba2   O4    S    
C6    H25   S    
Ba2   O34   S    
C37   O20   S    
C39   O3    S    
C30   H23   S    
C19   C21   A    
H52   O28   S    
C27   C29   A    
C34   H10   S    
O17   P3    D    
C31   H45   S    
Ba1   O10   S    
C30   H34   S    
C28   C30   S    
C35   H5    S    
C9    C11   A    
C16   H32   S    
Ba2   O29   S    
C33   O12   S    
O9    P8    S    
O1    P1    D    
O30   P4    S    
O10   P6    S    
C23   C34   S    
C28   H33   S    
H50   O26   S    
C4    H21   S    
C40   O20   S    
C19   C22   A    
C25   C26   A    
C20   H29   S    
C20   C21   A    
C16   O28   S    
C37   H41   S    
O2    P5    D    
Ba1   O1    S    
C12   O14   S    
C23   O7    S    
Ba1   O4    S    
C1    H14   S    
