data_mof_unit_66939.cif
_audit_creation_date              2013-03-05T15:57:29-0500
_audit_creation_method            fapswitch 2.2
_symmetry_space_group_name_H-M    P1
_symmetry_Int_Tables_number       1
_space_group_crystal_system       triclinic
_cell_length_a                    17.109891
_cell_length_b                    18.313331
_cell_length_c                    8.385702
_cell_angle_alpha                 90.000113
_cell_angle_beta                  101.811665
_cell_angle_gamma                 89.999747
_cell_volume                      2571.93146604

loop_
_atom_site_label
_atom_site_type_symbol
_atom_site_description
_atom_site_fract_x
_atom_site_fract_y
_atom_site_fract_z
_atom_type_partial_charge
P1    P     P_3+3 0.834140 0.419320 0.003900 0.452952
P2    P     P_3+3 0.834140 0.580680 0.503900 0.452951
P3    P     P_3+3 0.334140 0.919320 0.003900 0.452967
P4    P     P_3+3 0.334140 0.080680 0.503900 0.452960
O1    O     O_2   0.841960 0.394640 0.833410 -0.371282
O2    O     O_2   0.841960 0.605360 0.333410 -0.371273
O3    O     O_2   0.341960 0.894640 0.833410 -0.371299
O4    O     O_2   0.341960 0.105360 0.333410 -0.371288
O5    O     O_3   0.907950 0.463080 0.102990 -0.393746
O6    O     O_3   0.907950 0.536920 0.602990 -0.393743
O7    O     O_3   0.407950 0.963080 0.102990 -0.393668
O8    O     O_3   0.407950 0.036920 0.602990 -0.393676
O9    O     O_3   0.972780 0.329600 0.629720 -0.396809
O10   O     O_3   0.972780 0.670400 0.129720 -0.396807
O11   O     O_3   0.472780 0.829600 0.629720 -0.396889
O12   O     O_3   0.472780 0.170400 0.129720 -0.396897
O13   O     O_2   0.839852 0.271848 0.693167 -0.360619
O14   O     O_2   0.839854 0.728155 0.193171 -0.360612
O15   O     O_2   0.339834 0.771868 0.693137 -0.360525
O16   O     O_2   0.339836 0.228135 0.193140 -0.360509
O17   O     O_3   0.751015 0.477134 0.968656 -0.583912
O18   O     O_3   0.751014 0.522867 0.468651 -0.583921
O19   O     O_3   0.251014 0.977133 0.968656 -0.583923
O20   O     O_3   0.251014 0.022868 0.468650 -0.583934
O21   O     O_3   0.943995 0.177363 0.637804 -0.524659
O22   O     O_3   0.943997 0.822639 0.137798 -0.524612
O23   O     O_3   0.443961 0.677355 0.637838 -0.524384
O24   O     O_3   0.443961 0.322647 0.137831 -0.524319
H1    H     H_    0.062237 0.205333 0.720948 0.143458
H2    H     H_    0.062238 0.794687 0.221015 0.143487
H3    H     H_    0.562207 0.705300 0.721023 0.143462
H4    H     H_    0.562205 0.294711 0.221086 0.143492
C1    C     C_3   0.050794 0.100192 0.603238 -1.040460
C2    C     C_3   0.050795 0.899800 0.103179 -1.040527
C3    C     C_3   0.550750 0.600154 0.603335 -1.040254
C4    C     C_3   0.550758 0.399838 0.103308 -1.040298
H5    H     H_    0.614149 0.599092 0.591092 0.245606
H6    H     H_    0.614161 0.400893 0.091097 0.245621
H7    H     H_    0.114188 0.099143 0.590963 0.245628
H8    H     H_    0.114194 0.900844 0.090931 0.245652
H9    H     H_    0.043856 0.069316 0.713149 0.282289
H10   H     H_    0.043843 0.930706 0.213044 0.282294
H11   H     H_    0.543793 0.569286 0.713246 0.282216
H12   H     H_    0.543786 0.430727 0.213183 0.282219
P5    P     P_3+3 0.165830 0.418670 0.685610 0.484329
P6    P     P_3+3 0.165830 0.581330 0.185610 0.484249
P7    P     P_3+3 0.665830 0.918670 0.685610 0.484597
P8    P     P_3+3 0.665830 0.081330 0.185610 0.484549
P9    P     P_3+3 0.100846 0.262549 0.110156 0.514260
P10   P     P_3+3 0.100846 0.737451 0.610159 0.514255
P11   P     P_3+3 0.600838 0.762542 0.110157 0.514291
P12   P     P_3+3 0.600837 0.237458 0.610158 0.514281
O25   O     O_2   0.157990 0.394030 0.856030 -0.309094
O26   O     O_2   0.157990 0.605970 0.356030 -0.309138
O27   O     O_2   0.657990 0.894030 0.856030 -0.309290
O28   O     O_2   0.657990 0.105970 0.356030 -0.309312
O29   O     O_3   0.027110 0.329490 0.059550 -0.340003
O30   O     O_3   0.027110 0.670510 0.559550 -0.339933
O31   O     O_3   0.527110 0.829490 0.059550 -0.339730
O32   O     O_3   0.527110 0.170510 0.559550 -0.339692
O33   O     O_2   0.162656 0.274850 0.002114 -0.335897
O34   O     O_2   0.162656 0.725148 0.502119 -0.335943
O35   O     O_2   0.662638 0.774826 0.002084 -0.336160
O36   O     O_2   0.662636 0.225176 0.502080 -0.336198
O37   O     O_3   0.250005 0.475083 0.724185 -0.656431
O38   O     O_3   0.250007 0.524918 0.224209 -0.656405
O39   O     O_3   0.749999 0.975091 0.724077 -0.656489
O40   O     O_3   0.750000 0.024907 0.224093 -0.656477
O41   O     O_3   0.058409 0.178552 0.043299 -0.537009
O42   O     O_3   0.058410 0.821449 0.543305 -0.537017
O43   O     O_3   0.558373 0.678547 0.043361 -0.537053
O44   O     O_3   0.558370 0.321454 0.543374 -0.537065
C5    C     C_3   0.991773 0.165776 0.113435 0.458537
C6    C     C_3   0.991782 0.834228 0.613465 0.458510
C7    C     C_3   0.491727 0.665821 0.113500 0.458599
C8    C     C_3   0.491732 0.334179 0.613538 0.458569
H13   H     H_    0.936795 0.182136 0.025619 0.124243
H14   H     H_    0.936800 0.817829 0.525705 0.124208
H15   H     H_    0.436759 0.682222 0.025699 0.124202
H16   H     H_    0.436760 0.317747 0.525784 0.124172
H17   H     H_    0.993200 0.195629 0.229278 0.012404
H18   H     H_    0.993244 0.804411 0.729366 0.012385
H19   H     H_    0.493186 0.695675 0.229355 0.012359
H20   H     H_    0.493222 0.304350 0.729434 0.012348
C9    C     C_3   0.988587 0.084766 0.149104 -1.038156
C10   C     C_3   0.988566 0.915248 0.649015 -1.038002
C11   C     C_3   0.488466 0.584815 0.149164 -1.037923
C12   C     C_3   0.488445 0.415192 0.649119 -1.037783
H21   H     H_    0.437441 0.572929 0.208350 0.243196
H22   H     H_    0.437444 0.427072 0.708381 0.243180
H23   H     H_    0.937488 0.072812 0.208032 0.243254
H24   H     H_    0.937488 0.927203 0.707999 0.243233
H25   H     H_    0.982028 0.053436 0.033884 0.279899
H26   H     H_    0.981957 0.946544 0.533740 0.279896
H27   H     H_    0.481735 0.553484 0.033913 0.279925
H28   H     H_    0.481656 0.446497 0.533825 0.279927
C13   C     C_3   0.231059 0.458251 0.287925 1.238525
C14   C     C_3   0.231060 0.541748 0.787914 1.238254
C15   C     C_3   0.731062 0.958249 0.287859 1.237156
C16   C     C_3   0.731066 0.041747 0.787859 1.236942
H29   H     H_    0.198154 0.466454 0.387132 -0.001804
H30   H     H_    0.198241 0.533532 0.887254 -0.001744
H31   H     H_    0.698523 0.966508 0.387617 -0.001546
H32   H     H_    0.698574 0.033477 0.887698 -0.001514
C17   C     C_3   0.308362 0.418371 0.355791 -1.046957
C18   C     C_3   0.308363 0.581673 0.855544 -1.046600
C19   C     C_3   0.808357 0.918174 0.354724 -1.045597
C20   C     C_3   0.808367 0.081843 0.854595 -1.045238
H33   H     H_    0.340039 0.447997 0.465041 0.225359
H34   H     H_    0.340185 0.552014 0.964632 0.225285
H35   H     H_    0.840633 0.947931 0.463247 0.224970
H36   H     H_    0.840741 0.052052 0.963021 0.224928
H37   H     H_    0.296348 0.361716 0.390080 0.239217
H38   H     H_    0.296331 0.638296 0.890041 0.239082
H39   H     H_    0.796282 0.861662 0.389904 0.238726
H40   H     H_    0.796277 0.138333 0.889931 0.238602
H41   H     H_    0.346637 0.416477 0.263693 0.291859
H42   H     H_    0.346512 0.583661 0.763210 0.291929
H43   H     H_    0.846086 0.915879 0.261655 0.292169
H44   H     H_    0.846023 0.084208 0.761362 0.292203
Ba1   Ba    Ba6+2 1.000000 0.447380 0.844850 1.591480
Ba2   Ba    Ba6+2 0.000000 0.552620 0.344850 1.591466
Ba3   Ba    Ba6+2 0.500000 0.947380 0.844850 1.591567
Ba4   Ba    Ba6+2 0.500000 0.052620 0.344850 1.591562
C21   C     C_3   0.769862 0.544077 0.905596 0.371590
C22   C     C_3   0.769866 0.455919 0.405617 0.371581
C23   C     C_3   0.269861 0.044076 0.905594 0.371551
C24   C     C_3   0.269867 0.955918 0.405623 0.371537
H45   H     H_    0.763867 0.538235 0.772666 0.112652
H46   H     H_    0.763887 0.461754 0.272690 0.112654
H47   H     H_    0.263865 0.038234 0.772664 0.112662
H48   H     H_    0.263899 0.961753 0.272699 0.112667
H49   H     H_    0.830673 0.563769 0.961607 0.121064
H50   H     H_    0.830671 0.436224 0.461661 0.121082
H51   H     H_    0.330672 0.063769 0.961604 0.121056
H52   H     H_    0.330669 0.936220 0.461687 0.121083
C25   C     C_3   0.710478 0.600833 0.939037 -0.885603
C26   C     C_3   0.710471 0.399170 0.439039 -0.885611
C27   C     C_3   0.210477 0.100831 0.939037 -0.885513
C28   C     C_3   0.210463 0.899174 0.439026 -0.885500
H53   H     H_    0.650095 0.576630 0.923630 0.277823
H54   H     H_    0.650087 0.423376 0.423576 0.277815
H55   H     H_    0.150095 0.076627 0.923627 0.277817
H56   H     H_    0.150080 0.923384 0.423538 0.277803
H57   H     H_    0.708325 0.647822 0.855020 0.218536
H58   H     H_    0.708331 0.352173 0.355050 0.218547
H59   H     H_    0.208323 0.147821 0.855024 0.218529
H60   H     H_    0.208329 0.852175 0.355044 0.218534
H61   H     H_    0.728268 0.620505 0.065914 0.273351
H62   H     H_    0.728240 0.379512 0.565928 0.273344
H63   H     H_    0.228266 0.120500 0.065915 0.273348
H64   H     H_    0.228219 0.879518 0.565920 0.273334
O45   O     O_3   0.092100 0.536880 0.086720 -0.362714
O46   O     O_3   0.092100 0.463120 0.586720 -0.362605
O47   O     O_3   0.592100 0.036880 0.086720 -0.362066
O48   O     O_3   0.592100 0.963120 0.586720 -0.362003
P13   P     P_3+3 0.899937 0.738053 0.080077 0.461973
P14   P     P_3+3 0.899936 0.261948 0.580076 0.461925
P15   P     P_3+3 0.399930 0.238051 0.080078 0.462233
P16   P     P_3+3 0.399930 0.761950 0.580078 0.462166
C29   C     C_3   0.023162 0.178332 0.615284 0.486136
C30   C     C_3   0.023168 0.821664 0.115308 0.486129
C31   C     C_3   0.523134 0.678302 0.615352 0.485962
C32   C     C_3   0.523140 0.321693 0.115380 0.485938
H65   H     H_    0.029372 0.207043 0.501975 0.014306
H66   H     H_    0.029395 0.792925 0.002042 0.014316
H67   H     H_    0.529366 0.707005 0.502047 0.014298
H68   H     H_    0.529387 0.292969 0.002109 0.014309
H69   H     H_    0.513440 0.573439 0.495757 0.267776
H70   H     H_    0.513459 0.426534 0.995692 0.267763
H71   H     H_    0.013474 0.073480 0.495670 0.267760
H72   H     H_    0.013484 0.926487 0.995565 0.267745
H73   H     H_    0.544864 0.567729 0.231513 0.272964
H74   H     H_    0.544855 0.432311 0.731381 0.272962
H75   H     H_    0.044951 0.067744 0.231654 0.272951
H76   H     H_    0.044939 0.932311 0.731483 0.272949
C33   C     C_R   0.135888 0.678347 0.924228 -0.450875
C34   C     C_R   0.135887 0.321653 0.424225 -0.450944
C35   C     C_R   0.635883 0.178348 0.924230 -0.450651
C36   C     C_R   0.635880 0.821650 0.424230 -0.450687
C37   C     C_R   0.863822 0.322183 0.266475 -0.523150
C38   C     C_R   0.863823 0.677818 0.766474 -0.523155
C39   C     C_R   0.363823 0.822183 0.266476 -0.523225
C40   C     C_R   0.363823 0.177818 0.766474 -0.523227
C41   C     C_R   0.791533 0.211962 0.301243 -0.187158
C42   C     C_R   0.791532 0.788038 0.801243 -0.187143
C43   C     C_R   0.291535 0.711962 0.301243 -0.187041
C44   C     C_R   0.291533 0.288038 0.801242 -0.187020
C45   C     C_R   0.848491 0.264632 0.364286 0.208567
C46   C     C_R   0.848490 0.735369 0.864286 0.208562
C47   C     C_R   0.348492 0.764631 0.364285 0.208494
C48   C     C_R   0.348491 0.235369 0.864285 0.208486
C49   C     C_R   0.817074 0.333072 0.110883 0.278054
C50   C     C_R   0.817074 0.666928 0.610883 0.278048
C51   C     C_R   0.317075 0.833072 0.110884 0.278018
C52   C     C_R   0.317074 0.166928 0.610884 0.278009
C53   C     C_R   0.755410 0.281735 0.048139 -0.066177
C54   C     C_R   0.755409 0.718264 0.548138 -0.066173
C55   C     C_R   0.255411 0.781736 0.048140 -0.066192
C56   C     C_R   0.255410 0.218264 0.548139 -0.066187
C57   C     C_R   0.243170 0.719646 0.144114 -0.078961
C58   C     C_R   0.243168 0.280353 0.644113 -0.078970
C59   C     C_R   0.743168 0.219645 0.144112 -0.078896
C60   C     C_R   0.743167 0.780354 0.644111 -0.078897
C61   C     C_R   0.181994 0.668003 0.080462 0.209766
C62   C     C_R   0.181992 0.331997 0.580460 0.209811
C63   C     C_R   0.681992 0.168003 0.080459 0.209460
C64   C     C_R   0.681990 0.831997 0.580458 0.209504
C65   C     C_R   0.150867 0.736139 0.827016 0.251284
C66   C     C_R   0.150866 0.263860 0.327014 0.251321
C67   C     C_R   0.650866 0.236139 0.827013 0.251246
C68   C     C_R   0.650864 0.763859 0.327014 0.251250
C69   C     C_R   0.207179 0.789255 0.890936 -0.222900
C70   C     C_R   0.207178 0.210743 0.390935 -0.222896
C71   C     C_R   0.707178 0.289255 0.890933 -0.222955
C72   C     C_R   0.707177 0.710744 0.390933 -0.222963
H77   H     H_    0.284982 0.666341 0.378631 0.201047
H78   H     H_    0.284981 0.333659 0.878629 0.201092
H79   H     H_    0.784980 0.166342 0.378633 0.200768
H80   H     H_    0.784979 0.833659 0.878632 0.200795
H81   H     H_    0.713534 0.335128 0.814633 0.178549
H82   H     H_    0.713533 0.664871 0.314632 0.178557
H83   H     H_    0.213534 0.835129 0.814635 0.178534
H84   H     H_    0.213533 0.164869 0.314634 0.178539
H85   H     H_    0.091114 0.638358 0.873391 0.177510
H86   H     H_    0.091114 0.361642 0.373387 0.177440
H87   H     H_    0.591106 0.138361 0.873399 0.177733
H88   H     H_    0.591103 0.861637 0.373399 0.177690
H89   H     H_    0.909683 0.361391 0.316066 0.170253
H90   H     H_    0.909686 0.638611 0.816063 0.170258
H91   H     H_    0.409683 0.861393 0.316069 0.170265
H92   H     H_    0.409686 0.138610 0.816065 0.170269
F1    F     F_    0.185933 0.416495 0.166605 -0.667091
F2    F     F_    0.185834 0.583472 0.666654 -0.667056
F3    F     F_    0.685516 0.916632 0.166802 -0.666931
F4    F     F_    0.685462 0.083350 0.666834 -0.666909

loop_
_geom_bond_atom_site_label_1
_geom_bond_atom_site_label_2
_geom_bond_distance
_ccdc_geom_bond_type
P6    C61   1.863662 S    
C15   H31   1.106046 S    
C12   H28   1.109477 S    
P1    O17   1.749019 S    
P5    C62   1.863663 S    
O10   Ba2   2.789236 S    
O1    Ba1   2.854428 S    
C20   H44   1.111049 S    
P3    O19   1.749015 S    
O7    Ba4   2.824027 S    
C2    H10   1.108210 S    
C16   F4    1.376624 S    
P8    O28   1.530487 D    
P4    O4    1.531170 D    
O6    Ba1   2.824023 S    
C54   C72   1.411547 A    
C28   H60   1.107973 S    
C9    H23   1.110566 S    
C54   C60   1.433006 A    
C12   H74   1.110462 S    
Ba3   Ba4   4.614595 S    
C70   H84   1.074931 S    
Ba3   O47   2.824003 S    
C26   H62   1.105360 S    
C34   C66   1.391378 A    
C1    H7    1.110493 S    
O11   Ba3   2.789234 S    
P7    C64   1.863658 S    
C18   H38   1.107128 S    
C29   H65   1.109919 S    
P1    O1    1.531167 D    
O15   P16   1.545376 D    
O28   Ba4   2.857772 S    
O38   C13   1.397180 S    
C25   H57   1.107979 S    
C3    H5    1.110492 S    
C23   H51   1.110484 S    
O37   C14   1.397169 S    
P6    O38   1.748011 S    
P3    O3    1.531167 D    
C24   H52   1.110486 S    
C43   H77   1.077735 S    
P4    O20   1.749016 S    
O18   C22   1.398720 S    
P7    O48   1.585388 S    
C22   H46   1.103509 S    
C33   C61   1.396968 A    
C21   H49   1.110487 S    
C35   C67   1.391388 A    
C16   H32   1.106111 S    
P9    O29   1.747987 S    
P4    Ba4   3.412599 S    
O22   P13   1.747216 S    
O32   Ba4   2.788519 S    
C33   C65   1.391378 A    
C36   C68   1.391390 A    
P13   C46   1.843812 S    
C17   H33   1.106405 S    
C10   H26   1.109479 S    
O23   C31   1.405515 S    
C30   H66   1.109925 S    
P5    O37   1.748003 S    
C9    H25   1.109482 S    
P11   C68   1.844697 S    
C38   H90   1.081964 S    
C10   H24   1.110556 S    
C60   C64   1.430478 A    
P10   C65   1.844680 S    
O21   C29   1.405507 S    
O16   P15   1.545377 D    
C11   H27   1.109482 S    
P9    C66   1.844680 S    
P2    O18   1.749021 S    
P12   C67   1.844699 S    
C39   C51   1.398086 A    
C40   C48   1.393004 A    
O41   C5    1.405370 S    
C38   C50   1.398089 A    
P4    O8    1.580489 S    
C3    H11   1.108214 S    
C8    C12   1.516622 S    
C43   C47   1.395940 A    
C53   C71   1.411545 A    
C52   C56   1.430592 A    
C13   C17   1.516078 S    
C33   H85   1.082225 S    
C28   H56   1.107199 S    
O26   Ba2   2.857772 S    
P7    O27   1.530489 D    
P5    O25   1.530489 D    
P9    O41   1.743880 S    
C18   H42   1.110763 S    
O12   P15   1.746261 S    
Ba2   O46   2.824000 S    
C17   H41   1.110659 S    
P2    O2    1.531170 D    
P11   O43   1.743903 S    
C6    H18   1.110612 S    
C24   H48   1.103509 S    
C19   H43   1.110791 S    
P3    Ba3   3.412603 S    
C51   C55   1.430596 A    
Ba3   O48   2.940789 S    
P2    Ba2   3.412599 S    
O31   Ba3   2.788521 S    
H4    C32   1.110892 S    
C11   H73   1.110461 S    
H3    C31   1.110896 S    
C8    H20   1.110611 S    
O30   Ba2   2.788519 S    
C16   C20   1.516140 S    
Ba1   O46   2.940789 S    
O10   P13   1.746216 S    
C42   C60   1.412238 A    
P10   O30   1.747989 S    
C68   C72   1.396571 A    
C32   H68   1.109921 S    
C2    H72   1.106751 S    
P11   O35   1.543479 D    
C40   H92   1.081964 S    
C26   H54   1.107195 S    
P14   C45   1.843803 S    
C37   H89   1.081964 S    
O20   C24   1.398717 S    
C37   C45   1.393004 A    
O4    Ba4   2.854420 S    
P5    Ba1   3.414838 S    
O23   P16   1.747230 S    
C40   C52   1.398089 A    
C42   H80   1.077735 S    
O22   C30   1.405514 S    
O24   P15   1.747241 S    
P3    C51   1.868730 S    
C20   H36   1.106787 S    
P2    C50   1.868728 S    
C3    C31   1.516951 S    
C42   C46   1.395945 A    
C1    C29   1.516922 S    
O42   C6    1.405378 S    
P12   O44   1.743902 S    
C14   H30   1.106071 S    
C27   H63   1.105362 S    
O9    Ba1   2.789234 S    
P7    Ba3   3.414838 S    
C14   F2    1.376407 S    
C35   C63   1.396961 A    
C31   H67   1.109920 S    
C13   F1    1.376350 S    
P6    O26   1.530487 D    
O5    Ba2   2.824027 S    
C25   H53   1.107204 S    
P1    O5    1.580493 S    
O44   C8    1.405398 S    
P7    O39   1.747996 S    
C6    C10   1.516612 S    
O13   P14   1.545384 D    
C5    C9    1.516602 S    
Ba1   Ba2   4.614595 S    
Ba1   O45   2.824003 S    
O39   C16   1.397151 S    
C5    H17   1.110606 S    
C56   C70   1.411547 A    
C27   H59   1.107978 S    
C7    C11   1.516621 S    
C25   H61   1.105367 S    
P8    O47   1.585392 S    
C12   H22   1.110531 S    
C15   F3    1.376524 S    
Ba4   O48   2.824000 S    
C53   C59   1.433008 A    
P12   O36   1.543480 D    
P10   O34   1.543467 D    
Ba2   O45   2.940788 S    
C2    H8    1.110489 S    
C4    H12   1.108218 S    
P11   O31   1.747974 S    
O2    Ba2   2.854420 S    
O17   C21   1.398720 S    
C1    H71   1.106751 S    
O27   Ba3   2.857765 S    
C39   H91   1.081964 S    
O9    P14   1.746209 S    
C37   C49   1.398087 A    
O24   C32   1.405522 S    
C55   C57   1.433007 A    
C18   H34   1.106508 S    
C17   H37   1.107089 S    
P4    C52   1.868724 S    
P6    O45   1.585392 S    
C28   H64   1.105363 S    
C22   C26   1.519198 S    
C57   C61   1.430469 A    
C41   H79   1.077735 S    
P1    Ba1   3.412603 S    
C58   C62   1.430468 A    
C55   C69   1.411543 A    
C19   H35   1.106518 S    
P15   C48   1.843798 S    
C8    H16   1.110572 S    
P16   C47   1.843789 S    
O3    Ba3   2.854428 S    
C2    C30   1.516933 S    
C39   C47   1.393005 A    
P8    Ba4   3.414843 S    
C41   C45   1.395949 A    
C44   H78   1.077733 S    
H2    C30   1.110893 S    
C15   C19   1.516054 S    
C43   C57   1.412222 A    
O19   C23   1.398719 S    
C4    H70   1.106759 S    
C14   C18   1.516089 S    
P8    O40   1.748009 S    
C65   C69   1.396565 A    
C44   C48   1.395940 A    
C21   C25   1.519201 S    
C20   H40   1.107213 S    
C23   H47   1.103511 S    
C4    H6    1.110491 S    
C67   C71   1.396571 A    
O12   Ba4   2.789236 S    
O40   C15   1.397164 S    
C1    H9    1.108201 S    
O11   P16   1.746253 S    
O14   P13   1.545385 D    
O25   Ba1   2.857765 S    
C41   C59   1.412234 A    
O43   C7    1.405395 S    
C69   H83   1.074928 S    
P9    O33   1.543466 D    
C7    H19   1.110614 S    
C50   C54   1.430599 A    
O8    Ba3   2.824023 S    
C59   C63   1.430481 A    
C26   H58   1.107973 S    
C49   C53   1.430600 A    
C34   C62   1.396972 A    
P8    C63   1.863656 S    
C44   C58   1.412226 A    
C9    H75   1.110461 S    
C3    H69   1.106762 S    
C36   H88   1.082223 S    
C19   H39   1.107131 S    
C10   H76   1.110460 S    
C35   H87   1.082225 S    
C72   H82   1.074930 S    
P10   O42   1.743880 S    
C34   H86   1.082225 S    
P3    O7    1.580493 S    
O29   Ba1   2.788521 S    
C21   H45   1.103512 S    
C22   H50   1.110484 S    
P12   O32   1.747975 S    
C6    H14   1.110570 S    
Ba4   O47   2.940788 S    
O21   P14   1.747204 S    
C4    C32   1.516957 S    
C11   H21   1.110535 S    
C5    H13   1.110551 S    
P1    C49   1.868734 S    
P6    Ba2   3.414843 S    
C27   H55   1.107197 S    
P5    O46   1.585388 S    
C38   C46   1.393006 A    
H1    C29   1.110894 S    
C66   C70   1.396565 A    
C36   C64   1.396963 A    
C7    H15   1.110564 S    
C23   C27   1.519195 S    
C56   C58   1.433005 A    
C13   H29   1.106058 S    
C71   H81   1.074928 S    
C24   C28   1.519193 S    
P2    O6    1.580489 S    
