data_mof_unit_52189.cif
_audit_creation_date              2012-12-10T19:00:13-0500
_audit_creation_method            fapswitch 2.2
_symmetry_space_group_name_H-M    P1
_symmetry_Int_Tables_number       1
_space_group_crystal_system       triclinic
_cell_length_a                    9.57647
_cell_length_b                    10.845231
_cell_length_c                    13.433495
_cell_angle_alpha                 91.669741
_cell_angle_beta                  72.431332
_cell_angle_gamma                 90.33995
_cell_volume                      1329.5415677

loop_
_atom_site_label
_atom_site_type_symbol
_atom_type_description
_atom_site_fract_x
_atom_site_fract_y
_atom_site_fract_z
_atom_type_partial_charge
C1    C     C_R   0.501258 0.737109 0.497579 0.845658
C2    C     C_R   0.436462 0.483357 0.978431 0.084588
C3    C     C_R   0.471928 0.453645 0.870305 0.084883
C4    C     C_R   0.545439 0.468009 0.029465 0.070016
C5    C     C_R   0.682958 0.413009 0.974531 0.116432
C6    C     C_R   0.709092 0.371573 0.870399 -0.035733
C7    C     C_R   0.602954 0.388843 0.820822 -0.205374
C8    C     C_R   0.521950 0.506993 0.133772 -0.229199
C9    C     C_R   0.759242 0.430563 0.131357 -0.203485
C10   C     C_R   0.374050 0.488162 0.814702 -0.094303
C11   C     C_R   0.378513 0.937297 0.501425 0.046780
C12   C     C_R   0.421450 0.493140 0.699839 0.828622
C13   C     C_R   0.504618 0.869568 0.491963 -0.122069
C14   C     C_R   0.636602 0.935334 0.476648 -0.145890
C15   C     C_R   0.636203 0.064722 0.477765 -0.207951
C16   C     C_R   0.503848 0.130016 0.492998 -0.087916
C17   C     C_R   0.378143 0.061578 0.502216 0.093184
C18   C     C_3   0.216359 0.070649 0.523732 -0.465449
C19   C     C_3   0.216629 0.928285 0.523351 -0.201887
C20   C     C_R   0.947780 0.409261 0.447381 0.183934
C21   C     C_R   0.903343 0.581808 0.563171 0.477438
C22   C     C_R   0.052155 0.580193 0.560959 -0.105769
C23   C     C_R   0.500580 0.262768 0.498295 0.786597
C24   C     C_R   0.094698 0.408993 0.447725 0.251842
C25   C     C_3   0.148603 0.378129 0.333682 -0.472686
C26   C     C_3   0.990476 0.379904 0.333197 -0.496518
C27   C     C_R   0.578670 0.498234 0.299964 0.782559
C28   C     C_R   0.789663 0.397804 0.026164 -0.179434
C29   C     C_R   0.623843 0.482634 0.186065 -0.040780
C30   C     C_R   0.232968 0.530370 0.869897 -0.172949
C31   C     C_R   0.191662 0.545603 0.977682 -0.144846
C32   C     C_R   0.292374 0.525345 0.031475 -0.171295
Cu1   Cu    Cu3+1 0.359330 0.500020 0.500010 0.960770
Cu2   Cu    Cu3+1 0.640670 0.499980 0.499990 1.002584
H1    H     H_    0.839501 0.410587 0.170464 0.146838
H2    H     H_    0.738828 0.112846 0.467479 0.171477
H3    H     H_    0.161779 0.113196 0.602007 0.222318
H4    H     H_    0.186412 0.111958 0.458082 0.189995
H5    H     H_    0.160352 0.888207 0.600311 0.186580
H6    H     H_    0.092894 0.646500 0.607187 0.181891
H7    H     H_    0.214350 0.453210 0.287799 0.211877
H8    H     H_    0.199644 0.285010 0.317235 0.192501
H9    H     H_    0.967138 0.457348 0.288248 0.210633
H10   H     H_    0.949988 0.288058 0.315597 0.195478
H11   H     H_    0.895352 0.356623 0.986736 0.152260
H12   H     H_    0.424263 0.556157 0.177068 0.142503
H13   H     H_    0.155153 0.554629 0.829498 0.175261
H14   H     H_    0.252364 0.540717 0.114777 0.126031
H15   H     H_    0.082073 0.577274 0.019638 0.155621
H16   H     H_    0.623210 0.347517 0.743529 0.160770
H17   H     H_    0.739484 0.887569 0.464332 0.212226
N1    N     N_R   0.852320 0.499070 0.499340 -0.256309
N2    N     N_R   0.148230 0.499110 0.499340 -0.221874
O1    O     O_R   0.381190 0.680360 0.500000 -0.595816
O2    O     O_R   0.618780 0.680320 0.499990 -0.516660
O3    O     O_R   0.323230 0.500000 0.650990 -0.586600
O4    O     O_R   0.560820 0.499960 0.650980 -0.522347
O5    O     O_R   0.381220 0.319680 0.500010 -0.573813
O6    O     O_R   0.618810 0.319640 0.500000 -0.599063
O7    O     O_R   0.439180 0.500040 0.349020 -0.584889
O8    O     O_R   0.676770 0.500000 0.349010 -0.590766
C33   C     C_1   0.176626 0.870995 0.435166 0.358592
N3    N     N_1   0.145067 0.825652 0.365935 -0.300562
S1    S     S_3+6 0.805694 0.704014 0.648882 0.002089
O9    O     O_2   0.846634 0.696931 0.748222 -0.324615
O10   O     O_2   0.865138 0.823099 0.598763 -0.352786
O11   O     O_3   0.622577 0.713208 0.684663 -0.502820
H18   H     H_    0.597548 0.790896 0.726871 0.362787
C34   C     C_1   0.844484 0.311330 0.811463 0.235862
N4    N     N_1   0.952827 0.263437 0.764141 -0.297027

loop_
_geom_bond_atom_site_label_1
_geom_bond_atom_site_label_2
_ccdc_geom_bond_type
C25   H8    S    
C6    C34   S    
C2    C4    A    
C1    O1    A    
C6    C7    A    
C27   C29   S    
C5    C28   A    
C11   C13   A    
C10   C30   A    
Cu2   N1    S    
C14   H17   S    
C9    C29   A    
C30   C31   A    
C4    C8    A    
C23   O5    A    
C22   H6    S    
S1    O9    D    
Cu1   O3    S    
C2    C3    A    
C1    O2    A    
C26   H10   S    
Cu2   O2    S    
C20   N1    A    
C3    C10   A    
C12   O3    A    
C21   C22   A    
C24   C25   S    
C23   O6    A    
C32   H14   S    
C11   C19   S    
Cu1   O5    S    
C20   C26   S    
C31   H15   S    
Cu2   O4    S    
C8    C29   A    
C19   H5    S    
C2    C32   A    
C18   H3    S    
C26   H9    S    
Cu1   Cu2   S    
Cu1   O7    S    
C3    C7    A    
C34   N4    T    
Cu2   O8    S    
C27   O7    A    
C18   H4    S    
C5    C6    A    
C10   C12   S    
C31   C32   A    
C8    H12   S    
C28   H11   S    
C1    C13   S    
C12   O4    A    
C19   C33   S    
O11   H18   S    
S1    O11   S    
C20   C24   A    
C30   H13   S    
C4    C5    A    
C16   C17   A    
C16   C23   S    
C22   N2    A    
C17   C18   S    
C18   C19   S    
C25   H7    S    
Cu1   O1    S    
C9    H1    S    
C24   N2    A    
C14   C15   A    
C15   H2    S    
C21   S1    S    
C27   O8    A    
C25   C26   S    
C13   C14   A    
Cu2   O6    S    
C9    C28   A    
C21   N1    A    
C11   C17   A    
C33   N3    T    
C15   C16   A    
C7    H16   S    
Cu1   N2    S    
S1    O10   D    
