data_mof_unit_59280.cif
_audit_creation_date              2012-12-10T18:58:43-0500
_audit_creation_method            fapswitch 2.2
_symmetry_space_group_name_H-M    P1
_symmetry_Int_Tables_number       1
_space_group_crystal_system       triclinic
_cell_length_a                    13.075798
_cell_length_b                    10.830772
_cell_length_c                    9.566283
_cell_angle_alpha                 90.488251
_cell_angle_beta                  95.622073
_cell_angle_gamma                 91.406041
_cell_volume                      1347.78232768

loop_
_atom_site_label
_atom_site_type_symbol
_atom_type_description
_atom_site_fract_x
_atom_site_fract_y
_atom_site_fract_z
_atom_type_partial_charge
C1    C     C_R   0.496530 0.262463 0.498958 0.818100
C2    C     C_R   0.028609 0.493293 0.563783 0.064732
C3    C     C_R   0.973975 0.483930 0.429085 0.074452
C4    C     C_R   0.865856 0.484259 0.416431 0.270367
C5    C     C_R   0.869183 0.488464 0.673399 0.347759
C6    C     C_R   0.976552 0.494048 0.683938 -0.304680
C7    C     C_R   0.491070 0.065817 0.622591 0.179327
C8    C     C_R   0.482056 0.129581 0.497084 -0.255088
C9    C     C_R   0.449160 0.063957 0.372879 -0.185823
C10   C     C_R   0.440729 0.934565 0.373507 0.434913
C11   C     C_R   0.474217 0.870281 0.498623 -0.219099
C12   C     C_R   0.301022 0.498377 0.474109 0.777875
C13   C     C_R   0.487694 0.939036 0.623968 0.012919
C14   C     C_3   0.565911 0.936290 0.748823 -0.489805
C15   C     C_3   0.570699 0.076423 0.744516 0.228563
C16   C     C_R   0.585164 0.538706 0.085020 0.210127
C17   C     C_R   0.420330 0.449588 0.064533 -0.076578
C18   C     C_R   0.420582 0.446684 0.916620 0.481443
C19   C     C_R   0.586388 0.535284 0.937922 0.184499
C20   C     C_3   0.642597 0.655865 0.935804 -0.552783
C21   C     C_3   0.636576 0.664317 0.093487 0.186097
C22   C     C_R   0.493096 0.737539 0.499538 0.812397
C23   C     C_R   0.699620 0.496004 0.525591 0.871165
C24   C     C_R   0.813052 0.488770 0.539055 -0.149100
C25   C     C_R   0.189191 0.493053 0.458532 -0.046613
C26   C     C_R   0.029097 0.472322 0.310529 -0.175080
C27   C     C_R   0.135621 0.478153 0.325255 -0.195737
C28   C     C_R   0.135504 0.499033 0.577522 -0.185483
Cu1   Cu    Cu3+1 0.499990 0.499980 0.640670 0.986254
Cu2   Cu    Cu3+1 0.500010 0.500020 0.359330 0.989707
H1    H     H_    0.638729 0.893160 0.725433 0.165605
H2    H     H_    0.355878 0.408980 0.111964 0.161925
H3    H     H_    0.722335 0.647010 0.907691 0.219767
H4    H     H_    0.712615 0.667397 0.155875 0.157164
H5    H     H_    0.991596 0.457297 0.205751 0.146641
H6    H     H_    0.019744 0.497261 0.786719 0.149298
H7    H     H_    0.430377 0.112422 0.275457 0.196353
N1    N     N_R   0.500660 0.500930 0.148010 -0.226652
N2    N     N_R   0.500660 0.500890 0.852110 -0.235041
O1    O     O_R   0.500000 0.319640 0.618810 -0.579259
O2    O     O_R   0.500010 0.319680 0.381230 -0.578858
O3    O     O_R   0.348990 0.499960 0.599490 -0.578395
O4    O     O_R   0.349000 0.500000 0.361910 -0.611183
O5    O     O_R   0.499990 0.680320 0.618770 -0.585867
O6    O     O_R   0.500000 0.680360 0.381190 -0.529907
O7    O     O_R   0.651000 0.500000 0.638090 -0.530384
O8    O     O_R   0.651010 0.500040 0.400510 -0.530993
O9    O     O_3   0.810577 0.476937 0.285916 -0.720897
H8    H     H_    0.844131 0.532531 0.221654 0.299055
O10   O     O_3   0.531244 0.131277 0.860362 -0.684594
H9    H     H_    0.588612 0.134075 0.936388 0.338336
H10   H     H_    0.645190 0.117844 0.718237 0.104900
O11   O     O_3   0.338978 0.386583 0.841964 -0.737664
H11   H     H_    0.366766 0.339790 0.766066 0.376873
H12   H     H_    0.597029 0.723043 0.873264 0.214556
O12   O     O_3   0.572680 0.758983 0.131890 -0.651226
H13   H     H_    0.505632 0.750674 0.073555 0.353279
O13   O     O_3   0.818307 0.481517 0.793122 -0.725123
H14   H     H_    0.868965 0.481419 0.877387 0.315377
H15   H     H_    0.175920 0.469980 0.232045 0.159029
H16   H     H_    0.176743 0.507942 0.681262 0.188883
O14   O     O_3   0.400803 0.876045 0.251099 -0.697689
H17   H     H_    0.363888 0.799798 0.276500 0.326208
H18   H     H_    0.531153 0.902437 0.843165 0.235656

loop_
_geom_bond_atom_site_label_1
_geom_bond_atom_site_label_2
_ccdc_geom_bond_type
C21   O12   S    
C12   O3    A    
C18   N2    A    
Cu2   O2    S    
C16   C21   S    
C13   C14   S    
Cu1   O3    S    
C25   C27   A    
C1    C8    S    
C9    C10   A    
C14   H1    S    
C11   C22   S    
C19   C20   S    
C18   O11   S    
C12   C25   S    
Cu1   O7    S    
C27   H15   S    
C14   H18   S    
C28   H16   S    
Cu1   N2    S    
C7    C15   S    
O10   H9    S    
C7    C8    A    
C23   O7    A    
C2    C6    A    
O11   H11   S    
C10   O14   S    
C25   C28   A    
C11   C13   A    
C26   C27   A    
O14   H17   S    
C5    C24   A    
C19   N2    A    
C5    O13   S    
C20   H12   S    
C20   H3    S    
Cu1   O1    S    
C9    H7    S    
O9    H8    S    
C6    H6    S    
C17   C18   A    
C12   O4    A    
C2    C3    A    
C17   N1    A    
C16   C19   A    
Cu1   O5    S    
C5    C6    A    
C4    C24   A    
Cu2   O4    S    
C23   O8    A    
C10   C11   A    
C23   C24   S    
Cu1   Cu2   S    
C3    C4    A    
C26   H5    S    
C7    C13   A    
C22   O6    A    
C20   C21   S    
Cu2   N1    S    
C4    O9    S    
C15   O10   S    
C1    O2    A    
O12   H13   S    
C17   H2    S    
C14   C15   S    
C2    C28   A    
C21   H4    S    
Cu2   O6    S    
C1    O1    A    
O13   H14   S    
C15   H10   S    
Cu2   O8    S    
C3    C26   A    
C22   O5    A    
C16   N1    A    
C8    C9    A    
