data_mof_unit_68190.cif
_audit_creation_date              2013-03-05T16:03:13-0500
_audit_creation_method            fapswitch 2.2
_symmetry_space_group_name_H-M    P1
_symmetry_Int_Tables_number       1
_space_group_crystal_system       triclinic
_cell_length_a                    7.000669
_cell_length_b                    14.335283
_cell_length_c                    16.352114
_cell_angle_alpha                 91.124925
_cell_angle_beta                  90.423421
_cell_angle_gamma                 89.841202
_cell_volume                      1640.67534622

loop_
_atom_site_label
_atom_site_type_symbol
_atom_site_description
_atom_site_fract_x
_atom_site_fract_y
_atom_site_fract_z
_atom_type_partial_charge
O1    O     O_R   0.361630 0.167340 0.164570 -0.593499
O2    O     O_R   0.638370 0.832660 0.835430 -0.588511
O3    O     O_R   0.690860 0.157560 0.338690 -0.569478
O4    O     O_R   0.309140 0.842440 0.661310 -0.567640
O5    O     O_R   0.861260 0.336420 0.339380 -0.580794
O6    O     O_R   0.138740 0.663580 0.660620 -0.581085
C1    C     C_R   0.522102 0.133673 0.367092 0.969346
C2    C     C_R   0.477844 0.866132 0.632715 0.968593
O7    O     O_R   0.691330 0.156310 0.165190 -0.572606
O8    O     O_R   0.308670 0.843690 0.834810 -0.575985
O9    O     O_R   0.861730 0.335160 0.164640 -0.534907
O10   O     O_R   0.138270 0.664840 0.835360 -0.537267
C3    C     C_R   0.521679 0.135431 0.135672 0.986762
C4    C     C_R   0.478569 0.864737 0.864271 0.991687
O11   O     O_R   0.361150 0.168600 0.339320 -0.564720
O12   O     O_R   0.638850 0.831400 0.660680 -0.567309
O13   O     O_3   0.527950 0.310560 0.252000 -0.254900
O14   O     O_3   0.472050 0.689440 0.748000 -0.253602
V1    V     V_3+5 0.802770 0.240990 0.251980 1.273671
V2    V     V_3+5 0.197230 0.759010 0.748020 1.274903
O15   O     O_R   0.191450 0.346190 0.165260 -0.587850
O16   O     O_R   0.808550 0.653810 0.834740 -0.582757
C5    C     C_R   0.021726 0.368963 0.137054 0.900555
C6    C     C_R   0.978358 0.630639 0.862625 0.910174
O17   O     O_R   0.190980 0.347440 0.338770 -0.576680
O18   O     O_R   0.809020 0.652560 0.661230 -0.577372
C7    C     C_R   0.022938 0.364838 0.370864 1.073559
C8    C     C_R   0.977051 0.635284 0.629055 1.072714
V3    V     V_3+5 0.302780 0.262760 0.251980 1.249007
V4    V     V_3+5 0.697220 0.737240 0.748020 1.250786
O19   O     O_3   0.027730 0.193200 0.251960 -0.273858
O20   O     O_3   0.972270 0.806800 0.748040 -0.275164
C9    C     C_3   0.974561 0.414447 0.529883 -0.133157
C10   C     C_3   0.025450 0.585714 0.469974 -0.132969
C11   C     C_3   0.136076 0.483035 0.555640 -0.114240
C12   C     C_3   0.863929 0.517116 0.444215 -0.115244
H1    H     H_    0.255098 0.468079 0.598386 0.171438
H2    H     H_    0.744925 0.531942 0.401410 0.171560
H3    H     H_    0.952454 0.343880 0.554914 0.187644
H4    H     H_    0.047615 0.656272 0.444937 0.188598
C13   C     C_3   0.989008 0.563488 0.560052 -0.083787
C14   C     C_3   0.011003 0.436677 0.439812 -0.085038
C15   C     C_3   0.827745 0.495530 0.534912 -0.069671
C16   C     C_3   0.172266 0.504626 0.464958 -0.069575
H5    H     H_    0.684370 0.491858 0.563286 0.149295
H6    H     H_    0.315721 0.508285 0.436657 0.150123
H7    H     H_    0.066364 0.306304 0.757876 0.189673
H8    H     H_    0.946561 0.694104 0.241740 0.187270
C17   C     C_R   0.978890 0.698628 0.036244 -0.192083
C18   C     C_R   0.023934 0.300934 0.963009 -0.205994
C19   C     C_R   0.973399 0.732186 0.117926 -0.167913
C20   C     C_R   0.035506 0.267242 0.881436 -0.166256
C21   C     C_R   0.958244 0.668770 0.178796 -0.163078
C22   C     C_R   0.053479 0.331063 0.820912 -0.166880
C23   C     C_R   0.963364 0.573856 0.162576 -0.156038
C24   C     C_R   0.044112 0.425960 0.837215 -0.153851
C25   C     C_R   0.983304 0.534784 0.081996 0.079693
C26   C     C_R   0.019200 0.464778 0.917610 0.080110
C27   C     C_R   0.982854 0.599288 0.015948 0.131200
C28   C     C_R   0.018242 0.400202 0.983556 0.128913
C29   C     C_R   0.006934 0.435661 0.066597 -0.293235
C30   C     C_R   0.993515 0.563800 0.932965 -0.297004
C31   C     C_3   0.360660 0.981059 0.443665 -0.185539
C32   C     C_3   0.639190 0.018493 0.555820 -0.188867
C33   C     C_3   0.521449 0.912759 0.470619 -0.221848
C34   C     C_3   0.478334 0.086789 0.528880 -0.222632
H9    H     H_    0.252266 0.962438 0.396623 0.244768
H10   H     H_    0.747186 0.037033 0.603027 0.237357
C35   C     C_3   0.489160 0.938105 0.562340 -0.364673
C36   C     C_3   0.510632 0.061454 0.437204 -0.367282
C37   C     C_3   0.332213 0.006980 0.535393 0.452271
C38   C     C_3   0.667586 0.992565 0.464063 0.453545
H11   H     H_    0.509381 0.820257 0.241372 0.205205
H12   H     H_    0.508833 0.179845 0.758713 0.202968
C39   C     C_R   0.477883 0.192510 0.965814 -0.091516
C40   C     C_R   0.533961 0.808140 0.034043 -0.065992
C41   C     C_R   0.493656 0.223673 0.885550 -0.128848
C42   C     C_R   0.520392 0.776730 0.114344 -0.144296
C43   C     C_R   0.500186 0.157887 0.821396 -0.088330
C44   C     C_R   0.514484 0.842352 0.178628 -0.097744
C45   C     C_R   0.492463 0.062875 0.837033 -0.123666
C46   C     C_R   0.515304 0.937408 0.162939 -0.130884
C47   C     C_R   0.490114 0.030431 0.918047 0.063891
C48   C     C_R   0.513164 0.969884 0.081884 0.070153
C49   C     C_R   0.491027 0.096661 0.983994 0.213393
C50   C     C_R   0.514267 0.903733 0.015890 0.206481
C51   C     C_R   0.493674 0.933754 0.933768 -0.263045
C52   C     C_R   0.507824 0.066511 0.066181 -0.249766
H13   H     H_    0.464028 0.244106 0.014653 0.174658
H14   H     H_    0.549497 0.756752 0.985132 0.176293
H15   H     H_    0.495061 0.015257 0.784863 0.095658
H16   H     H_    0.512357 0.984960 0.215149 0.096883
N1    N     N_R   0.147711 0.013588 0.575231 0.244731
O21   O     O_R   0.040377 0.939955 0.578854 -0.388400
O22   O     O_R   0.095246 0.090601 0.611957 -0.365656
N2    N     N_R   0.851593 0.986041 0.423735 0.242649
O23   O     O_R   0.959387 0.059561 0.420669 -0.386099
O24   O     O_R   0.899925 0.910476 0.383686 -0.379370
C53   C     C_2   0.505327 0.324918 0.869194 1.012921
O25   O     O_2   0.506055 0.352107 0.798799 -0.640389
O26   O     O_R   0.515242 0.389709 0.934189 -0.800420
H17   H     H_    0.522793 0.456452 0.915066 0.343228
C54   C     C_2   0.508583 0.675428 0.130536 1.018586
O27   O     O_2   0.506097 0.648101 0.200883 -0.638214
O28   O     O_R   0.499410 0.610773 0.065418 -0.799968
H18   H     H_    0.491372 0.543995 0.084412 0.342911
C55   C     C_2   0.034809 0.768103 0.978240 1.033120
O29   O     O_2   0.201932 0.772720 0.962001 -0.674071
O30   O     O_R   0.904675 0.830795 0.945611 -0.763918
H19   H     H_    0.968101 0.877693 0.909184 0.337073
C56   C     C_2   0.976567 0.230477 0.021306 1.059832
O31   O     O_2   0.811873 0.225172 0.041345 -0.647017
O32   O     O_R   0.108664 0.163902 0.045664 -0.798149
H20   H     H_    0.050819 0.116461 0.083167 0.336352
C57   C     C_2   0.995630 0.832755 0.144161 1.011650
O33   O     O_2   0.056948 0.852107 0.212703 -0.599477
O34   O     O_R   0.944442 0.905259 0.092617 -0.783693
H21   H     H_    0.960716 0.968838 0.119782 0.322120
C58   C     C_2   0.018559 0.166220 0.854727 1.022832
O35   O     O_2   0.073958 0.141563 0.786868 -0.607227
O36   O     O_R   0.933443 0.099874 0.904137 -0.786410
H22   H     H_    0.927485 0.035847 0.876942 0.324325
C59   C     C_2   0.957747 0.522311 0.237057 0.947253
O37   O     O_2   0.806053 0.490539 0.259390 -0.586094
O38   O     O_R   0.119346 0.520900 0.287239 -0.816153
H23   H     H_    0.235712 0.549833 0.261591 0.338792
C60   C     C_2   0.049484 0.477775 0.762879 0.943072
O39   O     O_2   0.200856 0.510081 0.740709 -0.582781
O40   O     O_R   0.887945 0.479024 0.712696 -0.819543
H24   H     H_    0.772163 0.449277 0.738008 0.337979
C61   C     C_2   0.540732 0.814520 0.439217 1.078268
O41   O     O_2   0.422340 0.782408 0.391217 -0.636193
O42   O     O_R   0.690875 0.759214 0.467153 -0.781410
H25   H     H_    0.685350 0.693802 0.442902 0.304400
C62   C     C_2   0.459170 0.185128 0.560092 1.088442
O43   O     O_2   0.577697 0.217345 0.607968 -0.648508
O44   O     O_R   0.309261 0.240474 0.531964 -0.779666
H26   H     H_    0.315027 0.305995 0.555980 0.304413

loop_
_geom_bond_atom_site_label_1
_geom_bond_atom_site_label_2
_geom_bond_distance
_ccdc_geom_bond_type
C26   C30   1.447626 A    
C47   C51   1.414604 A    
C31   C33   1.556743 S    
N1    O21   1.299942 A    
O13   V3    1.720568 S    
C12   C14   1.544748 S    
C56   O31   1.203967 D    
O4    C2    1.321162 A    
V1    O19   1.715685 S    
C1    C36   1.562395 S    
C62   O43   1.221892 D    
C17   C55   1.445508 S    
O9    V1    2.029775 S    
C2    C35   1.563171 S    
C9    H3    1.110340 S    
C10   H4    1.110333 S    
C9    C14   1.536360 S    
C32   H10   1.105700 S    
C11   H1    1.106847 S    
C40   C42   1.400452 A    
C4    C51   1.495388 S    
O32   H20   1.011999 S    
O3    C1    1.321102 A    
C9    C11   1.550977 S    
C42   C44   1.397588 A    
C59   O38   1.392985 S    
O12   V4    2.023046 S    
C57   O33   1.224251 D    
C8    C13   1.514846 S    
C46   H16   1.082274 S    
O7    V1    2.004392 S    
C24   C60   1.437715 S    
C35   C37   1.542772 S    
O7    C3    1.311851 A    
C33   C61   1.495564 S    
O5    C7    1.303005 A    
C39   C49   1.414121 A    
O6    C8    1.303036 A    
C53   O25   1.222572 D    
C16   H6    1.110687 S    
C17   C19   1.411503 A    
N2    O24   1.300065 A    
C18   C20   1.412499 A    
C55   O29   1.203925 D    
O3    V1    2.035385 S    
O14   V4    1.720568 S    
C10   C12   1.551099 S    
C21   C23   1.381525 A    
O38   H23   1.012589 S    
O44   H26   1.011716 S    
C2    O12   1.313658 A    
C13   C15   1.541463 S    
C10   C13   1.536444 S    
C14   C16   1.541407 S    
C11   C13   1.544866 S    
C45   C47   1.412828 A    
C20   C22   1.367627 A    
O11   V3    2.023047 S    
C31   H9    1.106001 S    
C58   O36   1.397440 S    
O17   V3    2.010918 S    
H8    C21   1.088297 S    
C22   C24   1.382572 A    
C9    C15   1.550839 S    
O26   H17   1.014032 S    
C59   O37   1.217993 D    
C10   C16   1.550875 S    
C44   C46   1.391568 A    
O8    C4    1.313626 A    
O8    V2    2.004393 S    
C43   C45   1.392012 A    
C50   C51   1.424353 A    
C1    O11   1.313308 A    
C57   O34   1.395339 S    
O15   V3    2.023317 S    
C19   C57   1.504230 S    
C28   C29   1.443188 A    
C19   C21   1.366036 A    
C38   N2    1.453429 S    
C60   O40   1.392602 S    
C55   O30   1.389036 S    
C39   C41   1.399924 A    
C34   C37   1.542584 S    
C31   C36   1.566785 S    
N2    O23   1.299922 A    
O10   V2    2.029775 S    
O1    V3    2.003156 S    
C41   C43   1.397708 A    
C56   O32   1.388975 S    
C32   C35   1.567056 S    
C45   H15   1.082294 S    
C11   C16   1.543628 S    
C15   H5    1.110690 S    
O36   H22   1.012850 S    
H7    C22   1.087854 S    
O5    V1    1.999839 S    
C53   O26   1.399130 S    
C31   C37   1.552313 S    
O18   V4    2.010920 S    
C46   C48   1.413368 A    
H12   C43   1.080314 S    
O15   C5    1.314054 A    
O42   H25   1.011641 S    
C54   O28   1.399132 S    
O16   C6    1.314219 A    
O1    C3    1.297860 A    
C61   O41   1.221983 D    
C23   C59   1.437746 S    
C40   C50   1.413968 A    
O40   H24   1.011902 S    
V2    O20   1.715685 S    
C49   C52   1.423710 A    
C62   O44   1.394629 S    
C27   C30   1.442171 A    
C6    C30   1.514327 S    
O16   V4    2.023316 S    
C47   C49   1.422704 A    
C42   C54   1.483877 S    
C48   C52   1.414067 A    
C48   C50   1.422589 A    
C61   O42   1.394476 S    
C58   O35   1.223453 D    
C25   C29   1.447470 A    
C37   N1    1.452929 S    
O17   C7    1.312979 A    
C33   C38   1.542702 S    
O6    V2    1.999841 S    
O28   H18   1.014028 S    
O10   C6    1.308213 A    
O18   C8    1.313134 A    
C17   C27   1.456116 A    
O2    V4    2.003153 S    
C18   C28   1.456244 A    
C23   C25   1.429236 A    
V3    O19   2.170860 S    
O34   H21   1.012383 S    
C12   H2    1.106983 S    
V4    O20   2.170860 S    
C7    C14   1.514580 S    
C34   C36   1.553547 S    
C33   C35   1.554276 S    
C3    C52   1.493844 S    
O9    C5    1.308403 A    
C18   C56   1.443317 S    
O13   V1    2.164593 S    
H11   C44   1.080570 S    
C24   C26   1.429138 A    
C41   C53   1.483554 S    
O14   V2    2.164594 S    
C32   C38   1.552751 S    
O2    C4    1.296849 A    
C25   C27   1.435487 A    
C39   H13   1.082506 S    
C34   C62   1.495831 S    
O4    V2    2.035389 S    
C20   C58   1.509116 S    
C5    C29   1.514358 S    
N1    O22   1.299754 A    
C40   H14   1.082530 S    
C54   O27   1.222710 D    
C12   C15   1.543848 S    
C36   C38   1.542508 S    
O30   H19   1.012539 S    
C26   C28   1.434981 A    
C60   O39   1.218140 D    
C32   C34   1.556982 S    
