data_mof_unit_62474.cif
_audit_creation_date              2012-12-10T17:39:05-0500
_audit_creation_method            fapswitch 2.2
_symmetry_space_group_name_H-M    P1
_symmetry_Int_Tables_number       1
_space_group_crystal_system       triclinic
_cell_length_a                    12.08192
_cell_length_b                    12.749176
_cell_length_c                    23.230446
_cell_angle_alpha                 91.847556
_cell_angle_beta                  86.768787
_cell_angle_gamma                 94.589134
_cell_volume                      3559.76573241

loop_
_atom_site_label
_atom_site_type_symbol
_atom_type_description
_atom_site_fract_x
_atom_site_fract_y
_atom_site_fract_z
_atom_type_partial_charge
C1    C     C_R   0.523120 0.700169 0.493584 0.973633
C2    C     C_R   0.476914 0.299835 0.506470 0.999058
C3    C     C_R   0.480989 0.366942 0.750995 0.219907
C4    C     C_R   0.505230 0.561342 0.233868 0.204619
C5    C     C_R   0.481715 0.383599 0.692121 0.564833
C6    C     C_R   0.508026 0.573838 0.293553 0.571759
C7    C     C_R   0.499639 0.486027 0.671615 -0.391501
C8    C     C_R   0.495731 0.485159 0.327934 -0.389830
C9    C     C_R   0.516560 0.572680 0.709644 0.124760
C10   C     C_R   0.479967 0.383430 0.303090 0.130511
C11   C     C_R   0.515452 0.555852 0.768609 0.671440
C12   C     C_R   0.477256 0.371255 0.243487 0.687479
C13   C     C_R   0.497706 0.453386 0.789150 -0.098309
C14   C     C_R   0.490057 0.459705 0.209033 -0.099932
C15   C     C_R   0.460875 0.187245 0.516207 -0.227584
C16   C     C_R   0.539282 0.812620 0.483446 -0.252793
C17   C     C_R   0.651277 0.978104 0.487409 0.314187
C18   C     C_R   0.348857 0.021799 0.511546 0.309315
C19   C     C_R   0.644983 0.868536 0.480327 0.236700
C20   C     C_R   0.355197 0.131299 0.519103 0.245363
C21   C     C_R   0.444286 0.866735 0.478752 0.296487
C22   C     C_R   0.555981 0.133061 0.520460 0.301434
C23   C     C_R   0.500509 0.500003 0.610298 1.058415
C24   C     C_R   0.499251 0.498665 0.389683 1.058765
C25   C     C_R   0.447338 0.972014 0.496529 -0.127471
C26   C     C_R   0.552827 0.027932 0.502421 -0.132785
C27   C     C_R   0.951530 0.403173 0.444587 -0.198269
C28   C     C_R   0.048547 0.596939 0.555508 -0.198339
C29   C     C_R   0.837161 0.411968 0.449833 0.392598
C30   C     C_R   0.162988 0.588093 0.550208 0.391062
C31   C     C_R   0.859883 0.541883 0.524815 0.379411
C32   C     C_R   0.140030 0.458193 0.475237 0.380586
C33   C     C_R   0.976815 0.535262 0.520423 -0.068781
C34   C     C_R   0.023164 0.464858 0.479678 -0.069665
C35   C     C_R   0.389897 0.444327 0.122422 0.693935
C36   C     C_R   0.592765 0.429648 0.875197 0.695417
C37   C     C_R   0.586836 0.434534 0.117443 0.694716
C38   C     C_R   0.395529 0.437176 0.880188 0.691691
C39   C     C_R   0.589449 0.426195 0.057187 -0.206224
C40   C     C_R   0.391118 0.431538 0.940331 -0.204184
C41   C     C_R   0.488970 0.428814 0.029172 -0.106214
C42   C     C_R   0.491362 0.427101 0.968331 -0.105327
C43   C     C_R   0.386591 0.435037 0.061933 -0.184067
C44   C     C_R   0.594014 0.423040 0.935580 -0.183317
C45   C     C_R   0.689970 0.416833 0.024624 0.658940
C46   C     C_R   0.289468 0.432170 0.972836 0.657795
C47   C     C_R   0.693170 0.414857 0.964551 0.225525
C48   C     C_R   0.286188 0.433558 0.032904 0.225601
H1    H     H_    0.982562 0.347632 0.412731 0.234238
H2    H     H_    0.017524 0.652482 0.587370 0.233533
N1    N     N_R   0.488804 0.445505 0.148007 -0.323634
N2    N     N_R   0.495114 0.438090 0.849687 -0.324373
N3    N     N_R   0.207800 0.519350 0.510590 -0.162645
N4    N     N_R   0.792200 0.480650 0.489410 -0.162900
O1    O     O_R   0.421690 0.658830 0.502820 -0.580610
O2    O     O_R   0.578310 0.341170 0.497180 -0.580949
O3    O     O_R   0.609320 0.646410 0.496030 -0.576792
O4    O     O_R   0.390680 0.353590 0.503970 -0.575376
O5    O     O_R   0.406170 0.506240 0.587240 -0.584286
O6    O     O_R   0.593830 0.493760 0.412760 -0.586775
O7    O     O_R   0.593790 0.493820 0.580450 -0.580621
O8    O     O_R   0.406210 0.506180 0.419550 -0.580406
O9    O     O_2   0.296522 0.454082 0.156011 -0.448579
O10   O     O_2   0.687414 0.429783 0.841666 -0.449207
O11   O     O_2   0.681288 0.433383 0.145738 -0.400524
O12   O     O_2   0.301740 0.443593 0.851981 -0.403301
Zn1   Zn    Zn3+2 0.374720 0.508290 0.504530 1.101986
Zn2   Zn    Zn3+2 0.625280 0.491710 0.495470 1.100655
F1    F     F_    0.786780 0.410502 0.050988 -0.527100
F2    F     F_    0.191880 0.432410 0.946425 -0.527615
Br1   Br    Br    0.204232 0.363357 0.419129 -0.328808
Br2   Br    Br    0.795437 0.636807 0.580883 -0.328224
Br3   Br    Br    0.251941 0.676203 0.600775 -0.304131
Br4   Br    Br    0.748711 0.323861 0.399190 -0.301138
Br5   Br    Br    0.837910 0.400228 0.926712 -0.092599
Br6   Br    Br    0.139456 0.432597 0.070647 -0.090882
Br7   Br    Br    0.457125 0.226348 0.778667 -0.205684
Br8   Br    Br    0.522593 0.683128 0.186832 -0.212888
F3    F     F_    0.464698 0.300354 0.654796 -0.601441
F4    F     F_    0.522915 0.671769 0.318108 -0.577465
Br9   Br    Br    0.540093 0.713799 0.682311 -0.223350
Br10  Br    Br    0.462071 0.259808 0.349035 -0.257486
F5    F     F_    0.531006 0.638676 0.806276 -0.560616
F6    F     F_    0.462637 0.273607 0.218662 -0.552436
Br11  Br    Br    0.671174 0.192958 0.569451 -0.259919
Br12  Br    Br    0.329947 0.806401 0.429402 -0.256704
Br13  Br    Br    0.221021 0.199197 0.541320 -0.249162
Br14  Br    Br    0.779259 0.800470 0.458562 -0.258258
Br15  Br    Br    0.790531 0.057547 0.466842 -0.221594
Br16  Br    Br    0.209360 0.942249 0.531496 -0.223287

loop_
_geom_bond_atom_site_label_1
_geom_bond_atom_site_label_2
_ccdc_geom_bond_type
C16   C21   A    
C8    C24   S    
C27   C29   A    
C41   C42   A    
C48   Br6   S    
C39   C41   A    
C40   C46   A    
O8    Zn1   S    
C17   C26   A    
C37   N1    A    
C38   N2    A    
C29   N4    A    
C20   Br13  S    
C12   F6    S    
C22   Br11  S    
O5    Zn1   S    
C28   H2    S    
C15   C22   A    
C38   O12   S    
C37   O11   S    
C31   C33   A    
C5    F3    S    
C35   C43   A    
C43   C48   A    
C3    C13   A    
C44   C47   A    
C39   C45   A    
C40   C42   A    
C41   C43   A    
C18   C25   A    
C42   C44   A    
C32   Br1   S    
C45   C47   A    
C27   C34   A    
C15   C20   A    
C30   N3    A    
C46   C48   A    
C45   F1    S    
C18   Br16  S    
C17   Br15  S    
C4    C6    A    
C19   Br14  S    
C5    C7    A    
C30   Br3   S    
C6    C8    A    
C29   Br4   S    
C11   F5    S    
C25   C26   A    
O2    Zn2   S    
C10   Br10  S    
C32   C34   A    
C23   O5    A    
C4    Br8   S    
C1    O3    A    
C13   N2    S    
C6    F4    S    
C14   N1    S    
C24   O6    A    
C33   C34   A    
C1    C16   S    
C2    C15   S    
C9    C11   A    
C10   C12   A    
C31   Br2   S    
C12   C14   A    
C28   C33   A    
C35   N1    A    
C36   C44   A    
O3    Zn2   S    
C3    Br7   S    
C32   N3    A    
C7    C9    A    
C21   C25   A    
C21   Br12  S    
C24   O8    A    
C3    C5    A    
C36   N2    A    
O1    Zn1   S    
C2    O4    A    
C28   C30   A    
C1    O1    A    
C47   Br5   S    
C37   C39   A    
C2    O2    A    
C38   C40   A    
C11   C13   A    
O7    Zn2   S    
C16   C19   A    
C7    C23   S    
C17   C19   A    
C18   C20   A    
C31   N4    A    
C4    C14   A    
N3    Zn1   S    
C46   F2    S    
O4    Zn1   S    
C23   O7    A    
N4    Zn2   S    
O6    Zn2   S    
C8    C10   A    
C22   C26   A    
C35   O9    S    
C36   O10   S    
C27   H1    S    
C9    Br9   S    
