data_mof_unit_36047.cif
_audit_creation_date              2012-12-10T17:31:58-0500
_audit_creation_method            fapswitch 2.2
_symmetry_space_group_name_H-M    P1
_symmetry_Int_Tables_number       1
_space_group_crystal_system       triclinic
_cell_length_a                    12.236279
_cell_length_b                    11.504301
_cell_length_c                    12.832334
_cell_angle_alpha                 93.327081
_cell_angle_beta                  93.817257
_cell_angle_gamma                 87.47487
_cell_volume                      1797.89455962

loop_
_atom_site_label
_atom_site_type_symbol
_atom_type_description
_atom_site_fract_x
_atom_site_fract_y
_atom_site_fract_z
_atom_type_partial_charge
C1    C     C_R   0.477990 0.502357 0.300199 0.893547
C2    C     C_R   0.976104 0.548499 0.530078 0.030522
C3    C     C_R   0.499110 0.282566 0.499625 0.892054
C4    C     C_R   0.500899 0.717436 0.500399 0.895124
C5    C     C_1   0.497783 0.161948 0.499694 -0.168096
C6    C     C_1   0.502201 0.838045 0.500203 -0.167517
C7    C     C_1   0.498850 0.059485 0.499808 0.022413
C8    C     C_1   0.501154 0.940502 0.500019 0.017938
C9    C     C_R   0.535901 0.503666 0.811269 -0.121511
C10   C     C_R   0.464050 0.500814 0.188400 -0.145428
C11   C     C_R   0.377450 0.418996 0.028532 0.482197
C12   C     C_R   0.522056 0.499117 0.699697 0.895847
C13   C     C_R   0.621414 0.588305 0.970524 0.436155
C14   C     C_R   0.380261 0.438493 0.136119 -0.260453
C15   C     C_R   0.618181 0.569014 0.862633 -0.284994
C16   C     C_R   0.542180 0.552159 0.134581 -0.196621
C17   C     C_R   0.458037 0.452702 0.865355 -0.192470
C18   C     C_R   0.541210 0.537555 0.026560 -0.010856
C19   C     C_R   0.458464 0.468622 0.973010 -0.029848
C20   C     C_3   0.810533 0.653845 0.607720 -0.390089
C21   C     C_3   0.807315 0.771895 0.557790 -0.790832
C22   C     C_3   0.179311 0.313291 0.448206 -0.382285
C23   C     C_R   0.048211 0.622791 0.587843 -0.293964
C24   C     C_3   0.220626 0.290344 0.339105 -0.759172
C25   C     C_3   0.771233 0.320616 0.333704 -0.411280
C26   C     C_3   0.778544 0.353480 0.220800 -0.767160
C27   C     C_3   0.229420 0.686670 0.659844 -0.410528
C28   C     C_3   0.214938 0.660019 0.773352 -0.786026
C29   C     C_R   0.951539 0.388416 0.403985 -0.295272
C30   C     C_R   0.162379 0.608184 0.583590 0.287176
C31   C     C_R   0.837780 0.399509 0.409688 0.296036
C32   C     C_R   0.138601 0.438531 0.470788 0.241808
C33   C     C_R   0.859480 0.557424 0.537427 0.233359
C34   C     C_R   0.022366 0.458750 0.467244 -0.008271
H1    H     H_    0.395800 0.403043 0.821420 0.224618
H2    H     H_    0.759865 0.837114 0.605674 0.252601
H3    H     H_    0.890666 0.804167 0.552760 0.244952
H4    H     H_    0.727838 0.635461 0.626563 0.258636
H5    H     H_    0.855596 0.659026 0.685699 0.179307
H6    H     H_    0.165625 0.334334 0.279892 0.265952
H7    H     H_    0.304549 0.320081 0.336218 0.271805
H8    H     H_    0.223040 0.195190 0.318583 0.247866
H9    H     H_    0.236666 0.283602 0.511638 0.238879
H10   H     H_    0.113068 0.251965 0.455662 0.177825
H11   H     H_    0.751753 0.445975 0.213286 0.297513
H12   H     H_    0.604769 0.601063 0.178792 0.223156
H13   H     H_    0.863484 0.340053 0.195755 0.264159
H14   H     H_    0.723943 0.298524 0.167920 0.252443
H15   H     H_    0.801932 0.228881 0.341215 0.195423
H16   H     H_    0.684636 0.321893 0.348068 0.265477
H17   H     H_    0.128961 0.677409 0.794241 0.260653
H18   H     H_    0.238926 0.567528 0.785498 0.299239
H19   H     H_    0.268577 0.715679 0.826571 0.256667
H20   H     H_    0.316994 0.678670 0.650839 0.268324
H21   H     H_    0.204221 0.779202 0.647820 0.197386
H22   H     H_    0.676249 0.609502 0.817557 0.174153
H23   H     H_    0.320253 0.400211 0.179860 0.202874
H24   H     H_    0.017952 0.692537 0.639292 0.171976
H25   H     H_    0.984074 0.324529 0.347719 0.177154
H26   H     H_    0.145528 0.226393 0.019403 0.396140
H27   H     H_    0.849201 0.673444 0.919526 0.355706
H28   H     H_    0.767687 0.765303 0.477427 0.284080
N1    N     N_R   0.792200 0.479100 0.480660 -0.134519
N2    N     N_R   0.207800 0.520900 0.519340 -0.124174
O1    O     O_R   0.578300 0.494420 0.341180 -0.624871
O2    O     O_2   0.329278 0.227037 0.908565 -0.297915
O3    O     O_3   0.200769 0.274392 0.059584 -0.569835
O4    O     O_2   0.667481 0.780590 0.090689 -0.255791
O5    O     O_2   0.798780 0.614902 0.103813 -0.327670
O6    O     O_3   0.795873 0.736780 0.939589 -0.525729
O7    O     O_R   0.421700 0.505580 0.658820 -0.628311
O8    O     O_R   0.390690 0.507830 0.353590 -0.608699
O9    O     O_R   0.609310 0.492170 0.646410 -0.636766
O10   O     O_R   0.593810 0.327740 0.493800 -0.631486
O11   O     O_R   0.406190 0.672260 0.506200 -0.633014
O12   O     O_R   0.406190 0.341150 0.506220 -0.622091
O13   O     O_R   0.593810 0.658850 0.493780 -0.617750
O14   O     O_2   0.200316 0.395534 0.895271 -0.327863
S1    S     S_3+6 0.275289 0.327239 0.968796 0.002912
S2    S     S_3+6 0.722490 0.681453 0.030034 0.022742
Zn1   Zn    Zn3+2 0.625270 0.491050 0.491710 0.937020
Zn2   Zn    Zn3+2 0.374730 0.508950 0.508290 0.947349

loop_
_geom_bond_atom_site_label_1
_geom_bond_atom_site_label_2
_ccdc_geom_bond_type
H27   O6    S    
C25   C31   S    
C23   H24   S    
O4    S2    D    
C30   N2    A    
C24   H8    S    
C27   H20   S    
C7    C8    S    
C21   H2    S    
O2    S1    D    
C11   C19   A    
C22   C32   S    
C13   C18   A    
N1    Zn1   S    
C11   C14   A    
C27   H21   S    
C18   C19   A    
C3    O10   A    
C25   H16   S    
C4    O11   A    
C26   H11   S    
C17   C19   A    
C22   H10   S    
C29   H25   S    
H26   O3    S    
C1    O1    A    
C26   H14   S    
O7    Zn2   S    
C2    C34   A    
C13   S2    S    
C12   O9    A    
C27   C30   S    
C24   H7    S    
O9    Zn1   S    
C1    O8    A    
O6    S2    S    
C23   C30   A    
C31   N1    A    
O3    S1    S    
C32   N2    A    
C4    C6    S    
C10   C14   A    
O12   Zn2   S    
C5    C7    T    
C20   H5    S    
O14   S1    D    
C6    C8    T    
C25   C26   S    
C29   C34   A    
C32   C34   A    
C20   H4    S    
O1    Zn1   S    
C22   H9    S    
O13   Zn1   S    
C33   N1    A    
C3    O12   A    
N2    Zn2   S    
C21   H28   S    
C11   S1    S    
C26   H13   S    
C20   C33   S    
C2    C33   A    
C9    C17   A    
C12   O7    A    
C13   C15   A    
C22   C24   S    
O10   Zn1   S    
C16   H12   S    
C2    C23   A    
C14   H23   S    
C24   H6    S    
C1    C10   S    
C3    C5    S    
C28   H19   S    
O11   Zn2   S    
C15   H22   S    
C9    C15   A    
C4    O13   A    
C29   C31   A    
C10   C16   A    
C28   H18   S    
C28   H17   S    
C9    C12   S    
C25   H15   S    
C21   H3    S    
C20   C21   S    
C16   C18   A    
C27   C28   S    
O5    S2    D    
C17   H1    S    
O8    Zn2   S    
