data_mof_unit_35011.cif
_audit_creation_date              2012-12-10T19:07:38-0500
_audit_creation_method            fapswitch 2.2
_symmetry_space_group_name_H-M    P1
_symmetry_Int_Tables_number       1
_space_group_crystal_system       triclinic
_cell_length_a                    10.952125
_cell_length_b                    11.046346
_cell_length_c                    9.646434
_cell_angle_alpha                 90.348757
_cell_angle_beta                  92.456995
_cell_angle_gamma                 93.119723
_cell_volume                      1164.19255814

loop_
_atom_site_label
_atom_site_type_symbol
_atom_type_description
_atom_site_fract_x
_atom_site_fract_y
_atom_site_fract_z
_atom_type_partial_charge
C1    C     C_R   0.504645 0.263495 0.500186 0.884527
C2    C     C_R   0.946732 0.532284 0.620443 0.042001
C3    C     C_3   0.939902 0.480225 0.762624 0.201372
C4    C     C_3   0.071949 0.446631 0.749752 0.164817
C5    C     C_R   0.459390 0.065217 0.609264 0.041981
C6    C     C_R   0.509187 0.131539 0.500852 -0.157928
C7    C     C_R   0.552218 0.068603 0.387827 -0.121826
C8    C     C_R   0.550580 0.941530 0.387377 0.708380
C9    C     C_R   0.492145 0.873143 0.491777 -0.238603
C10   C     C_R   0.437479 0.939045 0.594859 -0.172407
C11   C     C_3   0.453823 0.917704 0.743429 0.168956
C12   C     C_R   0.262035 0.493193 0.497171 0.849688
C13   C     C_3   0.513283 0.044485 0.754623 0.472206
C14   C     C_R   0.590972 0.562040 0.080011 0.002601
C15   C     C_R   0.421294 0.426802 0.068530 0.790162
C16   C     C_R   0.413976 0.435401 0.921252 0.056139
C17   C     C_R   0.587300 0.566639 0.931614 0.180226
C18   C     C_3   0.585618 0.700464 0.946643 0.246319
C19   C     C_3   0.612734 0.693068 0.097635 0.543382
C20   C     C_R   0.498575 0.738263 0.498939 0.815171
C21   C     C_R   0.737417 0.503186 0.502260 0.835254
C22   C     C_R   0.071002 0.515475 0.616155 -0.050653
C23   C     C_R   0.127308 0.489518 0.493252 -0.160261
C24   C     C_R   0.050797 0.467688 0.372279 0.293385
C25   C     C_R   0.925542 0.482895 0.377171 -0.144015
C26   C     C_R   0.870876 0.508383 0.502160 -0.133941
Cu1   Cu    Cu3+1 0.499990 0.499980 0.640670 1.088471
Cu2   Cu    Cu3+1 0.500010 0.500020 0.359330 1.090689
H1    H     H_    0.520395 0.850448 0.762951 0.141545
H2    H     H_    0.343240 0.383878 0.862373 0.200953
H3    H     H_    0.653454 0.755474 0.889374 0.167500
H4    H     H_    0.543230 0.736765 0.156620 0.193251
H5    H     H_    0.868872 0.464263 0.284117 0.230640
H6    H     H_    0.870805 0.403265 0.770330 0.179043
H7    H     H_    0.139277 0.485347 0.829378 0.195874
H8    H     H_    0.595306 0.117899 0.304586 0.200351
N1    N     N_R   0.500790 0.500930 0.147930 -0.311301
N2    N     N_R   0.500790 0.500890 0.852020 -0.208264
O1    O     O_R   0.500000 0.319640 0.618810 -0.530746
O2    O     O_R   0.500010 0.319680 0.381230 -0.545523
O3    O     O_R   0.319650 0.499970 0.618810 -0.570332
O4    O     O_R   0.319660 0.500010 0.381230 -0.537323
O5    O     O_R   0.499990 0.680320 0.618770 -0.574724
O6    O     O_R   0.500000 0.680360 0.381190 -0.576174
O7    O     O_R   0.680340 0.499990 0.618770 -0.575708
O8    O     O_R   0.680350 0.500030 0.381190 -0.576303
S1    S     S_3+6 0.099514 0.395665 0.222915 0.130898
O9    O     O_2   0.174597 0.292490 0.269700 -0.140710
O10   O     O_2   0.992527 0.345084 0.133865 -0.197452
O11   O     O_3   0.181381 0.496201 0.129404 -0.479959
H9    H     H_    0.163153 0.577032 0.165537 0.349069
S2    S     S_3+6 0.469729 0.130751 0.899789 0.123220
O12   O     O_2   0.340714 0.168187 0.881215 -0.168868
O13   O     O_2   0.480837 0.055943 0.029018 -0.230687
O14   O     O_3   0.568643 0.252169 0.917803 -0.536371
H10   H     H_    0.619204 0.238309 0.003260 0.381459
S3    S     S_3+6 0.679535 0.044210 0.757971 0.046190
O15   O     O_2   0.731393 0.169879 0.729539 -0.213045
O16   O     O_2   0.726591 0.006595 0.899103 -0.203424
O17   O     O_3   0.729526 0.949805 0.637920 -0.524049
H11   H     H_    0.728353 0.869013 0.681736 0.360160
F1    F     F_    0.355187 0.337559 0.129276 -0.537450
F2    F     F_    0.465619 0.730088 0.928908 -0.649257
F3    F     F_    0.733498 0.725182 0.135702 -0.551847
S4    S     S_3+6 0.924881 0.598656 0.887356 0.060144
O18   O     O_2   0.845997 0.691938 0.823426 -0.302195
O19   O     O_2   0.866386 0.545726 0.012812 -0.253795
O20   O     O_3   0.061226 0.666931 0.935184 -0.459332
H12   H     H_    0.042108 0.732723 0.999664 0.414460
S5    S     S_3+6 0.081830 0.286052 0.723491 0.075946
O21   O     O_2   0.202925 0.260594 0.665334 -0.269344
O22   O     O_2   0.069202 0.222814 0.860007 -0.120859
O23   O     O_3   0.969326 0.233675 0.611068 -0.502514
H13   H     H_    0.979633 0.145342 0.604174 0.427040
F4    F     F_    0.621425 0.888709 0.296425 -0.610078
S6    S     S_3+6 0.300098 0.886970 0.803637 0.185378
O24   O     O_2   0.297716 0.891818 0.959152 -0.109486
O25   O     O_2   0.213327 0.976017 0.744041 -0.190705
O26   O     O_3   0.251130 0.746888 0.749912 -0.431807
H14   H     H_    0.235954 0.753633 0.648365 0.330419

loop_
_geom_bond_atom_site_label_1
_geom_bond_atom_site_label_2
_ccdc_geom_bond_type
O14   H10   S    
C7    H8    S    
S6    O26   S    
C21   C26   S    
C4    S5    S    
C7    C8    A    
S1    O10   D    
C12   C23   S    
Cu2   O8    S    
S6    O25   D    
C11   S6    S    
C5    C6    A    
C18   F2    S    
S3    O16   D    
C13   S3    S    
Cu2   O2    S    
Cu1   N2    S    
C16   H2    S    
C15   C16   A    
C18   C19   S    
O23   H13   S    
C15   N1    A    
C12   O4    A    
C1    O2    A    
Cu1   O1    S    
C8    C9    A    
S4    O19   D    
C2    C22   A    
C23   C24   A    
S5    O21   D    
C9    C10   A    
C5    C13   S    
S2    O14   S    
Cu1   O7    S    
C4    H7    S    
C14   C17   A    
C3    S4    S    
C19   H4    S    
C20   O6    A    
S2    O13   D    
O11   H9    S    
S1    O11   S    
C21   O7    A    
C1    C6    S    
S6    O24   D    
O20   H12   S    
S3    O17   S    
C3    H6    S    
C25   C26   A    
Cu2   O6    S    
C8    F4    S    
O17   H11   S    
C12   O3    A    
C13   S2    S    
C4    C22   S    
Cu1   O3    S    
C9    C20   S    
S1    O9    D    
C19   F3    S    
S4    O20   S    
S5    O23   S    
C17   C18   S    
C2    C26   A    
C24   C25   A    
C3    C4    S    
C20   O5    A    
S2    O12   D    
C21   O8    A    
C24   S1    S    
C14   C19   S    
C6    C7    A    
C2    C3    S    
C5    C10   A    
C14   N1    A    
C11   C13   S    
S3    O15   D    
Cu2   N1    S    
Cu2   O4    S    
C15   F1    S    
C17   N2    A    
C10   C11   S    
C1    O1    A    
O26   H14   S    
Cu1   O5    S    
C11   H1    S    
S4    O18   D    
C25   H5    S    
Cu1   Cu2   S    
C22   C23   A    
S5    O22   D    
C18   H3    S    
C16   N2    A    
