data_mof_unit_14743.cif
_audit_creation_date              2012-12-10T16:57:46-0500
_audit_creation_method            fapswitch 2.2
_symmetry_space_group_name_H-M    P1
_symmetry_Int_Tables_number       1
_space_group_crystal_system       triclinic
_cell_length_a                    7.7277
_cell_length_b                    8.555524
_cell_length_c                    19.134426
_cell_angle_alpha                 90.832873
_cell_angle_beta                  86.218328
_cell_angle_gamma                 93.795815
_cell_volume                      1259.47409252

loop_
_atom_site_label
_atom_site_type_symbol
_atom_type_description
_atom_site_fract_x
_atom_site_fract_y
_atom_site_fract_z
_atom_type_partial_charge
C1    C     C_R   0.546031 0.794920 0.498170 0.960781
C2    C     C_R   0.453960 0.205075 0.501743 0.960746
C3    C     C_2   0.570333 0.958433 0.497118 -0.399823
C4    C     C_2   0.429634 0.041553 0.502595 -0.394857
C5    C     C_R   0.501902 0.493935 0.634394 0.882123
C6    C     C_R   0.497761 0.504507 0.365772 0.884335
C7    C     C_R   0.393425 0.573759 0.750026 -0.281514
C8    C     C_R   0.576745 0.394452 0.252057 -0.272995
C9    C     C_R   0.379456 0.565902 0.822296 0.158529
C10   C     C_R   0.569880 0.383370 0.180124 0.155100
C11   C     C_R   0.479567 0.460803 0.855395 -0.004831
C12   C     C_R   0.470013 0.487700 0.146291 -0.011434
C13   C     C_R   0.590066 0.360507 0.816580 0.125765
C14   C     C_R   0.378182 0.604057 0.183927 0.136365
C15   C     C_R   0.603575 0.370437 0.742414 0.121745
C16   C     C_R   0.393941 0.618601 0.257242 0.117264
C17   C     C_R   0.503961 0.479814 0.710116 -0.136342
C18   C     C_R   0.490329 0.508606 0.290342 -0.140906
C19   C     C_R   0.470164 0.480507 0.070888 0.297654
C20   C     C_R   0.477624 0.465226 0.930880 0.300214
N1    N     N_R   0.381028 0.356179 0.969563 -0.182688
N2    N     N_R   0.568675 0.588139 0.032152 -0.200229
N3    N     N_R   0.377996 0.363268 0.038928 -0.178094
N4    N     N_R   0.572112 0.580728 0.962862 -0.199844
N5    N     N_2   0.950330 0.457950 0.481240 -0.177564
N6    N     N_2   0.049670 0.542050 0.518760 -0.178080
O1    O     O_R   0.389250 0.738570 0.504600 -0.612125
O2    O     O_R   0.610750 0.261430 0.495400 -0.614661
O3    O     O_R   0.678400 0.711620 0.492580 -0.629505
O4    O     O_R   0.321600 0.288380 0.507420 -0.630293
O5    O     O_R   0.355380 0.513500 0.607880 -0.616676
O6    O     O_R   0.644620 0.486500 0.392120 -0.619239
O7    O     O_R   0.644530 0.486550 0.595850 -0.620487
O8    O     O_R   0.355470 0.513450 0.404150 -0.616227
Zn1   Zn    Zn3+2 0.306930 0.517990 0.508030 0.925284
Zn2   Zn    Zn3+2 0.693070 0.482010 0.491970 0.924187
H1    H     H_    0.316680 0.654782 0.724298 0.165260
H2    H     H_    0.649833 0.312011 0.278726 0.166532
C21   C     C_3   0.254877 0.670102 0.862520 -0.402899
C22   C     C_3   0.082003 0.580041 0.882822 -0.846733
H3    H     H_    0.019418 0.535590 0.835169 0.255552
H4    H     H_    0.101401 0.479834 0.916961 0.266491
H5    H     H_    0.993488 0.659111 0.911792 0.257855
H6    H     H_    0.312601 0.720919 0.910057 0.218883
H7    H     H_    0.228144 0.771636 0.830156 0.199977
C23   C     C_3   0.671695 0.259054 0.141487 -0.387033
C24   C     C_3   0.574473 0.098111 0.148026 -0.863663
H8    H     H_    0.556684 0.062960 0.203809 0.246376
H9    H     H_    0.445195 0.099932 0.125997 0.268608
H10   H     H_    0.650174 0.009640 0.118690 0.252898
H11   H     H_    0.699064 0.286260 0.085161 0.214353
H12   H     H_    0.800788 0.254489 0.163592 0.201045
C25   C     C_3   0.690472 0.243632 0.854884 -0.406590
C26   C     C_3   0.584257 0.087549 0.865666 -0.858862
H13   H     H_    0.462779 0.103931 0.898333 0.273570
H14   H     H_    0.549310 0.034539 0.814817 0.245550
H15   H     H_    0.661571 0.004726 0.892655 0.255729
H16   H     H_    0.816620 0.222353 0.826833 0.211324
H17   H     H_    0.727373 0.290581 0.906594 0.211626
C27   C     C_3   0.263103 0.708033 0.145125 -0.404778
C28   C     C_3   0.092871 0.619174 0.127398 -0.848880
H18   H     H_    0.116449 0.526443 0.087564 0.269185
H19   H     H_    0.025984 0.564361 0.174940 0.258803
H20   H     H_    0.005462 0.701624 0.105776 0.250760
H21   H     H_    0.229429 0.814386 0.174908 0.211403
H22   H     H_    0.332826 0.753744 0.096347 0.213679
C29   C     C_3   0.717158 0.262027 0.698215 -0.405967
C30   C     C_3   0.903342 0.333638 0.685493 -0.783333
H23   H     H_    0.976758 0.259769 0.647360 0.246201
H24   H     H_    0.904905 0.453659 0.664303 0.266993
H25   H     H_    0.971430 0.340393 0.734756 0.232515
H26   H     H_    0.720655 0.145918 0.722654 0.202617
H27   H     H_    0.660939 0.232847 0.647437 0.213202
C31   C     C_3   0.320313 0.754848 0.299535 -0.401603
C32   C     C_3   0.125570 0.727226 0.319103 -0.769690
H28   H     H_    0.048401 0.738759 0.272943 0.245362
H29   H     H_    0.095189 0.609005 0.341606 0.269800
H30   H     H_    0.084738 0.815921 0.358713 0.234962
H31   H     H_    0.388229 0.776297 0.348396 0.204273
H32   H     H_    0.347736 0.866938 0.271350 0.178596
H33   H     H_    0.703079 0.009842 0.491974 0.180354
H34   H     H_    0.296885 0.990141 0.507707 0.180377
H35   H     H_    0.013806 0.382162 0.447790 0.189729
H36   H     H_    0.986263 0.618192 0.552048 0.187912

loop_
_geom_bond_atom_site_label_1
_geom_bond_atom_site_label_2
_ccdc_geom_bond_type
C6    O6    A    
C2    C4    S    
C25   H17   S    
C24   H9    S    
C25   C26   S    
O3    Zn2   S    
O4    Zn1   S    
C16   C31   S    
O6    Zn2   S    
C29   H26   S    
C5    C17   S    
C23   H12   S    
C9    C21   S    
O7    Zn2   S    
C7    C9    A    
O8    Zn1   S    
C28   H19   S    
O5    Zn1   S    
C26   H13   S    
C22   H5    S    
C20   N4    A    
C30   H23   S    
C7    C17   A    
C5    O7    A    
C10   C23   S    
C29   H27   S    
C21   H7    S    
C22   H4    S    
C27   H22   S    
C31   H32   S    
C8    H2    S    
C24   H10   S    
C13   C25   S    
C6    C18   S    
C26   H14   S    
C11   C20   S    
C31   C32   S    
C29   C30   S    
C19   N2    A    
C21   C22   S    
O1    Zn1   S    
N5    N6    D    
C23   H11   S    
C8    C18   A    
C6    O8    A    
C27   C28   S    
C1    C3    S    
C28   H20   S    
C19   N3    A    
C32   H28   S    
C3    H33   S    
C32   H29   S    
C24   H8    S    
C15   C29   S    
C1    O3    A    
C7    H1    S    
C9    C11   A    
C10   C12   A    
C16   C18   A    
C22   H3    S    
C12   C14   A    
C27   H21   S    
C31   H31   S    
C13   C15   A    
C14   C16   A    
C3    C4    D    
C1    O1    A    
C15   C17   A    
C23   C24   S    
N6    H36   S    
C25   H16   S    
C21   H6    S    
C14   C27   S    
C2    O4    A    
N1    N3    A    
C11   C13   A    
C30   H25   S    
C12   C19   S    
N2    N4    A    
C28   H18   S    
C32   H30   S    
N5    Zn2   S    
N6    Zn1   S    
C4    H34   S    
C20   N1    A    
O2    Zn2   S    
C8    C10   A    
N5    H35   S    
C30   H24   S    
C2    O2    A    
C5    O5    A    
C26   H15   S    
