data_mof_unit_15039.cif
_audit_creation_date              2012-12-11T16:27:28-0500
_audit_creation_method            fapswitch 2.2
_symmetry_space_group_name_H-M    P1
_symmetry_Int_Tables_number       1
_space_group_crystal_system       triclinic
_cell_length_a                    21.644959
_cell_length_b                    6.909631
_cell_length_c                    14.778641
_cell_angle_alpha                 89.653508
_cell_angle_beta                  105.61405
_cell_angle_gamma                 89.694613
_cell_volume                      2128.61291958

loop_
_atom_site_label
_atom_site_type_symbol
_atom_type_description
_atom_site_fract_x
_atom_site_fract_y
_atom_site_fract_z
_atom_type_partial_charge
O1    O     O_R   0.835850 0.638310 0.002120 -0.537279
O2    O     O_R   0.164150 0.361690 0.997880 -0.537278
O3    O     O_R   0.664150 0.138310 0.997880 -0.537079
O4    O     O_R   0.335850 0.861690 0.002120 -0.537079
O5    O     O_R   0.717530 0.306070 0.861970 -0.542032
O6    O     O_R   0.282470 0.693930 0.138030 -0.542032
O7    O     O_R   0.782470 0.806070 0.138030 -0.542849
O8    O     O_R   0.217530 0.193930 0.861970 -0.542848
C1    C     C_R   0.705206 0.478073 0.824587 0.687693
C2    C     C_R   0.294794 0.521927 0.175413 0.687693
C3    C     C_R   0.794909 0.976144 0.175502 0.687303
C4    C     C_R   0.205091 0.023856 0.824498 0.687303
O9    O     O_R   0.838690 0.308440 0.993250 -0.540129
O10   O     O_R   0.161310 0.691560 0.006750 -0.540129
O11   O     O_R   0.661310 0.808440 0.006750 -0.539469
O12   O     O_R   0.338690 0.191560 0.993250 -0.539470
O13   O     O_R   0.786170 0.140510 0.130090 -0.539807
O14   O     O_R   0.213830 0.859490 0.869910 -0.539808
O15   O     O_R   0.713830 0.640510 0.869910 -0.540423
O16   O     O_R   0.286170 0.359490 0.130090 -0.540423
C5    C     C_R   0.865352 0.476898 0.998235 0.695431
C6    C     C_R   0.134648 0.523102 0.001765 0.695431
C7    C     C_R   0.634692 0.977730 0.001862 0.697558
C8    C     C_R   0.365308 0.022270 0.998137 0.697558
O17   O     O_3   0.732630 0.472520 0.044740 -0.367629
O18   O     O_3   0.267370 0.527480 0.955260 -0.367630
O19   O     O_3   0.767370 0.972520 0.955260 -0.367674
O20   O     O_3   0.232630 0.027480 0.044740 -0.367674
V1    V     V_3+5 0.753220 0.196740 0.991700 1.428927
V2    V     V_3+5 0.246780 0.803260 0.008300 1.428927
V3    V     V_3+5 0.746780 0.696740 0.008300 1.428378
V4    V     V_3+5 0.253220 0.303260 0.991700 1.428378
H1    H     H_    0.615191 0.142746 0.315707 0.120624
H2    H     H_    0.384808 0.857242 0.684293 0.120625
H3    H     H_    0.890917 0.321715 0.686323 0.121989
H4    H     H_    0.109082 0.678300 0.313675 0.121990
C9    C     C_R   0.533523 0.906731 0.832750 -0.153426
C10   C     C_R   0.466477 0.093263 0.167250 -0.153426
C11   C     C_R   0.963454 0.576381 0.166707 -0.152392
C12   C     C_R   0.036546 0.423626 0.833292 -0.152392
C13   C     C_R   0.485921 0.873183 0.749870 -0.122075
C14   C     C_R   0.514079 0.126806 0.250130 -0.122075
C15   C     C_R   0.009409 0.626198 0.248896 -0.124044
C16   C     C_R   0.990590 0.373812 0.751103 -0.124041
C17   C     C_R   0.421585 0.883491 0.748887 -0.123682
C18   C     C_R   0.578414 0.116500 0.251113 -0.123683
C19   C     C_R   0.073552 0.640038 0.249545 -0.125319
C20   C     C_R   0.926448 0.359972 0.750454 -0.125319
C21   C     C_R   0.404346 0.928135 0.830737 -0.140774
C22   C     C_R   0.595653 0.071861 0.169263 -0.140773
C23   C     C_R   0.092260 0.603688 0.168039 -0.144489
C24   C     C_R   0.907740 0.396318 0.831960 -0.144489
C25   C     C_R   0.451580 0.963521 0.915904 0.071621
C26   C     C_R   0.548420 0.036477 0.084095 0.071622
C27   C     C_R   0.046686 0.553323 0.083372 0.072145
C28   C     C_R   0.953314 0.446680 0.916628 0.072145
C29   C     C_R   0.517522 0.952231 0.916996 0.065127
C30   C     C_R   0.482478 0.047766 0.083003 0.065127
C31   C     C_R   0.980891 0.539576 0.082629 0.066882
C32   C     C_R   0.019109 0.460427 0.917371 0.066882
C33   C     C_R   0.434053 0.011525 0.998874 -0.183826
C34   C     C_R   0.565947 0.988474 0.001125 -0.183826
C35   C     C_R   0.065831 0.513562 0.000774 -0.185611
C36   C     C_R   0.934169 0.486439 0.999226 -0.185611
H5    H     H_    0.582873 0.897470 0.829823 0.112010
H6    H     H_    0.417126 0.102523 0.170177 0.112010
H7    H     H_    0.914306 0.565618 0.170226 0.114293
H8    H     H_    0.085693 0.434388 0.829774 0.114293
H9    H     H_    0.499067 0.839398 0.686034 0.132519
H10   H     H_    0.500933 0.160589 0.313966 0.132518
H11   H     H_    0.995167 0.653372 0.312526 0.132172
H12   H     H_    0.004833 0.346642 0.687472 0.132172
H13   H     H_    0.353686 0.935344 0.826390 0.089439
H14   H     H_    0.646314 0.064652 0.173609 0.089439
H15   H     H_    0.142811 0.614550 0.172420 0.095113
H16   H     H_    0.857189 0.385456 0.827579 0.095113
C37   C     C_R   0.177153 0.020420 0.722786 -0.033997
C38   C     C_R   0.822849 0.979581 0.277213 -0.033992
C39   C     C_R   0.322920 0.509158 0.276844 -0.031995
C40   C     C_R   0.677080 0.490843 0.723156 -0.031997
C41   C     C_R   0.186705 0.083162 0.566376 -0.165163
C42   C     C_R   0.813296 0.916867 0.433626 -0.165163
C43   C     C_R   0.312078 0.443562 0.432250 -0.164385
C44   C     C_R   0.687921 0.556465 0.567752 -0.164386
C45   C     C_R   0.214696 0.067649 0.662601 -0.176403
C46   C     C_R   0.785305 0.932379 0.337400 -0.176402
C47   C     C_R   0.284391 0.467386 0.336299 -0.177968
C48   C     C_R   0.715608 0.532634 0.663703 -0.177966
C49   C     C_R   0.111313 0.989161 0.686712 -0.225640
C50   C     C_R   0.888691 0.010815 0.313285 -0.225644
C51   C     C_R   0.389291 0.527346 0.313195 -0.224088
C52   C     C_R   0.610709 0.472646 0.686804 -0.224089
C53   C     C_R   0.081167 0.008614 0.589212 0.080046
C54   C     C_R   0.918837 0.991375 0.410786 0.080048
C55   C     C_R   0.418922 0.502267 0.410470 0.081236
C56   C     C_R   0.581077 0.497738 0.589530 0.081235
C57   C     C_R   0.120458 0.056473 0.529408 0.142335
C58   C     C_R   0.879544 0.943536 0.470591 0.142335
C59   C     C_R   0.378753 0.458967 0.469609 0.141380
C60   C     C_R   0.621245 0.541052 0.530392 0.141380
C61   C     C_R   0.013533 0.986297 0.549494 0.051194
C62   C     C_R   0.986470 0.013690 0.450504 0.051191
C63   C     C_R   0.486778 0.516047 0.450628 0.050525
C64   C     C_R   0.513221 0.483959 0.549373 0.050524
C65   C     C_R   0.027947 0.061678 0.394556 -0.197981
C66   C     C_R   0.972056 0.938320 0.605443 -0.197979
C67   C     C_R   0.470953 0.439386 0.604604 -0.198364
C68   C     C_R   0.529046 0.560627 0.395397 -0.198363
C69   C     C_R   0.093435 0.081235 0.433320 -0.209493
C70   C     C_R   0.906568 0.918776 0.566679 -0.209493
C71   C     C_R   0.405243 0.428652 0.565442 -0.207963
C72   C     C_R   0.594756 0.571370 0.434560 -0.207962
H17   H     H_    0.123227 0.118423 0.387450 0.127219
H18   H     H_    0.876775 0.881601 0.612550 0.127218
H19   H     H_    0.374812 0.394499 0.610805 0.126739
H20   H     H_    0.625186 0.605533 0.389197 0.126740
H21   H     H_    0.734475 0.905256 0.309713 0.101506
H22   H     H_    0.265524 0.094791 0.690290 0.101510
H23   H     H_    0.766974 0.548592 0.691720 0.100874
H24   H     H_    0.233024 0.451437 0.308282 0.100873
H25   H     H_    0.216717 0.120191 0.520860 0.110546
H26   H     H_    0.783284 0.879857 0.479143 0.110545
H27   H     H_    0.281371 0.410595 0.477296 0.110626
H28   H     H_    0.718627 0.589444 0.522706 0.110627
H29   H     H_    0.914948 0.042858 0.262678 0.103621
H30   H     H_    0.085057 0.957087 0.737318 0.103622
H31   H     H_    0.583877 0.443208 0.736971 0.101612
H32   H     H_    0.416123 0.556765 0.263027 0.101611
H33   H     H_    0.011531 0.086015 0.319922 0.137291
H34   H     H_    0.988471 0.913992 0.680078 0.137290
H35   H     H_    0.486874 0.411417 0.678985 0.137470
H36   H     H_    0.513124 0.588601 0.321017 0.137471

loop_
_geom_bond_atom_site_label_1
_geom_bond_atom_site_label_2
_ccdc_geom_bond_type
O17   V3    S    
C43   C47   A    
O1    C5    A    
C8    C33   S    
C12   C32   A    
C27   C31   A    
O19   V1    S    
O13   V1    S    
O3    C7    A    
C52   C56   A    
O15   V3    S    
C39   C47   A    
C29   C34   A    
C38   C50   A    
O7    C3    A    
C37   C49   A    
C31   C36   A    
C61   C62   A    
C62   C65   A    
C32   C35   A    
C58   C70   A    
O9    V1    S    
C23   H15   S    
C10   C14   A    
C22   H14   S    
C26   C30   A    
O4    C8    A    
C55   C59   A    
C54   C58   A    
O1    V3    S    
H4    C19   S    
O2    V4    S    
C14   C18   A    
O3    V1    S    
C5    C36   S    
C6    C35   S    
C10   C30   A    
C25   C33   A    
C1    O15   A    
C7    C34   S    
C10   H6    S    
C2    O16   A    
C9    H5    S    
O2    C6    A    
C28   C36   A    
C63   C68   A    
O14   V2    S    
C70   H18   S    
C12   C16   A    
C39   C51   A    
C69   H17   S    
C38   C46   A    
C30   C33   A    
O11   C7    A    
C59   C71   A    
O12   C8    A    
C43   C59   A    
C9    C13   A    
H1    C18   S    
C42   C58   A    
C67   C71   A    
O10   V2    S    
C41   H25   S    
H3    C20   S    
C55   C63   A    
C50   C54   A    
O5    V1    S    
C49   H30   S    
O17   V1    S    
O7    V3    S    
C51   H32   S    
O19   V3    S    
C44   C60   A    
O20   V4    S    
C67   H35   S    
C53   C61   A    
C25   C29   A    
O18   V4    S    
C19   C23   A    
C26   C34   A    
C42   C46   A    
C51   C55   A    
O4    V2    S    
C68   C72   A    
C27   C35   A    
C1    C40   S    
O8    V4    S    
C40   C52   A    
C14   H10   S    
O5    C1    A    
C3    C38   S    
C57   C69   A    
C17   C21   A    
O8    C4    A    
C11   C31   A    
C4    C37   S    
O9    C5    A    
H2    C17   S    
C22   C26   A    
C48   H23   S    
C54   C62   A    
O6    V2    S    
C60   C72   A    
C56   C64   A    
C21   H13   S    
O12   V4    S    
C52   H31   S    
C53   C57   A    
C72   H20   S    
C13   H9    S    
O16   V4    S    
C61   C66   A    
C66   H34   S    
C65   C69   A    
C3    O13   A    
C15   H11   S    
C11   H7    S    
C44   C48   A    
C24   H16   S    
O6    C2    A    
C65   H33   S    
C2    C39   S    
O11   V3    S    
C44   H28   S    
C18   C22   A    
O10   C6    A    
O20   V2    S    
C47   H24   S    
C40   C48   A    
C16   C20   A    
C41   C57   A    
C21   C25   A    
C56   C60   A    
C50   H29   S    
C16   H12   S    
C46   H21   S    
C23   C27   A    
C49   C53   A    
C45   H22   S    
C9    C29   A    
C68   H36   S    
C37   C45   A    
C28   C32   A    
C20   C24   A    
C11   C15   A    
C66   C70   A    
C12   H8    S    
C4    O14   A    
C63   C64   A    
C13   C17   A    
C71   H19   S    
C43   H27   S    
C15   C19   A    
C42   H26   S    
C64   C67   A    
C41   C45   A    
C24   C28   A    
O18   V2    S    
