data_mof_unit_14630.cif
_audit_creation_date              2013-03-05T15:52:47-0500
_audit_creation_method            fapswitch 2.2
_symmetry_space_group_name_H-M    P1
_symmetry_Int_Tables_number       1
_space_group_crystal_system       triclinic
_cell_length_a                    6.944598
_cell_length_b                    14.810848
_cell_length_c                    21.312336
_cell_angle_alpha                 74.833342
_cell_angle_beta                  90.616471
_cell_angle_gamma                 90.225255
_cell_volume                      2115.61181234

loop_
_atom_site_label
_atom_site_type_symbol
_atom_site_description
_atom_site_fract_x
_atom_site_fract_y
_atom_site_fract_z
_atom_type_partial_charge
O1    O     O_R   0.648150 0.130050 0.214300 -0.579075
O2    O     O_R   0.351850 0.869950 0.785700 -0.579075
O3    O     O_R   0.320490 0.006660 0.340150 -0.577151
O4    O     O_R   0.679510 0.993340 0.659850 -0.577151
O5    O     O_R   0.146100 0.869940 0.285700 -0.591650
O6    O     O_R   0.853900 0.130060 0.714300 -0.591650
C1    C     C_R   0.489858 0.002531 0.366899 1.053671
C2    C     C_R   0.510142 0.997469 0.633101 1.053670
O7    O     O_R   0.318690 0.137980 0.218120 -0.587887
O8    O     O_R   0.681310 0.862020 0.781880 -0.587887
O9    O     O_R   0.144280 0.002190 0.162800 -0.583355
O10   O     O_R   0.855720 0.997810 0.837200 -0.583355
C3    C     C_R   0.487776 0.175372 0.206636 1.150560
C4    C     C_R   0.512224 0.824628 0.793364 1.150561
O11   O     O_R   0.649960 0.997790 0.337200 -0.602572
O12   O     O_R   0.350040 0.002210 0.662800 -0.602572
O13   O     O_3   0.479300 0.955290 0.231990 -0.277383
O14   O     O_3   0.520700 0.044710 0.768010 -0.277383
V1    V     V_3+5 0.206040 0.008290 0.253340 1.277883
V2    V     V_3+5 0.793960 0.991710 0.746660 1.277883
O15   O     O_R   0.814320 0.993320 0.159850 -0.587733
O16   O     O_R   0.185680 0.006680 0.840150 -0.587733
C5    C     C_R   0.982183 0.998443 0.132894 1.042765
C6    C     C_R   0.017817 0.001557 0.867106 1.042764
O17   O     O_R   0.816120 0.862000 0.281880 -0.605752
O18   O     O_R   0.183880 0.138000 0.718120 -0.605751
C7    C     C_R   0.985166 0.824520 0.294811 0.978970
C8    C     C_R   0.014834 0.175480 0.705189 0.978970
V3    V     V_3+5 0.705540 0.991700 0.246660 1.258296
V4    V     V_3+5 0.294460 0.008300 0.753340 1.258296
O19   O     O_3   0.982150 0.044700 0.268010 -0.260674
O20   O     O_3   0.017850 0.955300 0.731990 -0.260674
C9    C     C_R   0.996783 0.723168 0.322222 -0.185356
C10   C     C_R   0.003217 0.276832 0.677778 -0.185356
C11   C     C_R   0.051808 0.568533 0.308527 0.373041
C12   C     C_R   0.948192 0.431467 0.691473 0.373042
C13   C     C_R   0.042162 0.665152 0.282561 -0.215995
C14   C     C_R   0.957838 0.334848 0.717439 -0.215995
C15   C     C_R   0.972190 0.685139 0.388915 -0.143433
C16   C     C_R   0.027810 0.314861 0.611085 -0.143432
C17   C     C_R   0.006552 0.589253 0.418246 0.118153
C18   C     C_R   0.993448 0.410747 0.581754 0.118153
C19   C     C_R   0.028784 0.529802 0.376221 -0.049023
C20   C     C_R   0.971216 0.470198 0.623779 -0.049023
C21   C     C_R   0.006775 0.549791 0.487394 -0.116081
C22   C     C_R   0.993225 0.450209 0.512606 -0.116081
C23   C     C_R   0.976320 0.394799 0.467366 0.476855
C24   C     C_R   0.023680 0.605201 0.532634 0.476855
C25   C     C_R   0.011471 0.433376 0.401713 -0.131517
C26   C     C_R   0.988529 0.566624 0.598287 -0.131518
H1    H     H_    0.006552 0.387385 0.369761 0.244163
H2    H     H_    0.993448 0.612615 0.630239 0.244163
H3    H     H_    0.081001 0.268806 0.583587 0.175307
H4    H     H_    0.918999 0.731194 0.416413 0.175308
H5    H     H_    0.936892 0.305204 0.769063 0.182736
H6    H     H_    0.063107 0.694796 0.230937 0.182736
C27   C     C_3   0.919129 0.921411 0.990976 -0.222081
C28   C     C_3   0.080871 0.078589 0.009024 -0.222081
C29   C     C_3   0.093818 0.926012 0.035544 0.553276
C30   C     C_3   0.906182 0.073988 0.964455 0.553276
H7    H     H_    0.854273 0.856297 0.983539 0.199837
H8    H     H_    0.145727 0.143703 0.016461 0.199837
C31   C     C_3   0.989991 0.999082 0.062365 -0.305528
C32   C     C_3   0.010009 0.000918 0.937635 -0.305528
C33   C     C_3   0.813918 0.995450 0.018135 -0.161376
C34   C     C_3   0.186082 0.004550 0.981865 -0.161376
H9    H     H_    0.660737 0.992484 0.032970 0.192833
H10   H     H_    0.339263 0.007516 0.967030 0.192833
C35   C     C_3   0.676647 0.024051 0.475029 -0.168605
C36   C     C_3   0.323353 0.975949 0.524971 -0.168605
C37   C     C_3   0.547767 0.084865 0.507058 -0.192477
C38   C     C_3   0.452233 0.915135 0.492942 -0.192477
H11   H     H_    0.579090 0.154940 0.513941 0.224938
H12   H     H_    0.420910 0.845060 0.486059 0.224938
H13   H     H_    0.822120 0.042982 0.454688 0.218430
H14   H     H_    0.177880 0.957018 0.545312 0.218430
C39   C     C_3   0.500921 0.997796 0.562662 -0.333272
C40   C     C_3   0.499079 0.002204 0.437338 -0.333272
C41   C     C_3   0.628027 0.937691 0.531066 0.557220
C42   C     C_3   0.371973 0.062309 0.468934 0.557220
C43   C     C_R   0.499007 0.276145 0.177682 -0.398408
C44   C     C_R   0.500993 0.723855 0.822318 -0.398407
C45   C     C_R   0.569644 0.430586 0.189407 -0.135168
C46   C     C_R   0.430356 0.569414 0.810593 -0.135168
C47   C     C_R   0.530225 0.336701 0.217544 0.460071
C48   C     C_R   0.469774 0.663299 0.782456 0.460071
C49   C     C_R   0.497848 0.310579 0.109456 0.328979
C50   C     C_R   0.502152 0.689421 0.890544 0.328979
C51   C     C_R   0.507351 0.408854 0.080871 -0.004937
C52   C     C_R   0.492649 0.591146 0.919129 -0.004937
C53   C     C_R   0.563352 0.466407 0.121773 0.030312
C54   C     C_R   0.436648 0.533593 0.878227 0.030311
C55   C     C_R   0.473418 0.452224 0.013336 0.083127
C56   C     C_R   0.526582 0.547776 0.986664 0.083127
C57   C     C_R   0.620245 0.594989 0.027760 -0.077492
C58   C     C_R   0.379755 0.405011 0.972240 -0.077492
C59   C     C_R   0.624832 0.557787 0.094584 -0.082151
C60   C     C_R   0.375168 0.442213 0.905416 -0.082151
H15   H     H_    0.685466 0.599320 0.124981 0.158982
H16   H     H_    0.314534 0.400680 0.875019 0.158982
H17   H     H_    0.607316 0.475526 0.220493 0.185056
H18   H     H_    0.392684 0.524474 0.779507 0.185056
H19   H     H_    0.694060 0.660493 0.009142 0.182448
H20   H     H_    0.305940 0.339507 0.990857 0.182448
Cl1   Cl    Cl    0.797275 0.852687 0.573055 -0.542826
Cl2   Cl    Cl    0.202725 0.147313 0.426945 -0.542826
Cl3   Cl    Cl    0.465381 0.772372 0.936422 -0.664192
Cl4   Cl    Cl    0.534619 0.227628 0.063577 -0.664193
Cl5   Cl    Cl    0.460592 0.704817 0.697051 -0.546748
Cl6   Cl    Cl    0.539408 0.295183 0.302949 -0.546748
Br1   Br    Br    0.095814 0.493734 0.248626 -0.527861
Br2   Br    Br    0.904186 0.506266 0.751374 -0.527861
Cl7   Cl    Cl    0.872313 0.282344 0.485259 -0.630475
Cl8   Cl    Cl    0.127687 0.717656 0.514741 -0.630475
Cl9   Cl    Cl    0.219486 0.826496 0.083215 -0.619673
Cl10  Cl    Cl    0.780514 0.173504 0.916785 -0.619673

loop_
_geom_bond_atom_site_label_1
_geom_bond_atom_site_label_2
_geom_bond_distance
_ccdc_geom_bond_type
C28   H8    1.110435 S    
C34   H10   1.110462 S    
C31   C33   1.545260 S    
C55   C56   1.428896 A    
O11   V3    1.996977 S    
C42   Cl2   1.779548 S    
C46   H18   1.084458 S    
O4    C2    1.296167 A    
V1    O19   1.706257 S    
C54   C60   1.392917 A    
C23   C25   1.389892 A    
C21   C22   1.434649 A    
C7    C9    1.463620 S    
O9    V1    1.997161 S    
C9    C15   1.397250 A    
C10   C16   1.397251 A    
C11   C13   1.394309 A    
C46   C48   1.390076 A    
C38   C41   1.542615 S    
O3    C1    1.296167 A    
C29   C34   1.544670 S    
C40   C42   1.535471 S    
C27   C29   1.545002 S    
C15   H4    1.077478 S    
C28   C30   1.545002 S    
C3    C43   1.460387 S    
O13   V3    1.711154 S    
C41   Cl1   1.779548 S    
O7    V1    2.027652 S    
C18   C22   1.436202 A    
O9    C5    1.295798 A    
C35   C37   1.555481 S    
O7    C3    1.294441 A    
C38   C40   1.542253 S    
O5    C7    1.292177 A    
C13   H6    1.083794 S    
C28   C34   1.555269 S    
O6    C8    1.292178 A    
C49   Cl4   1.779630 S    
O8    V2    2.027652 S    
C33   H9    1.110462 S    
C58   C60   1.386158 A    
C12   Br2   1.923942 S    
C26   H2    1.082070 S    
O3    V1    2.000099 S    
O14   V4    1.711152 S    
C51   C53   1.420088 A    
C11   C19   1.416786 A    
C5    C31   1.502250 S    
C8    C10   1.463620 S    
C2    O12   1.296442 A    
C36   C39   1.543409 S    
C17   C19   1.420574 A    
C35   C40   1.543409 S    
C18   C20   1.420574 A    
C37   C42   1.542615 S    
C59   H15   1.084425 S    
C57   H19   1.077260 S    
C52   C56   1.431755 A    
C39   C41   1.535471 S    
O17   V3    2.021873 S    
C14   H5    1.083795 S    
C36   C42   1.543475 S    
C48   Cl5   1.762769 S    
C38   H12   1.105988 S    
C47   Cl6   1.762769 S    
O8    C4    1.294442 A    
C37   H11   1.105988 S    
C50   Cl3   1.779630 S    
C19   C25   1.394021 A    
C1    O11   1.296441 A    
C25   H1    1.082070 S    
C44   C48   1.402266 A    
O15   V3    2.000232 S    
C9    C13   1.392863 A    
C32   C34   1.545260 S    
C52   C54   1.420088 A    
O10   V2    1.997161 S    
O1    V3    2.023428 S    
C35   C41   1.543475 S    
C53   C59   1.392917 A    
C43   C49   1.409320 A    
C1    C40   1.500656 S    
C29   Cl9   1.781506 S    
C45   C47   1.390076 A    
C50   C52   1.424841 A    
C30   C33   1.544671 S    
O18   V4    2.021873 S    
C55   C58   1.408484 A    
C60   H16   1.084425 S    
O15   C5    1.298334 A    
C36   H14   1.109391 S    
C2    C39   1.500656 S    
O16   C6    1.298335 A    
C12   C20   1.416786 A    
O1    C3    1.289283 A    
C4    C44   1.460387 S    
C12   C14   1.394309 A    
C37   C39   1.542253 S    
C11   Br1   1.923942 S    
C27   C32   1.544818 S    
C24   Cl8   1.762187 S    
V2    O20   1.706258 S    
C21   C24   1.423983 A    
C20   C26   1.394021 A    
C28   C31   1.544817 S    
C23   Cl7   1.762187 S    
C22   C23   1.423982 A    
C45   H17   1.084458 S    
C10   C14   1.392863 A    
C29   C31   1.535094 S    
C27   C33   1.555269 S    
C16   C18   1.414035 A    
C57   C59   1.386158 A    
C27   H7    1.110435 S    
O5    V1    2.026736 S    
O17   C7    1.296298 A    
C45   C53   1.399919 A    
O10   C6    1.295797 A    
O18   C8    1.296299 A    
O2    V4    2.023430 S    
C30   C32   1.535093 S    
C58   H20   1.077262 S    
V3    O19   2.160900 S    
O16   V4    2.000228 S    
V4    O20   2.160899 S    
O6    V2    2.026736 S    
C44   C50   1.409320 A    
C24   C26   1.389890 A    
O13   V1    2.154439 S    
C35   H13   1.109391 S    
O14   V2    2.154438 S    
C51   C55   1.431755 A    
C56   C57   1.408484 A    
O2    C4    1.289281 A    
C30   Cl10  1.781507 S    
O4    V2    2.000102 S    
C15   C17   1.414036 A    
C6    C32   1.502250 S    
C16   H3    1.077480 S    
C49   C51   1.424841 A    
C17   C21   1.436202 A    
C36   C38   1.555481 S    
C46   C54   1.399919 A    
O12   V4    1.996977 S    
C43   C47   1.402266 A    
