data_mof_unit_58746.cif
_audit_creation_date              2012-10-26T19:41:06-0400
_audit_creation_method            fapswitch 2.2
_symmetry_space_group_name_H-M    P1
_symmetry_Int_Tables_number       1
_space_group_crystal_system       triclinic
_cell_length_a                    11.678448
_cell_length_b                    11.038145
_cell_length_c                    9.835422
_cell_angle_alpha                 108.740408
_cell_angle_beta                  98.007768
_cell_angle_gamma                 92.714139
_cell_volume                      1183.19444726

loop_
_atom_site_label
_atom_site_type_symbol
_atom_type_description
_atom_site_fract_x
_atom_site_fract_y
_atom_site_fract_z
_atom_type_partial_charge
C1    C     C_R   0.492128 0.254232 0.445005 0.525631
C2    C     C_2   0.555212 0.875587 0.574119 0.253503
C3    C     C_2   0.509936 0.080436 0.550954 0.266621
C4    C     C_2   0.473960 0.948437 0.543422 0.320147
C5    C     C_2   0.498389 0.526083 0.084240 0.370569
C6    C     C_2   0.475042 0.506522 0.924103 0.386545
C7    C     C_3   0.285214 0.981775 0.577569 -0.019518
C8    C     C_3   0.164587 0.912077 0.550785 -0.373637
C9    C     C_3   0.659120 0.173016 0.743313 0.008355
C10   C     C_3   0.702625 0.302823 0.856968 -0.386116
C11   C     C_3   0.747943 0.855758 0.658168 -0.034310
C12   C     C_R   0.517571 0.743162 0.555279 0.583082
C13   C     C_3   0.871088 0.917073 0.677968 -0.396843
C14   C     C_3   0.351113 0.033162 0.218515 0.002559
C15   C     C_3   0.298986 0.901575 0.114501 -0.329417
C16   C     C_3   0.333263 0.338477 0.797061 0.004334
C17   C     C_3   0.215215 0.304210 0.831330 -0.416728
C18   C     C_3   0.664498 0.663138 0.205519 0.013209
C19   C     C_3   0.708963 0.788843 0.188879 -0.371554
C20   C     C_R   0.284282 0.500005 0.500871 0.542922
C21   C     C_R   0.715555 0.497691 0.498699 0.511563
C22   C     C_1   0.162734 0.500073 0.502275 -0.020831
C23   C     C_1   0.837157 0.497854 0.497512 -0.045549
C24   C     C_1   0.060034 0.499623 0.501231 -0.053010
C25   C     C_1   0.939899 0.498662 0.498828 -0.056483
C26   C     C_2   0.485215 0.115597 0.429791 0.238956
Cu1   Cu    Cu3+1 0.519790 0.521810 0.644910 0.959934
Cu2   Cu    Cu3+1 0.480210 0.478190 0.355090 0.978984
H1    H     H_    0.632707 0.583047 0.917723 0.160116
H2    H     H_    0.647066 0.326183 0.942994 0.133652
H3    H     H_    0.793171 0.300498 0.907940 0.088802
H4    H     H_    0.702255 0.377864 0.804565 0.182369
H5    H     H_    0.746956 0.752380 0.596326 0.144126
H6    H     H_    0.724639 0.868433 0.767640 0.136095
H7    H     H_    0.877259 0.020850 0.742601 0.137654
H8    H     H_    0.932479 0.869120 0.735794 0.106143
H9    H     H_    0.895639 0.906315 0.569879 0.157240
H10   H     H_    0.364171 0.096527 0.153035 0.152330
H11   H     H_    0.287367 0.072383 0.292154 0.101486
H12   H     H_    0.415770 0.356309 0.068334 0.164674
H13   H     H_    0.283838 0.835865 0.176672 0.206673
H14   H     H_    0.214864 0.910468 0.051903 0.075272
H15   H     H_    0.359030 0.860167 0.037179 0.184231
H16   H     H_    0.398228 0.281716 0.835971 0.134931
H17   H     H_    0.325911 0.307785 0.677045 0.173052
H18   H     H_    0.147371 0.351103 0.781073 0.166701
H19   H     H_    0.192679 0.198652 0.787336 0.082493
H20   H     H_    0.216605 0.337090 0.950756 0.157753
H21   H     H_    0.706944 0.581685 0.138102 0.068394
H22   H     H_    0.693096 0.672587 0.320806 0.183104
H23   H     H_    0.277633 0.066205 0.539806 0.113499
H24   H     H_    0.675892 0.871059 0.267357 0.215212
H25   H     H_    0.805426 0.800798 0.211480 0.087034
H26   H     H_    0.679432 0.790072 0.077203 0.146144
H27   H     H_    0.318017 0.014945 0.696921 0.129361
H28   H     H_    0.128589 0.878909 0.432802 0.157060
H29   H     H_    0.168642 0.827730 0.588984 0.164704
H30   H     H_    0.106338 0.978350 0.611125 0.084920
H31   H     H_    0.714321 0.156910 0.656318 0.166532
H32   H     H_    0.670043 0.100332 0.798925 0.168034
N1    N     N_2   0.450460 0.445430 0.137370 -0.332572
N2    N     N_2   0.549540 0.554570 0.862630 -0.330375
O1    O     O_R   0.510560 0.332330 0.577400 -0.474929
O2    O     O_3   0.540097 0.170667 0.689753 -0.619173
O3    O     O_3   0.671794 0.914500 0.579722 -0.644701
O4    O     O_3   0.459135 0.019808 0.294429 -0.567478
O5    O     O_3   0.360494 0.473297 0.855794 -0.523489
O6    O     O_3   0.541550 0.648620 0.176199 -0.507079
O7    O     O_R   0.489440 0.667670 0.422600 -0.415491
O8    O     O_R   0.477140 0.295500 0.332650 -0.515363
O9    O     O_R   0.522860 0.704500 0.667350 -0.525486
O10   O     O_R   0.353910 0.518430 0.622380 -0.437895
O11   O     O_R   0.646090 0.481570 0.377620 -0.511621
O12   O     O_R   0.320490 0.481600 0.377630 -0.490861
O13   O     O_R   0.679510 0.518400 0.622370 -0.523680
O14   O     O_3   0.358261 0.896844 0.499615 -0.572516

loop_
_geom_bond_atom_site_label_1
_geom_bond_atom_site_label_2
_ccdc_geom_bond_type
C16   H17   S    
C2    C4    D    
C12   O7    A    
C7    O14   S    
Cu1   N2    S    
C21   O11   A    
C8    H29   S    
C14   H10   S    
C9    O2    S    
C17   H19   S    
C9    C10   S    
C10   H2    S    
Cu2   O8    S    
C13   H9    S    
C1    O8    A    
C17   H20   S    
C7    H27   S    
C2    O3    S    
Cu2   O12   S    
Cu2   N1    S    
C6    N2    D    
Cu2   O7    S    
C21   C23   S    
C14   O4    S    
C20   O12   A    
C7    C8    S    
C16   O5    S    
C21   O13   A    
C3    O2    S    
C17   H18   S    
C8    H28   S    
C11   C13   S    
C19   H25   S    
C1    C26   S    
C15   H14   S    
Cu1   O1    S    
C5    O6    S    
Cu1   O13   S    
Cu2   O11   S    
C1    O1    A    
C19   H26   S    
C6    O5    S    
C15   H15   S    
C12   O9    A    
C20   C22   S    
C13   H7    S    
C23   C25   T    
C5    C6    S    
C22   C24   T    
C4    O14   S    
Cu1   O10   S    
C15   H13   S    
C5    N1    D    
C3    C4    S    
C26   O4    S    
C10   H4    S    
C11   H5    S    
Cu1   O9    S    
C24   C25   S    
C18   H22   S    
C13   H8    S    
C2    C12   S    
C7    H23   S    
Cu1   Cu2   S    
C3    C26   D    
C16   H16   S    
C14   C15   S    
C18   C19   S    
C8    H30   S    
C14   H11   S    
H1    N2    S    
C18   O6    S    
C19   H24   S    
C11   H6    S    
C20   O10   A    
H12   N1    S    
C11   O3    S    
C18   H21   S    
C16   C17   S    
C9    H31   S    
C9    H32   S    
C10   H3    S    
