data_mof_unit_60529.cif
_audit_creation_date              2012-12-10T17:57:51-0500
_audit_creation_method            fapswitch 2.2
_symmetry_space_group_name_H-M    P1
_symmetry_Int_Tables_number       1
_space_group_crystal_system       triclinic
_cell_length_a                    18.859414
_cell_length_b                    18.785577
_cell_length_c                    18.765197
_cell_angle_alpha                 109.307576
_cell_angle_beta                  109.668801
_cell_angle_gamma                 109.550821
_cell_volume                      5110.58462054

loop_
_atom_site_label
_atom_site_type_symbol
_atom_type_description
_atom_site_fract_x
_atom_site_fract_y
_atom_site_fract_z
_atom_type_partial_charge
C1    C     C_R   0.380863 0.381038 0.499860 0.790928
C2    C     C_3   0.809223 0.501129 0.810136 0.032955
C3    C     C_3   0.841612 0.526691 0.751137 -0.391006
C4    C     C_3   0.783041 0.567069 0.855513 -0.017600
C5    C     C_R   0.306843 0.232083 0.477165 0.098443
C6    C     C_R   0.316153 0.314993 0.503022 -0.083530
C7    C     C_R   0.265185 0.335286 0.537472 -0.196413
C8    C     C_R   0.199711 0.270411 0.535985 -0.210183
C9    C     C_R   0.185628 0.185289 0.501229 -0.078378
C10   C     C_R   0.242719 0.168282 0.476492 0.033882
C11   C     C_3   0.225161 0.098006 0.394318 -0.229024
C12   C     C_R   0.619497 0.500490 0.619849 0.760014
C13   C     C_3   0.296163 0.168635 0.395509 -0.499711
C14   C     C_R   0.311128 0.489579 0.236921 0.129209
C15   C     C_R   0.312489 0.498473 0.313827 -0.079117
C16   C     C_R   0.245384 0.508170 0.325517 -0.193907
C17   C     C_R   0.179800 0.507510 0.260167 -0.209682
C18   C     C_R   0.182469 0.500250 0.183968 -0.081277
C19   C     C_R   0.250264 0.492382 0.175983 0.121202
C20   C     C_3   0.287427 0.481174 0.117293 -0.485967
C21   C     C_3   0.357422 0.478783 0.187158 -0.464941
C22   C     C_R   0.666254 0.737819 0.469249 0.188305
C23   C     C_R   0.618414 0.618765 0.499976 0.815254
C24   C     C_R   0.685692 0.686271 0.502266 -0.100135
C25   C     C_R   0.772366 0.706647 0.545774 -0.226727
C26   C     C_R   0.837101 0.772206 0.547219 -0.200304
C27   C     C_R   0.815156 0.816989 0.504179 -0.099210
C28   C     C_R   0.729870 0.801725 0.469360 0.093578
C29   C     C_3   0.668590 0.781143 0.380672 -0.517472
C30   C     C_3   0.598782 0.709872 0.379904 -0.247431
C31   C     C_R   0.998237 0.381211 0.879562 0.817197
C32   C     C_R   0.877945 0.498732 0.876491 0.763829
C33   C     C_R   0.997425 0.619101 0.116115 0.819277
C34   C     C_R   0.380563 0.499707 0.380445 0.814206
C35   C     C_R   0.116440 0.499870 0.116519 0.792358
C36   C     C_R   0.999567 0.118398 0.618199 0.800903
C37   C     C_R   0.118554 0.118062 0.499501 0.798010
C38   C     C_R   0.000137 0.881229 0.381584 0.809333
C39   C     C_R   0.881170 0.881099 0.500241 0.793986
C40   C     C_R   0.927212 0.233213 0.754272 0.103817
C41   C     C_R   0.000245 0.315126 0.814660 -0.119245
C42   C     C_R   0.076799 0.331974 0.809578 -0.203614
C43   C     C_R   0.077452 0.266865 0.745550 -0.212118
C44   C     C_R   0.000978 0.185421 0.684703 -0.053264
C45   C     C_3   0.654689 0.409892 0.680181 -0.376369
C46   C     C_R   0.927314 0.172017 0.691403 0.042501
C47   C     C_3   0.834998 0.106309 0.653647 -0.544084
C48   C     C_3   0.834520 0.176220 0.725583 0.313062
C49   C     C_R   0.920764 0.681420 0.176926 0.182584
C50   C     C_R   0.998375 0.687137 0.182548 -0.082428
C51   C     C_R   0.077584 0.763314 0.250025 -0.184487
C52   C     C_R   0.078754 0.827038 0.316347 -0.136946
C53   C     C_R   0.000416 0.816380 0.313613 -0.073463
C54   C     C_R   0.921788 0.745886 0.240727 0.162973
C55   C     C_3   0.846468 0.681474 0.237490 -0.519477
C56   C     C_3   0.727099 0.408215 0.747953 -0.372326
C57   C     C_3   0.845640 0.610581 0.167758 -0.473237
C58   C     C_3   0.770396 0.526891 0.680466 -0.403883
C59   C     C_3   0.713743 0.568886 0.782064 -0.356343
C60   C     C_3   0.688153 0.501540 0.689373 0.113600
Cu1   Cu    Cu3+1 0.500370 0.438220 0.438550 0.938709
Cu2   Cu    Cu3+1 0.499630 0.561780 0.561450 0.982231
Cu3   Cu    Cu3+1 0.935500 0.438280 0.997350 0.937243
Cu4   Cu    Cu3+1 0.059110 0.561800 0.997270 0.961997
Cu5   Cu    Cu3+1 0.062130 0.000020 0.562160 0.951491
Cu6   Cu    Cu3+1 0.937870 0.000080 0.437940 0.967602
H1    H     H_    0.633034 0.359763 0.613492 0.175128
H2    H     H_    0.795205 0.592763 0.686955 0.145811
H3    H     H_    0.901588 0.591675 0.790036 0.171055
H4    H     H_    0.273226 0.400015 0.561939 0.163054
H5    H     H_    0.159083 0.286081 0.560066 0.141763
H6    H     H_    0.242524 0.049929 0.405104 0.171782
H7    H     H_    0.354734 0.161623 0.408143 0.196880
H8    H     H_    0.273048 0.181640 0.340813 0.197893
H9    H     H_    0.242972 0.515035 0.384154 0.155005
H10   H     H_    0.597422 0.392440 0.689777 0.177765
H11   H     H_    0.128261 0.513983 0.269702 0.150429
H12   H     H_    0.243133 0.418000 0.054923 0.196671
H13   H     H_    0.313274 0.539724 0.110660 0.204510
H14   H     H_    0.353921 0.414409 0.164910 0.208284
H15   H     H_    0.423451 0.536111 0.220881 0.183416
H16   H     H_    0.789420 0.670539 0.576439 0.136255
H17   H     H_    0.903247 0.784934 0.578521 0.167304
H18   H     H_    0.657594 0.836311 0.383125 0.197838
H19   H     H_    0.686598 0.755148 0.331258 0.199210
H20   H     H_    0.701612 0.382124 0.784723 0.189079
H21   H     H_    0.576868 0.642971 0.330329 0.128230
H22   H     H_    0.135963 0.394511 0.855349 0.160884
H23   H     H_    0.136727 0.280394 0.742835 0.146231
H24   H     H_    0.793299 0.090579 0.586160 0.222755
H25   H     H_    0.828690 0.049075 0.662106 0.162250
H26   H     H_    0.828832 0.161003 0.776715 0.069857
H27   H     H_    0.138605 0.771477 0.253747 0.153144
H28   H     H_    0.140403 0.883778 0.369910 0.146210
H29   H     H_    0.864293 0.679342 0.299306 0.193584
H30   H     H_    0.744730 0.362365 0.713518 0.180955
H31   H     H_    0.788011 0.688177 0.212387 0.215477
H32   H     H_    0.863338 0.567435 0.189207 0.206319
H33   H     H_    0.786258 0.576151 0.102780 0.216010
H34   H     H_    0.754466 0.480116 0.614794 0.188120
H35   H     H_    0.859108 0.479307 0.719022 0.179361
H36   H     H_    0.739067 0.634843 0.788589 0.140519
H37   H     H_    0.654106 0.556340 0.786848 0.218999
O1    O     O_R   0.410140 0.357660 0.448100 -0.586284
O2    O     O_R   0.049970 0.462000 0.907620 -0.590754
O3    O     O_R   0.854460 0.447890 0.906680 -0.603230
O4    O     O_R   0.958840 0.552200 0.906620 -0.580600
O5    O     O_R   0.944630 0.538080 0.087010 -0.604161
O6    O     O_R   0.049020 0.642390 0.086940 -0.563112
O7    O     O_R   0.035760 0.447880 0.088010 -0.587780
O8    O     O_R   0.140150 0.552190 0.087940 -0.589380
O9    O     O_R   0.051980 0.090160 0.642200 -0.585763
O10   O     O_R   0.947040 0.090210 0.537310 -0.583024
O11   O     O_R   0.142640 0.090190 0.552500 -0.583044
O12   O     O_R   0.409510 0.462000 0.551890 -0.591951
O13   O     O_R   0.037710 0.090250 0.447610 -0.582465
O14   O     O_R   0.052960 0.909890 0.462790 -0.597505
O15   O     O_R   0.948020 0.909940 0.357900 -0.564136
O16   O     O_R   0.962290 0.909850 0.552490 -0.592537
O17   O     O_R   0.857360 0.909910 0.447600 -0.586323
O18   O     O_R   0.590970 0.447830 0.538770 -0.593522
O19   O     O_R   0.590340 0.552170 0.642560 -0.595161
O20   O     O_R   0.590490 0.538000 0.448110 -0.592945
O21   O     O_R   0.589860 0.642340 0.551900 -0.556362
O22   O     O_R   0.409660 0.447830 0.357440 -0.593975
O23   O     O_R   0.409030 0.552170 0.461230 -0.565102
O24   O     O_R   0.945590 0.357690 0.907690 -0.588213
C61   C     C_2   0.862005 0.659136 0.916206 0.299668
H38   H     H_    0.892721 0.693526 0.889106 0.090321
O25   O     O_2   0.891566 0.696508 0.995192 -0.545268
C62   C     C_2   0.136136 0.057806 0.317635 0.414374
H39   H     H_    0.111557 0.098901 0.303065 0.082815
O26   O     O_2   0.091020 0.978756 0.271254 -0.532550
C63   C     C_2   0.524700 0.725002 0.377635 0.371297
H40   H     H_    0.482696 0.724002 0.320683 0.073704
O27   O     O_2   0.510085 0.736813 0.437969 -0.527640
O28   O     O_3   0.782158 0.208930 0.691527 -0.595170
C64   C     C_3   0.701734 0.172021 0.688774 0.072081
H41   H     H_    0.673139 0.214058 0.682559 0.158405
H42   H     H_    0.709776 0.172178 0.750461 0.123704
C65   C     C_3   0.637828 0.079949 0.609415 -0.364289
H43   H     H_    0.633494 0.081131 0.549298 0.229104
H44   H     H_    0.661363 0.034669 0.617248 0.221462
C66   C     C_3   0.547265 0.045657 0.599109 -0.891421
H45   H     H_    0.549975 0.043302 0.658299 0.256794
H46   H     H_    0.502863 0.978745 0.541804 0.267262
H47   H     H_    0.520704 0.088181 0.588529 0.249869
C67   C     C_2   0.747506 0.538457 0.909762 0.414954
H48   H     H_    0.791476 0.542713 0.968005 0.094756
O29   O     O_2   0.670983 0.509758 0.889462 -0.572325

loop_
_geom_bond_atom_site_label_1
_geom_bond_atom_site_label_2
_ccdc_geom_bond_type
C45   C60   S    
C26   H17   S    
Cu6   O10   S    
C16   H9    S    
C41   C42   A    
C19   C20   S    
C31   O24   A    
C61   H38   S    
C7    H4    S    
Cu2   O21   S    
C7    C8    A    
C37   O13   A    
C53   C54   A    
C40   C46   A    
C26   C27   A    
C43   H23   S    
Cu6   O13   S    
C48   O28   S    
C45   H10   S    
C14   C21   S    
Cu1   O18   S    
C28   C29   S    
C3    H3    S    
C67   O29   D    
C65   H44   S    
C5    C6    A    
C58   C60   S    
C49   C54   A    
C57   H33   S    
C49   C57   S    
C4    C59   S    
C2    C32   S    
C18   C19   A    
Cu5   O11   S    
C54   C55   S    
C38   O14   A    
C12   O18   A    
C45   C56   S    
C27   C39   S    
C8    C9    A    
C30   C63   S    
C32   O4    A    
C36   O9    A    
C23   C24   S    
C52   H28   S    
C31   C41   S    
C18   C35   S    
C15   C34   S    
C5    C13   S    
C3    H35   S    
C59   C60   S    
C22   C28   A    
C31   O2    A    
C33   O5    A    
C47   H25   S    
C30   H21   S    
C66   H47   S    
C36   O10   A    
C17   H11   S    
C44   C46   A    
C17   C18   A    
C4    C61   S    
C51   C52   A    
Cu4   O2    S    
Cu1   O1    S    
C58   H34   S    
C24   C25   A    
C29   H18   S    
C66   H46   S    
C10   C11   S    
C65   C66   S    
Cu2   O23   S    
C11   H6    S    
C16   C17   A    
Cu4   O8    S    
C23   O20   A    
C37   O11   A    
C33   C50   S    
C1    C6    S    
Cu1   O22   S    
C61   O25   D    
C12   C60   S    
C2    C4    S    
C43   C44   A    
Cu5   O9    S    
C45   H1    S    
C29   C30   S    
C56   H20   S    
C47   C48   S    
C34   O23   A    
C55   H31   S    
C9    C37   S    
C50   C51   A    
Cu5   O16   S    
C12   O19   A    
C67   H48   S    
Cu3   O3    S    
C1    O1    A    
C6    C7    A    
C35   O7    A    
C64   H42   S    
C51   H27   S    
C58   H2    S    
C40   C41   A    
C13   H7    S    
C49   C50   A    
C55   C57   S    
Cu6   O15   S    
C25   H16   S    
C47   H24   S    
C22   C24   A    
C36   C44   S    
C42   H22   S    
C42   C43   A    
C62   H39   S    
Cu2   O19   S    
C35   O8    A    
C52   C53   A    
Cu4   O4    S    
C9    C10   A    
C40   C48   S    
C46   C47   S    
C8    H5    S    
C22   C30   S    
C20   H13   S    
C20   C21   S    
C59   H36   S    
C29   H19   S    
C14   C19   A    
C21   H15   S    
C66   H45   S    
C62   O26   D    
C64   C65   S    
C11   C62   S    
C63   O27   D    
C63   H40   S    
O28   C64   S    
C20   H12   S    
Cu1   O20   S    
C59   H37   S    
Cu3   O7    S    
C2    C3    S    
C25   C26   A    
C5    C10   A    
C2    C56   S    
C65   H43   S    
C11   C13   S    
Cu4   O6    S    
C38   C53   S    
C34   O22   A    
C39   O16   A    
C57   H32   S    
C21   H14   S    
C55   H29   S    
C39   O17   A    
C56   H30   S    
Cu1   Cu2   S    
Cu6   O17   S    
C64   H41   S    
Cu3   Cu4   S    
C38   O15   A    
C3    C58   S    
Cu2   O12   S    
C33   O6    A    
C13   H8    S    
Cu5   Cu6   S    
C48   H26   S    
C27   C28   A    
Cu5   O14   S    
C14   C15   A    
C32   O3    A    
C1    O12   A    
Cu3   O5    S    
C23   O21   A    
Cu3   O24   S    
C15   C16   A    
C4    C67   S    
