data_mof_unit_11432.cif
_audit_creation_date              2013-03-05T15:41:33-0500
_audit_creation_method            fapswitch 2.2
_symmetry_space_group_name_H-M    P1
_symmetry_Int_Tables_number       1
_space_group_crystal_system       triclinic
_cell_length_a                    15.825679
_cell_length_b                    8.732338
_cell_length_c                    7.506778
_cell_angle_alpha                 103.346023
_cell_angle_beta                  93.888722
_cell_angle_gamma                 92.648886
_cell_volume                      1005.01285342

loop_
_atom_site_label
_atom_site_type_symbol
_atom_site_description
_atom_site_fract_x
_atom_site_fract_y
_atom_site_fract_z
_atom_type_partial_charge
O1    O     O_R   0.506070 0.286130 0.619780 -0.562844
O2    O     O_R   0.493930 0.713870 0.380220 -0.562856
O3    O     O_R   0.490300 0.256770 0.308360 -0.534542
O4    O     O_R   0.509700 0.743230 0.691640 -0.534542
C1    C     C_R   0.496423 0.200204 0.453744 0.807767
C2    C     C_R   0.503577 0.799796 0.546256 0.807761
O5    O     O_R   0.386960 0.514660 0.655680 -0.561475
O6    O     O_R   0.613040 0.485340 0.344320 -0.561475
O7    O     O_R   0.371190 0.485310 0.344260 -0.538795
O8    O     O_R   0.628810 0.514690 0.655740 -0.538794
C3    C     C_R   0.340206 0.499768 0.502552 0.814687
C4    C     C_R   0.659794 0.500232 0.497448 0.814683
Cu1   Cu    Cu3+1 0.509330 0.517380 0.684380 1.194242
Cu2   Cu    Cu3+1 0.490670 0.482620 0.315620 1.194238
C5    C     C_2   0.483191 0.033249 0.433578 0.068010
C6    C     C_2   0.516808 0.966751 0.566422 0.068012
C7    C     C_3   0.970707 0.409936 0.609992 -0.227707
C8    C     C_3   0.029293 0.590064 0.390008 -0.227708
C9    C     C_3   0.021321 0.354609 0.441447 0.395047
C10   C     C_3   0.978679 0.645391 0.558553 0.395047
H1    H     H_    0.946266 0.333934 0.697440 0.213123
H2    H     H_    0.053734 0.666066 0.302560 0.213123
H3    H     H_    0.938079 0.391882 0.182873 0.202923
H4    H     H_    0.061921 0.608118 0.817126 0.202922
C11   C     C_1   0.250818 0.499921 0.507813 -0.005736
C12   C     C_1   0.749182 0.500079 0.492187 -0.005736
C13   C     C_3   0.033864 0.558184 0.674712 -0.242795
C14   C     C_3   0.966136 0.441816 0.325288 -0.242795
C15   C     C_3   0.083568 0.499215 0.504684 -0.004568
C16   C     C_3   0.916432 0.500785 0.495316 -0.004568
N1    N     N_2   0.476600 0.456420 0.038510 0.032877
N2    N     N_2   0.523400 0.543580 0.961490 0.032873
C17   C     C_1   0.175275 0.499633 0.508216 0.107805
C18   C     C_1   0.824725 0.500367 0.491784 0.107805
N3    N     N_R   0.043439 0.192102 0.376255 0.159669
O9    O     O_R   0.983662 0.080085 0.325288 -0.270835
O10   O     O_R   0.122397 0.157771 0.368869 -0.297050
N4    N     N_R   0.956561 0.807898 0.623745 0.159669
O11   O     O_R   0.016338 0.919915 0.674712 -0.270836
O12   O     O_R   0.877603 0.842229 0.631131 -0.297051
N5    N     N_R   0.422263 0.948754 0.288436 0.136193
O13   O     O_R   0.353421 0.880911 0.328407 -0.314318
O14   O     O_R   0.429673 0.958210 0.119700 -0.238175
N6    N     N_R   0.577737 0.051246 0.711564 0.136198
O15   O     O_R   0.570326 0.041792 0.880301 -0.238169
O16   O     O_R   0.646579 0.119089 0.671594 -0.314317
N7    N     N_R   0.395023 0.418152 0.956357 0.260496
O17   O     O_R   0.371691 0.271265 0.882060 -0.299934
O18   O     O_R   0.337175 0.519435 0.993697 -0.294061
N8    N     N_R   0.604980 0.581827 0.043629 0.260492
O19   O     O_R   0.628328 0.728712 0.117896 -0.299933
O20   O     O_R   0.662816 0.480520 0.006297 -0.294050

loop_
_geom_bond_atom_site_label_1
_geom_bond_atom_site_label_2
_geom_bond_distance
_ccdc_geom_bond_type
N8    O20   1.301557 A    
O7    Cu2   1.918073 S    
C9    C14   1.538735 S    
C10   C13   1.538735 S    
C13   C15   1.543756 S    
C8    H2    1.110336 S    
C10   N4    1.457503 S    
N5    O13   1.301808 A    
C6    N6    1.442872 S    
Cu1   N2    2.035170 S    
N3    O9    1.300286 A    
H4    C13   1.110280 S    
Cu2   N1    2.035170 S    
O6    C4    1.300945 A    
C14   C16   1.543757 S    
N8    O19   1.300251 A    
N7    O18   1.301564 A    
C8    C15   1.544725 S    
C9    N3    1.457503 S    
Cu1   Cu2   2.708357 S    
C10   C16   1.528125 S    
O5    C3    1.300946 A    
C7    C16   1.544725 S    
O7    C3    1.297624 A    
N2    N8    1.384085 S    
O2    C2    1.292926 A    
O3    Cu2   1.960060 S    
O8    C4    1.297625 A    
O1    C1    1.292925 A    
N4    O12   1.300271 A    
N6    O16   1.301808 A    
C8    C10   1.538462 S    
N4    O11   1.300286 A    
O2    Cu2   1.962271 S    
O6    Cu2   1.932396 S    
C1    C5    1.434523 S    
O1    Cu1   1.962270 S    
C16   C18   1.449591 S    
C2    C6    1.434523 S    
C5    C6    1.355961 D    
C7    C13   1.560468 S    
N7    O17   1.300259 A    
C15   C17   1.449591 S    
O5    Cu1   1.932396 S    
C8    C14   1.560468 S    
N6    O15   1.300979 A    
C5    N5    1.442872 S    
O4    C2    1.297465 A    
C11   C17   1.195614 T    
O4    Cu1   1.960061 S    
C3    C11   1.417912 S    
C7    C9    1.538462 S    
N1    N7    1.384091 S    
N3    O10   1.300271 A    
H3    C14   1.110280 S    
C12   C18   1.195613 T    
C7    H1    1.110336 S    
N5    O14   1.300979 A    
N1    N2    1.292772 D    
C4    C12   1.417912 S    
O3    C1    1.297466 A    
O8    Cu1   1.918073 S    
C9    C15   1.528123 S    
