data_mof_unit_11277.cif
_audit_creation_date              2012-12-11T16:33:31-0500
_audit_creation_method            fapswitch 2.2
_symmetry_space_group_name_H-M    P1
_symmetry_Int_Tables_number       1
_space_group_crystal_system       triclinic
_cell_length_a                    6.94363
_cell_length_b                    18.35302
_cell_length_c                    20.061878
_cell_angle_alpha                 68.420228
_cell_angle_beta                  90.839129
_cell_angle_gamma                 90.943226
_cell_volume                      2376.99100209

loop_
_atom_site_label
_atom_site_type_symbol
_atom_type_description
_atom_site_fract_x
_atom_site_fract_y
_atom_site_fract_z
_atom_type_partial_charge
O1    O     O_R   0.488960 0.443750 0.941980 -0.538304
O2    O     O_R   0.823890 0.406510 0.087590 -0.540910
O3    O     O_R   0.999680 0.556250 0.058020 -0.536561
C1    C     C_R   0.655225 0.383596 0.115117 0.687847
O4    O     O_R   0.818360 0.434410 0.944340 -0.534575
O5    O     O_R   0.994110 0.584350 0.913750 -0.533732
C2    C     C_R   0.648332 0.420069 0.924011 0.718942
O6    O     O_R   0.494530 0.415650 0.086250 -0.538739
O7    O     O_3   0.662590 0.549160 0.990130 -0.363978
V1    V     V_3+5 0.935320 0.490880 0.001830 1.448494
O8    O     O_R   0.324180 0.593490 0.912410 -0.537951
C3    C     C_R   0.154948 0.616698 0.885038 0.695848
O9    O     O_R   0.329720 0.565590 0.055660 -0.537888
C4    C     C_R   0.162414 0.579597 0.076321 0.722821
V2    V     V_3+5 0.435990 0.509120 0.998170 1.445230
O10   O     O_3   0.158850 0.450840 0.009870 -0.369582
C5    C     C_3   0.094729 0.700798 0.317825 -0.124105
C6    C     C_3   0.272985 0.695612 0.274143 -0.141102
H1    H     H_    0.388142 0.651247 0.293360 0.121763
H2    H     H_    0.062709 0.661076 0.373533 0.147187
C7    C     C_1   0.156636 0.625076 0.122145 -0.146770
C8    C     C_1   0.109824 0.874102 0.378382 -0.154266
C9    C     C_3   0.963752 0.712954 0.251381 -0.139910
C10   C     C_3   0.141900 0.708381 0.208321 0.155196
C11   C     C_3   0.994408 0.802846 0.227039 -0.143353
C12   C     C_3   0.125472 0.790093 0.292855 0.154359
C13   C     C_3   0.172661 0.797672 0.183374 -0.128691
C14   C     C_3   0.303630 0.785513 0.249807 -0.142753
C15   C     C_1   0.150542 0.662663 0.160901 -0.038258
C16   C     C_1   0.116454 0.836096 0.340009 -0.046959
H3    H     H_    0.204795 0.837423 0.127690 0.130787
C17   C     C_R   0.034066 0.769359 0.879543 -0.191784
C18   C     C_R   0.972657 0.841927 0.879200 0.031852
C19   C     C_R   0.960828 0.905412 0.813878 -0.163128
C20   C     C_R   0.008963 0.896837 0.750032 -0.172161
C21   C     C_R   0.069552 0.824035 0.749259 0.072855
C22   C     C_R   0.082300 0.758981 0.815303 0.049260
C23   C     C_R   0.119290 0.815663 0.684127 -0.161633
C24   C     C_R   0.179204 0.741834 0.684989 0.058768
C25   C     C_R   0.189585 0.676660 0.750751 0.058988
C26   C     C_R   0.143936 0.685277 0.816195 -0.157507
C27   C     C_R   0.223884 0.731270 0.620654 -0.194936
C28   C     C_R   0.274551 0.658004 0.619852 -0.038751
C29   C     C_R   0.285379 0.593291 0.685473 -0.037305
C30   C     C_R   0.242099 0.603229 0.749539 -0.210838
H4    H     H_    0.044369 0.721069 0.930524 0.137960
H5    H     H_    0.914355 0.962210 0.811971 0.153140
H6    H     H_    0.998196 0.948147 0.701311 0.116530
H7    H     H_    0.212870 0.779678 0.569735 0.135247
H8    H     H_    0.931257 0.338842 0.422891 0.126367
C31   C     C_R   0.453953 0.108931 0.253205 -0.144890
C32   C     C_R   0.378849 0.103056 0.190589 -0.123371
C33   C     C_R   0.391295 0.166444 0.126051 -0.116227
C34   C     C_R   0.478813 0.236206 0.123643 -0.132759
C35   C     C_R   0.554342 0.244372 0.186519 0.068850
C36   C     C_R   0.541774 0.179347 0.252706 0.068373
C37   C     C_R   0.645095 0.315192 0.183933 -0.183148
C38   C     C_R   0.723590 0.320891 0.247589 0.069015
C39   C     C_R   0.710960 0.255871 0.313786 0.067120
C40   C     C_R   0.620186 0.185056 0.316365 -0.183608
C41   C     C_R   0.811573 0.391279 0.247078 -0.148187
C42   C     C_R   0.886678 0.397150 0.309703 -0.118204
C43   C     C_R   0.874102 0.333779 0.374258 -0.100570
C44   C     C_R   0.786474 0.264032 0.376668 -0.131518
H9    H     H_    0.443507 0.057357 0.301655 0.110489
H10   H     H_    0.487959 0.283154 0.071795 0.104539
H11   H     H_    0.822169 0.442820 0.198602 0.111030
H12   H     H_    0.953661 0.451427 0.308188 0.121904
O11   O     O_R   0.770540 0.084530 0.414050 -0.538973
O12   O     O_R   0.445710 0.065660 0.555720 -0.533557
O13   O     O_R   0.270420 0.915650 0.586190 -0.535005
C45   C     C_R   0.615635 0.079399 0.576644 0.717513
O14   O     O_R   0.441140 0.093540 0.412470 -0.539873
O15   O     O_R   0.265820 0.943740 0.441930 -0.535321
C46   C     C_R   0.609927 0.116629 0.385152 0.689469
O16   O     O_R   0.775150 0.056440 0.558310 -0.542142
O17   O     O_3   0.602370 0.950960 0.510050 -0.361797
V3    V     V_3+5 0.329450 0.009140 0.498150 1.451099
O18   O     O_R   0.935790 0.934280 0.444060 -0.537108
C47   C     C_R   0.103360 0.920110 0.423717 0.723449
O19   O     O_R   0.940370 0.906390 0.587310 -0.537342
C48   C     C_R   0.109261 0.884078 0.615310 0.692481
V4    V     V_3+5 0.828810 0.990710 0.501460 1.447519
O20   O     O_3   0.105780 0.049100 0.489960 -0.369671
C49   C     C_3   0.701643 0.320128 0.716294 -0.125198
C50   C     C_3   0.523300 0.281339 0.695595 0.003865
H13   H     H_    0.756637 0.380403 0.686587 0.186200
H14   H     H_    0.302554 0.253327 0.791255 0.123544
C51   C     C_1   0.627206 0.123896 0.623081 -0.168607
C52   C     C_1   0.637378 0.373515 0.879191 -0.165091
C53   C     C_3   0.815463 0.243474 0.731290 -0.172483
C54   C     C_3   0.636054 0.205854 0.710274 0.101209
C55   C     C_3   0.746620 0.212410 0.810212 -0.121966
C56   C     C_3   0.632296 0.288282 0.794624 0.127764
C57   C     C_3   0.567115 0.174219 0.788594 -0.113507
C58   C     C_3   0.452383 0.250597 0.773789 -0.213617
C59   C     C_1   0.633538 0.160677 0.662454 -0.013696
C60   C     C_1   0.633154 0.334858 0.841333 -0.014381
H15   H     H_    0.839356 0.184018 0.858050 0.125221
H16   H     H_    0.965110 0.239784 0.714381 0.165302
C61   C     C_2   0.303965 0.651258 0.549036 0.805110
O21   O     O_2   0.259640 0.590955 0.539653 -0.523528
O22   O     O_R   0.376022 0.715498 0.491914 -0.671571
H17   H     H_    0.387342 0.704373 0.446226 0.293970
H18   H     H_    0.251213 0.552469 0.798845 0.134975
H19   H     H_    0.311987 0.048760 0.192098 0.116776
H20   H     H_    0.334162 0.161374 0.077423 0.118182
H21   H     H_    0.777251 0.217084 0.428516 0.108081
C62   C     C_2   0.397566 0.318597 0.630988 0.765540
O23   O     O_2   0.431952 0.385399 0.589876 -0.511818
O24   O     O_R   0.242740 0.276131 0.617744 -0.678689
H22   H     H_    0.168240 0.307220 0.572650 0.294937
H23   H     H_    0.512613 0.113851 0.818212 0.132820
H24   H     H_    0.443981 0.815548 0.249398 0.114425
H25   H     H_    0.879244 0.847208 0.207815 0.114870
H26   H     H_    0.823399 0.682919 0.251796 0.115591
C63   C     C_2   0.343744 0.514405 0.690209 0.826299
O25   O     O_2   0.479468 0.506640 0.655345 -0.524280
O26   O     O_R   0.245827 0.448589 0.736601 -0.669839
H27   H     H_    0.294889 0.398093 0.734164 0.288720
C64   C     C_2   0.921054 0.851140 0.947242 0.740504
O27   O     O_2   0.871410 0.914905 0.946963 -0.567555
O28   O     O_R   0.928521 0.786823 0.012024 -0.674280
H28   H     H_    0.889605 0.800492 0.054497 0.293615

loop_
_geom_bond_atom_site_label_1
_geom_bond_atom_site_label_2
_ccdc_geom_bond_type
C35   C36   A    
H14   C58   S    
C55   C56   S    
O12   V3    S    
C57   C58   S    
C10   C13   S    
C1    O6    A    
O19   C48   A    
C49   C53   S    
O28   H28   S    
O17   V3    S    
C32   C33   A    
C39   C44   A    
C61   O21   D    
C22   C26   A    
C6    C10   S    
C5    C12   S    
C4    C7    S    
C21   C22   A    
C31   C36   A    
C11   H25   S    
O5    C3    A    
C23   C24   A    
C56   C60   S    
V2    O10   S    
C5    H2    S    
C19   C20   A    
C31   H9    S    
C33   H20   S    
C10   C15   S    
C62   O24   S    
C9    H26   S    
O8    V2    S    
O24   H22   S    
C1    C37   S    
O14   V3    S    
O1    V2    S    
C53   H16   S    
O7    V1    S    
C55   H15   S    
C45   O16   A    
O13   C48   A    
C38   C41   A    
C32   H19   S    
C39   C40   A    
C55   C57   S    
O15   C47   A    
O9    C4    A    
C23   C48   S    
C18   C64   S    
H8    C43   S    
O14   C46   A    
C20   H6    S    
O16   V4    S    
O19   V4    S    
C30   H18   S    
C54   C59   S    
C44   H21   S    
C24   C27   A    
C49   H13   S    
C25   C30   A    
C13   H3    S    
C31   C32   A    
C50   C62   S    
C6    C14   S    
C53   C54   S    
O4    C2    A    
C6    H1    S    
C11   C12   S    
C49   C50   S    
C2    C52   S    
C7    C15   T    
C54   C57   S    
O18   C47   A    
C51   C59   T    
C20   C21   A    
O2    C1    A    
C28   C29   A    
C28   C61   S    
C3    C26   S    
O11   V4    S    
C53   C55   S    
C49   C56   S    
C41   H11   S    
V4    O20   S    
C9    C10   S    
C42   C43   A    
C5    C6    S    
C35   C37   A    
C5    C9    S    
C17   C22   A    
C56   C58   S    
C64   O27   D    
O3    C4    A    
C50   C58   S    
C25   C26   A    
C12   C16   S    
O6    V2    S    
O9    V2    S    
C27   C28   A    
O2    V1    S    
C24   C25   A    
C29   C30   A    
C34   C35   A    
C8    C16   T    
O1    C2    A    
C17   H4    S    
O5    V1    S    
O12   C45   A    
O26   H27   S    
C33   C34   A    
C34   H10   S    
C11   C13   S    
C40   C46   S    
C12   C14   S    
C42   H12   S    
C17   C18   A    
C63   O26   S    
C38   C39   A    
C8    C47   S    
O4    V1    S    
O3    V1    S    
C50   C54   S    
C62   O23   D    
O18   V4    S    
C45   C51   S    
C37   C38   A    
C29   C63   S    
C57   H23   S    
C14   H24   S    
C21   C23   A    
C18   C19   A    
O11   C46   A    
C9    C11   S    
O7    V2    S    
C41   C42   A    
C64   O28   S    
C27   H7    S    
C43   C44   A    
V3    O20   S    
C36   C40   A    
C61   O22   S    
O15   V3    S    
O22   H17   S    
O17   V4    S    
V1    O10   S    
C19   H5    S    
C63   O25   D    
C52   C60   T    
O13   V3    S    
O8    C3    A    
C13   C14   S    
