data_mof_unit_23040.cif
_audit_creation_date              2012-12-10T16:55:05-0500
_audit_creation_method            fapswitch 2.2
_symmetry_space_group_name_H-M    P1
_symmetry_Int_Tables_number       1
_space_group_crystal_system       triclinic
_cell_length_a                    9.686398
_cell_length_b                    10.924409
_cell_length_c                    15.501524
_cell_angle_alpha                 89.669842
_cell_angle_beta                  73.7332
_cell_angle_gamma                 89.453715
_cell_volume                      1574.59661786

loop_
_atom_site_label
_atom_site_type_symbol
_atom_type_description
_atom_site_fract_x
_atom_site_fract_y
_atom_site_fract_z
_atom_type_partial_charge
C1    C     C_R   0.999588 0.265262 0.502502 0.888407
C2    C     C_R   0.681680 0.527904 0.911131 0.093250
C3    C     C_R   0.777194 0.485033 0.959328 0.094575
C4    C     C_R   0.536436 0.557266 0.958458 0.093674
C5    C     C_R   0.485795 0.530110 0.051906 0.065373
C6    C     C_R   0.586754 0.493947 0.097931 -0.219984
C7    C     C_R   0.729830 0.472972 0.052347 -0.207979
C8    C     C_R   0.440105 0.612633 0.915843 -0.239672
C9    C     C_R   0.296122 0.631264 0.961551 -0.259031
C10   C     C_R   0.241862 0.592179 0.050110 0.169761
C11   C     C_R   0.336081 0.541373 0.096368 0.087766
C12   C     C_R   0.917005 0.498320 0.672337 0.831265
C13   C     C_R   0.094126 0.604338 0.093286 -0.211073
C14   C     C_R   0.039136 0.569624 0.183014 -0.199147
C15   C     C_R   0.276618 0.502069 0.185416 -0.244106
C16   C     C_2   0.876126 0.934537 0.526169 0.528373
C17   C     C_2   0.998072 0.867596 0.497791 -0.406271
C18   C     C_2   0.881487 0.068568 0.513692 -0.261922
C19   C     C_2   0.998387 0.133492 0.512681 -0.392064
C20   C     C_2   0.401411 0.424177 0.547778 -0.066906
C21   C     C_2   0.555726 0.427805 0.550761 -0.080524
C22   C     C_R   0.998813 0.734912 0.500637 0.877270
C23   C     C_R   0.083366 0.502583 0.327761 0.792855
C24   C     C_R   0.872908 0.495954 0.771298 -0.146235
C25   C     C_R   0.131109 0.520609 0.229937 -0.048224
C26   C     C_R   0.918431 0.450443 0.914080 -0.296723
C27   C     C_R   0.967728 0.455480 0.820023 0.494750
C28   C     C_R   0.732638 0.532797 0.816830 -0.341333
Cu1   Cu    Cu3+1 0.138640 0.500020 0.499980 0.959680
Cu2   Cu    Cu3+1 0.861360 0.499980 0.500020 0.962791
H1    H     H_    0.803090 0.443428 0.090093 0.149174
H2    H     H_    0.021640 0.643016 0.058108 0.142642
H3    H     H_    0.101870 0.909888 0.469859 0.116034
H4    H     H_    0.785019 0.114332 0.506880 0.183546
H5    H     H_    0.093578 0.091034 0.523863 0.155604
H6    H     H_    0.332476 0.355393 0.588454 0.174815
H7    H     H_    0.408983 0.567072 0.464974 0.197796
H8    H     H_    0.586947 0.365754 0.597000 0.149546
H9    H     H_    0.625772 0.554104 0.454470 0.197927
H10   H     H_    0.341346 0.456652 0.222329 0.150100
H11   H     H_    0.926140 0.584801 0.216323 0.155050
H12   H     H_    0.225930 0.674451 0.926656 0.141698
H13   H     H_    0.988158 0.413694 0.951855 0.151735
H14   H     H_    0.663228 0.560211 0.776620 0.174240
H15   H     H_    0.559362 0.482893 0.169810 0.142019
H16   H     H_    0.473348 0.645308 0.847473 0.143055
N1    N     N_2   0.346430 0.498660 0.500980 -0.280704
N2    N     N_2   0.652550 0.498630 0.501000 -0.271689
O1    O     O_R   0.117050 0.321960 0.499980 -0.576593
O2    O     O_R   0.882890 0.321920 0.500020 -0.579251
O3    O     O_R   0.052910 0.500040 0.629810 -0.533134
O4    O     O_R   0.818750 0.499990 0.629840 -0.588388
O5    O     O_R   0.117110 0.678080 0.499980 -0.592252
O6    O     O_R   0.882950 0.678040 0.500020 -0.515439
O7    O     O_R   0.181250 0.500010 0.370160 -0.581803
O8    O     O_R   0.947090 0.499960 0.370190 -0.585362
O9    O     O_3   0.744277 0.876203 0.557514 -0.551978
C29   C     C_3   0.662874 0.929529 0.638785 -0.310163
H17   H     H_    0.613867 0.017750 0.626123 0.157280
H18   H     H_    0.727942 0.942274 0.687000 0.154689
H19   H     H_    0.573619 0.866895 0.671045 0.185452
O10   O     O_3   0.099815 0.404756 0.774695 -0.574427
C30   C     C_3   0.211661 0.467898 0.796543 -0.306514
H20   H     H_    0.199502 0.568981 0.791548 0.152954
H21   H     H_    0.315071 0.441782 0.747784 0.180695
H22   H     H_    0.219375 0.440581 0.864102 0.173050

loop_
_geom_bond_atom_site_label_1
_geom_bond_atom_site_label_2
_ccdc_geom_bond_type
C8    C9    A    
C2    C4    A    
C30   H21   S    
C23   O7    A    
Cu1   Cu2   S    
C27   O10   S    
H7    N1    S    
Cu2   O6    S    
C1    O2    A    
C12   C24   S    
C13   H2    S    
H9    N2    S    
C17   C22   S    
C24   C27   A    
C9    H12   S    
C4    C8    A    
C21   N2    D    
C29   H19   S    
C2    C3    A    
C26   C27   A    
C30   H22   S    
C23   O8    A    
C22   O6    A    
Cu1   O1    S    
C13   C14   A    
C18   H4    S    
O9    C29   S    
O10   C30   S    
C17   H3    S    
Cu1   N1    S    
C14   H11   S    
C22   O5    A    
C11   C15   A    
Cu2   N2    S    
C12   O4    A    
Cu1   O3    S    
C26   H13   S    
C5    C11   A    
C6    C7    A    
C3    C7    A    
C16   O9    S    
C23   C25   S    
C14   C25   A    
Cu2   O2    S    
C5    C6    A    
C8    H16   S    
C15   H10   S    
C15   C25   A    
C20   N1    D    
C7    H1    S    
C10   C11   A    
C6    H15   S    
C29   H18   S    
C30   H20   S    
C20   H6    S    
C12   O3    A    
C20   C21   S    
C16   C18   S    
C18   C19   D    
C9    C10   A    
C19   H5    S    
Cu2   O4    S    
C16   C17   D    
C2    C28   A    
Cu1   O7    S    
C29   H17   S    
C1    C19   S    
Cu2   O8    S    
C28   H14   S    
C3    C26   A    
C21   H8    S    
C24   C28   A    
C4    C5    A    
Cu1   O5    S    
C10   C13   A    
C1    O1    A    
