data_mof_unit_19371.cif
_audit_creation_date              2012-12-11T16:48:37-0500
_audit_creation_method            fapswitch 2.2
_symmetry_space_group_name_H-M    P1
_symmetry_Int_Tables_number       1
_space_group_crystal_system       triclinic
_cell_length_a                    17.454118
_cell_length_b                    24.616678
_cell_length_c                    15.057231
_cell_angle_alpha                 90.108448
_cell_angle_beta                  126.340557
_cell_angle_gamma                 89.652746
_cell_volume                      5211.15430043

loop_
_atom_site_label
_atom_site_type_symbol
_atom_type_description
_atom_site_fract_x
_atom_site_fract_y
_atom_site_fract_z
_atom_type_partial_charge
C1    C     C_R   0.348470 0.350133 0.906324 -0.056511
C2    C     C_R   0.687289 0.373108 0.095104 -0.141983
C3    C     C_R   0.847573 0.850370 0.906410 -0.062941
C4    C     C_R   0.189501 0.876472 0.094868 -0.133633
C5    C     C_R   0.381221 0.683439 0.000487 -0.104385
C6    C     C_R   0.684989 0.638788 0.000828 -0.202438
C7    C     C_R   0.885609 0.184519 0.000223 -0.084110
C8    C     C_R   0.184087 0.139672 0.000098 -0.193737
C9    C     C_R   0.452123 0.497454 0.275883 0.047735
C10   C     C_R   0.449785 0.498863 0.641354 0.049726
C11   C     C_R   0.952363 0.997624 0.275987 0.062592
C12   C     C_R   0.949171 0.999001 0.641125 0.049682
C13   C     C_R   0.173205 0.499489 0.702386 0.088570
C14   C     C_R   0.792949 0.497427 0.372447 0.060678
C15   C     C_R   0.673296 0.999328 0.704385 0.080775
C16   C     C_R   0.292378 0.996288 0.372780 0.095054
C17   C     C_2   0.918559 0.453912 0.541957 -0.148398
C18   C     C_2   0.020490 0.458262 0.629534 -0.053533
C19   C     C_2   0.419589 0.952284 0.540481 -0.085161
C20   C     C_2   0.521013 0.957026 0.629595 -0.023665
C21   C     C_2   0.865353 0.498044 0.491005 -0.162080
C22   C     C_2   0.070345 0.501255 0.636690 -0.168107
C23   C     C_2   0.365344 0.996274 0.491164 -0.197247
C24   C     C_2   0.570416 0.000833 0.639305 -0.152355
C25   C     C_R   0.397983 0.766403 0.112444 0.025920
C26   C     C_R   0.690455 0.728994 0.945744 -0.086137
C27   C     C_R   0.895981 0.265455 0.110712 0.018892
C28   C     C_R   0.191601 0.230645 0.949684 -0.149302
C29   C     C_R   0.363701 0.741489 0.010282 0.140243
C30   C     C_R   0.737339 0.680931 0.995684 0.177438
C31   C     C_R   0.866672 0.242518 0.009109 0.137423
C32   C     C_R   0.236947 0.181735 0.995730 0.178024
C33   C     C_R   0.299846 0.772966 0.915546 -0.037987
C34   C     C_R   0.835699 0.677547 0.046712 -0.063642
C35   C     C_R   0.803730 0.274532 0.915146 -0.034064
C36   C     C_R   0.334573 0.177137 0.043236 -0.047786
C37   C     C_R   0.754230 0.317532 0.919407 -0.206557
C38   C     C_R   0.382809 0.222717 0.043168 -0.198770
C39   C     C_R   0.255874 0.818892 0.920076 -0.208339
C40   C     C_R   0.883080 0.723533 0.046460 -0.195473
C41   C     C_R   0.761628 0.326895 0.015876 0.056370
C42   C     C_R   0.330969 0.270504 0.988714 0.097989
C43   C     C_R   0.267840 0.832115 0.017791 0.102651
C44   C     C_R   0.830013 0.770547 0.988864 0.118095
C45   C     C_R   0.440487 0.650052 0.090024 -0.159937
C46   C     C_R   0.597502 0.623359 0.908921 -0.133568
C47   C     C_R   0.945979 0.151195 0.090153 -0.176198
C48   C     C_R   0.096433 0.124427 0.908418 -0.127566
C49   C     C_R   0.840243 0.304031 0.114968 -0.045874
C50   C     C_R   0.233561 0.271231 0.935306 -0.097157
C51   C     C_R   0.346424 0.808114 0.116066 -0.116643
C52   C     C_R   0.731961 0.769769 0.931046 -0.108077
C53   C     C_3   0.860282 0.278947 0.219829 0.502716
C54   C     C_3   0.144991 0.306158 0.874579 0.512116
C55   C     C_3   0.388939 0.799613 0.237012 0.510287
C56   C     C_3   0.642994 0.804442 0.871543 0.513316
C57   C     C_3   0.439585 0.749451 0.229354 0.286606
C58   C     C_3   0.598022 0.757452 0.895726 0.300389
C59   C     C_3   0.933738 0.242803 0.221425 0.258064
C60   C     C_3   0.099273 0.259444 0.898238 0.234813
C61   C     C_R   0.433310 0.448631 0.491086 0.096600
C62   C     C_R   0.419835 0.445163 0.391737 0.108539
C63   C     C_R   0.935848 0.948919 0.492962 0.099226
C64   C     C_R   0.923482 0.945402 0.394357 0.105680
C65   C     C_R   0.421804 0.496928 0.529710 0.040223
C66   C     C_R   0.412385 0.493781 0.337762 0.023180
C67   C     C_R   0.921956 0.996997 0.529924 0.037958
C68   C     C_R   0.913673 0.993823 0.338797 0.019442
C69   C     C_R   0.388859 0.542813 0.460484 -0.188456
C70   C     C_R   0.385367 0.541455 0.365026 -0.153206
C71   C     C_R   0.887746 0.042554 0.459753 -0.188617
C72   C     C_R   0.884750 0.041150 0.364600 -0.157864
C73   C     C_3   0.485334 0.395818 0.432405 -0.100384
C74   C     C_3   0.505914 0.403853 0.545163 -0.069287
C75   C     C_3   0.991560 0.897210 0.436816 -0.108717
C76   C     C_3   0.010383 0.905194 0.548706 -0.068501
C77   C     C_R   0.479186 0.453093 0.244710 -0.141983
C78   C     C_R   0.457484 0.453864 0.700622 -0.155337
C79   C     C_R   0.979234 0.953210 0.244755 -0.148000
C80   C     C_R   0.956957 0.953960 0.700314 -0.156612
C81   C     C_R   0.230015 0.544856 0.738762 -0.063384
C82   C     C_R   0.748183 0.542627 0.309375 0.008469
C83   C     C_R   0.730009 0.044767 0.740314 -0.059000
C84   C     C_R   0.246793 0.041675 0.310712 0.018467
C85   C     C_R   0.481227 0.544121 0.250440 -0.092164
C86   C     C_R   0.460637 0.544485 0.701177 -0.072225
C87   C     C_R   0.981206 0.044274 0.250280 -0.108243
C88   C     C_R   0.960270 0.044587 0.701058 -0.071308
C89   C     C_R   0.231054 0.453764 0.735463 -0.016397
C90   C     C_R   0.749198 0.453257 0.305509 -0.092569
C91   C     C_R   0.731176 0.953691 0.736495 -0.008039
C92   C     C_R   0.249709 0.952530 0.304743 -0.029925
C93   C     C_R   0.354428 0.652216 0.907496 0.509185
C94   C     C_R   0.688839 0.627015 0.093172 0.595089
C95   C     C_R   0.855835 0.152532 0.907353 0.500448
C96   C     C_R   0.188962 0.127037 0.092718 0.603205
C97   C     C_R   0.441159 0.348130 0.089756 -0.060698
C98   C     C_R   0.595842 0.370180 0.910995 -0.130233
C99   C     C_R   0.940305 0.848415 0.089888 -0.064135
C100  C     C_R   0.099063 0.873349 0.911741 -0.137382
C101  C     C_R   0.375634 0.319605 0.995636 0.087616
C102  C     C_R   0.684606 0.355475 0.007198 0.072821
C103  C     C_R   0.873798 0.820144 0.995829 0.095874
C104  C     C_R   0.189625 0.860716 0.008156 0.082791
H1    H     H_    0.306623 0.337168 0.821260 0.075971
H2    H     H_    0.745373 0.371870 0.180070 0.202053
H3    H     H_    0.805780 0.837250 0.821444 0.078044
H4    H     H_    0.247650 0.877877 0.178716 0.157934
H5    H     H_    0.887866 0.537554 0.530488 0.149908
H6    H     H_    0.036160 0.537885 0.588719 0.152904
H7    H     H_    0.386773 0.035465 0.532084 0.145239
H8    H     H_    0.535829 0.037770 0.592819 0.151531
H9    H     H_    0.273022 0.760815 0.834505 0.215187
H10   H     H_    0.875448 0.641072 0.090202 0.139109
H11   H     H_    0.783331 0.265125 0.835090 0.220275
H12   H     H_    0.373214 0.139931 0.083705 0.141937
H13   H     H_    0.701541 0.338277 0.843155 0.123344
H14   H     H_    0.459019 0.220940 0.085300 0.130518
H15   H     H_    0.202549 0.838868 0.843096 0.119190
H16   H     H_    0.959667 0.722765 0.091396 0.125677
H17   H     H_    0.407301 0.710151 0.226312 -0.013844
H18   H     H_    0.540377 0.734621 0.822778 0.060826
H19   H     H_    0.920272 0.199126 0.222504 -0.016009
H20   H     H_    0.042163 0.236511 0.825083 0.089863
H21   H     H_    0.374744 0.580832 0.484580 0.129784
H22   H     H_    0.371826 0.578965 0.320396 0.124957
H23   H     H_    0.872025 0.080360 0.482803 0.134060
H24   H     H_    0.869700 0.078333 0.318675 0.125578
H25   H     H_    0.549164 0.400971 0.433834 0.139229
H26   H     H_    0.483478 0.369407 0.572172 0.119170
H27   H     H_    0.055376 0.903721 0.438708 0.135635
H28   H     H_    0.988567 0.870308 0.575539 0.118636
H29   H     H_    0.486835 0.662114 0.173496 0.211503
H30   H     H_    0.568730 0.631258 0.823965 0.125570
H31   H     H_    0.999771 0.163553 0.173117 0.201164
H32   H     H_    0.067002 0.132718 0.823386 0.128874
H33   H     H_    0.464009 0.411240 0.246723 0.114901
H34   H     H_    0.437271 0.412734 0.670784 0.096670
H35   H     H_    0.964176 0.911418 0.247127 0.114940
H36   H     H_    0.936785 0.912829 0.670359 0.099498
H37   H     H_    0.206004 0.586294 0.726737 0.175925
H38   H     H_    0.751193 0.581176 0.344573 0.173007
H39   H     H_    0.705968 0.086214 0.729099 0.173771
H40   H     H_    0.248495 0.079357 0.347397 0.163210
H41   H     H_    0.471328 0.585926 0.263667 0.117371
H42   H     H_    0.447023 0.585952 0.672299 0.115391
H43   H     H_    0.971213 0.086161 0.263142 0.106826
H44   H     H_    0.946576 0.086086 0.672270 0.117664
H45   H     H_    0.209553 0.411933 0.716361 0.095042
H46   H     H_    0.751941 0.412689 0.333489 0.159318
H47   H     H_    0.709797 0.911828 0.717603 0.102453
H48   H     H_    0.255951 0.910810 0.330647 0.076302
H49   H     H_    0.483102 0.333122 0.173615 0.088684
H50   H     H_    0.569057 0.363099 0.826412 0.092659
H51   H     H_    0.982501 0.833299 0.173656 0.082152
H52   H     H_    0.073124 0.866973 0.827294 0.092413
H53   H     H_    0.893599 0.414159 0.505187 0.170795
H54   H     H_    0.057402 0.422115 0.675904 0.178114
H55   H     H_    0.396003 0.912764 0.501838 0.150669
H56   H     H_    0.558242 0.920620 0.674416 0.172840
N1    N     N_R   0.395410 0.396350 0.944340 -0.036721
N2    N     N_R   0.604590 0.396350 0.055660 -0.055543
N3    N     N_R   0.895410 0.896350 0.944340 -0.036423
N4    N     N_R   0.104590 0.896350 0.055660 -0.057029
N5    N     N_R   0.449930 0.602500 0.055880 -0.077569
N6    N     N_R   0.550070 0.602500 0.944120 -0.038442
N7    N     N_R   0.949930 0.102500 0.055880 -0.079724
N8    N     N_R   0.050070 0.102500 0.944120 -0.042404
N9    N     N_R   0.525080 0.471030 0.205650 -0.050894
N10   N     N_R   0.474920 0.471030 0.794350 -0.050274
N11   N     N_R   0.025080 0.971030 0.205650 -0.052501
N12   N     N_R   0.974920 0.971030 0.794350 -0.049066
N13   N     N_R   0.320260 0.527820 0.794570 -0.030593
N14   N     N_R   0.679740 0.527820 0.205430 -0.075930
N15   N     N_R   0.820260 0.027820 0.794570 -0.028950
N16   N     N_R   0.179740 0.027820 0.205430 -0.073173
N17   N     N_R   0.524590 0.527840 0.205200 -0.046632
N18   N     N_R   0.475410 0.527840 0.794800 -0.029325
N19   N     N_R   0.024590 0.027840 0.205200 -0.049646
N20   N     N_R   0.975410 0.027840 0.794800 -0.029319
N21   N     N_R   0.320750 0.471000 0.795020 -0.063659
N22   N     N_R   0.679250 0.471000 0.204980 -0.064634
N23   N     N_R   0.820750 0.971000 0.795020 -0.065071
N24   N     N_R   0.179250 0.971000 0.204980 -0.066976
N25   N     N_R   0.393620 0.602490 0.942710 -0.097759
N26   N     N_R   0.606380 0.602490 0.057290 -0.093843
N27   N     N_R   0.893620 0.102490 0.942710 -0.097238
N28   N     N_R   0.106380 0.102490 0.057290 -0.096754
N29   N     N_R   0.451720 0.396350 0.057510 -0.044889
N30   N     N_R   0.548280 0.396350 0.942490 -0.049243
N31   N     N_R   0.951720 0.896350 0.057510 -0.046087
N32   N     N_R   0.048280 0.896350 0.942490 -0.047340
Ni1   Ni    Ni4+2 0.435420 0.434270 0.870230 0.215778
Ni2   Ni    Ni4+2 0.564580 0.434270 0.129770 0.210462
Ni3   Ni    Ni4+2 0.935420 0.934270 0.870230 0.220476
Ni4   Ni    Ni4+2 0.064580 0.934270 0.129770 0.193584
Ni5   Ni    Ni4+2 0.563430 0.564580 0.128740 0.298834
Ni6   Ni    Ni4+2 0.436570 0.564580 0.871260 0.320631
Ni7   Ni    Ni4+2 0.063430 0.064580 0.128740 0.283472
Ni8   Ni    Ni4+2 0.936570 0.064580 0.871260 0.322139
S1    S     S_3+6 0.906778 0.323482 0.338013 -0.034488
O1    O     O_2   0.834057 0.329720 0.360392 -0.400742
O2    O     O_2   0.994673 0.299901 0.440364 -0.228826
O3    O     O_3   0.931038 0.385045 0.312234 -0.493994
H57   H     H_    0.955879 0.406413 0.379945 0.364894
S2    S     S_3+6 0.164079 0.372324 0.938737 -0.003802
O4    O     O_2   0.186553 0.413274 0.883795 -0.342723
O5    O     O_2   0.076385 0.391155 0.926781 -0.203025
O6    O     O_3   0.256626 0.370622 0.073018 -0.545992
H58   H     H_    0.263177 0.408407 0.099303 0.373080
S3    S     S_3+6 0.460055 0.859270 0.313212 0.007416
O7    O     O_2   0.401015 0.910206 0.269444 -0.311992
O8    O     O_2   0.500672 0.853852 0.433048 -0.299632
O9    O     O_3   0.548753 0.867253 0.300454 -0.456350
H59   H     H_    0.590157 0.895517 0.354981 0.369216
S4    S     S_3+6 0.662361 0.870308 0.936695 -0.006546
O10   O     O_2   0.687537 0.911246 0.884406 -0.346558
O11   O     O_2   0.574078 0.889818 0.922615 -0.234333
O12   O     O_3   0.753114 0.867351 0.071683 -0.511061
H60   H     H_    0.762276 0.905263 0.098251 0.361740
C105  C     C_3   0.773898 0.245095 0.193790 -0.527368
C106  C     C_3   0.797859 0.206135 0.286635 -0.728304
H61   H     H_    0.855459 0.177391 0.307778 0.224216
H62   H     H_    0.819715 0.228481 0.362148 0.301144
H63   H     H_    0.733784 0.182077 0.259356 0.229117
H64   H     H_    0.716042 0.272575 0.176714 0.229364
H65   H     H_    0.744343 0.220623 0.117829 0.170591
C107  C     C_3   0.100132 0.309433 0.750008 -0.532994
C108  C     C_3   0.993679 0.323062 0.679335 -0.739816
H66   H     H_    0.951510 0.288354 0.675175 0.260814
H67   H     H_    0.979160 0.358848 0.712218 0.279265
H68   H     H_    0.968881 0.331805 0.593980 0.283059
H69   H     H_    0.137843 0.339897 0.735577 0.221756
H70   H     H_    0.108739 0.269979 0.720481 0.206455
C109  C     C_3   0.321395 0.781617 0.267374 -0.553989
C110  C     C_3   0.368143 0.743044 0.366951 -0.793023
H71   H     H_    0.372128 0.700852 0.343994 0.235757
H72   H     H_    0.440594 0.756943 0.434560 0.303711
H73   H     H_    0.324678 0.741991 0.398682 0.241667
H74   H     H_    0.299222 0.816856 0.292716 0.224401
H75   H     H_    0.256669 0.762050 0.195437 0.186018
C111  C     C_3   0.597601 0.808013 0.746808 -0.528507
C112  C     C_3   0.491195 0.821708 0.676399 -0.800445
H76   H     H_    0.449262 0.787493 0.674483 0.262015
H77   H     H_    0.477168 0.858233 0.708048 0.290411
H78   H     H_    0.465698 0.829150 0.590279 0.260013
H79   H     H_    0.635426 0.838442 0.732406 0.228102
H80   H     H_    0.605853 0.768595 0.716850 0.194166
S5    S     S_3+6 0.568196 0.745077 0.325632 0.020570
O13   O     O_2   0.605081 0.774006 0.431679 -0.241678
O14   O     O_2   0.598350 0.686697 0.355170 -0.317711
O15   O     O_3   0.617197 0.771548 0.267446 -0.431415
H81   H     H_    0.681866 0.782599 0.330145 0.363499
S6    S     S_3+6 0.572083 0.769929 0.993288 0.101524
O16   O     O_2   0.486436 0.806507 0.941512 -0.232912
O17   O     O_2   0.549671 0.717152 0.021969 -0.253260
O18   O     O_3   0.663978 0.797863 0.110403 -0.415579
H82   H     H_    0.635948 0.827372 0.127700 0.390414
S7    S     S_3+6 0.058888 0.259784 0.310335 0.046595
O19   O     O_2   0.106833 0.228898 0.416910 -0.276681
O20   O     O_2   0.103153 0.243854 0.253872 -0.214606
O21   O     O_3   0.077189 0.326767 0.335736 -0.423484
H83   H     H_    0.147228 0.330922 0.383921 0.358690
S8    S     S_3+6 0.071180 0.272342 0.993668 0.102238
O22   O     O_2   0.982332 0.306343 0.937399 -0.192213
O23   O     O_2   0.053536 0.219239 0.026494 -0.269749
O24   O     O_3   0.157576 0.304316 0.108512 -0.408571
H84   H     H_    0.216736 0.286269 0.129436 0.382103
C113  C     C_3   0.434002 0.341466 0.377082 -0.380756
C114  C     C_3   0.336693 0.334771 0.355138 -0.673984
H85   H     H_    0.340720 0.340254 0.430843 0.210882
H86   H     H_    0.284709 0.364379 0.291867 0.275405
H87   H     H_    0.310258 0.293103 0.324753 0.290234
H88   H     H_    0.423791 0.337000 0.297412 0.214861
H89   H     H_    0.481133 0.307479 0.430657 0.223062
C115  C     C_3   0.609852 0.420714 0.637336 -0.343316
C116  C     C_3   0.645019 0.473022 0.617161 -0.800398
H90   H     H_    0.638026 0.471328 0.539097 0.245000
H91   H     H_    0.606087 0.509069 0.615917 0.253011
H92   H     H_    0.721457 0.478545 0.685599 0.253638
H93   H     H_    0.617982 0.425328 0.715850 0.193006
H94   H     H_    0.657607 0.386756 0.649850 0.207865
C117  C     C_3   0.943528 0.842018 0.383003 -0.340544
C118  C     C_3   0.844451 0.834844 0.355687 -0.718229
H95   H     H_    0.845487 0.839967 0.429539 0.211338
H96   H     H_    0.793436 0.864401 0.291477 0.259780
H97   H     H_    0.819009 0.793310 0.324001 0.302273
H98   H     H_    0.937176 0.836481 0.305848 0.212072
H99   H     H_    0.990651 0.808801 0.439624 0.213926
C119  C     C_3   0.113261 0.923388 0.641596 -0.339509
C120  C     C_3   0.146833 0.976331 0.621258 -0.807572
H100  H     H_    0.140837 0.974843 0.543793 0.243527
H101  H     H_    0.106143 0.011759 0.618737 0.254094
H102  H     H_    0.222807 0.982804 0.690293 0.252999
H103  H     H_    0.120195 0.927844 0.719418 0.193201
H104  H     H_    0.162685 0.890160 0.655508 0.206433
S9    S     S_3+6 0.317602 0.675784 0.775814 -0.095210
O25   O     O_2   0.212742 0.688248 0.705473 -0.359023
O26   O     O_2   0.371269 0.725778 0.786602 -0.281810
O27   O     O_3   0.337751 0.628405 0.711740 -0.587015
H105  H     H_    0.307046 0.642725 0.636229 0.364661
S10   S     S_3+6 0.766263 0.659757 0.221972 -0.038790
O28   O     O_2   0.853336 0.625147 0.295926 -0.349299
O29   O     O_2   0.797819 0.713428 0.207335 -0.250006
O30   O     O_3   0.709855 0.671119 0.279647 -0.491843
H106  H     H_    0.759197 0.686190 0.353408 0.376059
S11   S     S_3+6 0.817858 0.175475 0.774948 -0.093784
O31   O     O_2   0.714110 0.190543 0.707622 -0.353628
O32   O     O_2   0.874613 0.223689 0.784873 -0.288837
O33   O     O_3   0.832432 0.126889 0.707931 -0.585813
H107  H     H_    0.801675 0.141465 0.632592 0.368345
S12   S     S_3+6 0.274498 0.154494 0.225653 -0.055439
O34   O     O_2   0.355659 0.115015 0.291587 -0.322132
O35   O     O_2   0.314718 0.206405 0.217789 -0.324669
O36   O     O_3   0.224520 0.168019 0.290046 -0.515805
H108  H     H_    0.276405 0.183509 0.362157 0.378973

loop_
_geom_bond_atom_site_label_1
_geom_bond_atom_site_label_2
_ccdc_geom_bond_type
C99   C103  A    
S1    O2    D    
C79   H35   S    
C19   C20   S    
S4    O12   S    
C98   N30   A    
N10   N18   A    
C14   C21   S    
C118  H95   S    
C63   C76   S    
C53   C105  S    
C29   C33   A    
C100  C104  A    
N31   Ni4   S    
C14   C90   A    
S6    O17   D    
N29   Ni2   S    
C120  H100  S    
C6    C94   A    
C35   H11   S    
N22   Ni2   S    
N8    Ni8   S    
C70   H22   S    
C93   S9    S    
C94   S10   S    
C95   S11   S    
C107  C108  S    
C25   C29   A    
C58   H18   S    
C27   C31   A    
N32   Ni3   S    
C28   C32   A    
C30   C34   A    
S2    O4    D    
C98   C102  A    
C53   S1    S    
C89   N21   A    
C19   C23   D    
C75   C76   S    
N6    Ni6   S    
C108  H66   S    
C46   H30   S    
C68   C72   A    
C88   H44   S    
C9    C77   A    
C11   C79   A    
C6    C30   S    
C55   C57   S    
C114  H86   S    
C80   N12   A    
N16   Ni7   S    
C57   S5    S    
C1    C101  A    
N2    N30   A    
O27   H105  S    
N15   N23   A    
C3    C103  A    
N16   N24   A    
C56   C111  S    
C117  H98   S    
N6    N26   A    
C118  H97   S    
S7    O20   D    
N10   Ni1   S    
C61   C74   S    
C105  H65   S    
C45   H29   S    
S6    O18   S    
N27   Ni8   S    
C83   H39   S    
C66   C70   A    
C115  H94   S    
C49   C53   S    
C4    C104  A    
C58   S6    S    
C51   C55   S    
C69   C70   A    
C15   C91   A    
C61   C65   A    
C37   H13   S    
C20   H56   S    
C1    H1    S    
O15   H81   S    
C98   H50   S    
C109  H74   S    
C24   H8    S    
C86   N18   A    
C90   H46   S    
C2    N2    A    
C10   C78   A    
S5    O13   D    
C113  H88   S    
C119  H104  S    
C64   C68   A    
C120  H101  S    
S4    O11   D    
C108  H68   S    
C84   H40   S    
C79   N11   A    
C78   N10   A    
S12   O34   D    
O18   H82   S    
C43   C104  S    
C109  H75   S    
C9    C85   A    
C11   C87   A    
S8    O22   D    
C55   S3    S    
C62   C73   S    
C17   H53   S    
C76   C119  S    
C44   C52   A    
C97   N29   A    
N17   Ni5   S    
C116  H90   S    
S9    O26   D    
N11   N19   A    
C100  N32   A    
C25   C57   S    
N9    N17   A    
C44   C103  S    
O6    H58   S    
C28   C60   S    
S10   O29   D    
C62   C66   A    
C82   N14   A    
C92   N24   A    
C106  H63   S    
C22   H6    S    
C2    H2    S    
C16   C84   A    
C111  H80   S    
C81   N13   A    
C105  C106  S    
N20   Ni8   S    
C112  H78   S    
C17   C18   S    
N1    Ni1   S    
C106  H62   S    
C107  H69   S    
C42   C50   A    
S8    O23   D    
C15   C24   S    
C26   C30   A    
C16   C23   S    
C36   H12   S    
C42   C101  S    
C11   C68   S    
C10   C86   A    
N14   Ni5   S    
C47   H31   S    
C18   C22   D    
C48   H32   S    
C94   N26   A    
C21   H5    S    
O24   H84   S    
N4    Ni4   S    
O21   H83   S    
C23   H7    S    
C33   H9    S    
S12   O36   S    
S11   O33   S    
C118  H96   S    
C71   C72   A    
C76   H28   S    
C100  H52   S    
S8    O24   S    
C39   H15   S    
S1    O3    S    
C64   C75   S    
C56   C58   S    
C37   C41   A    
C61   C62   A    
C56   S4    S    
C69   H21   S    
C63   C64   A    
C40   C44   A    
S3    O9    S    
O3    H57   S    
C116  H92   S    
C117  C118  S    
N7    Ni7   S    
N3    N31   A    
N4    N32   A    
C27   C49   A    
N8    N28   A    
C91   N23   A    
C73   C74   S    
C60   S8    S    
C82   H38   S    
C71   H23   S    
C95   N27   A    
C4    H4    S    
C50   C54   S    
C87   H43   S    
C77   H33   S    
S2    O5    D    
C112  H76   S    
C13   C81   A    
C119  C120  S    
S9    O25   D    
C41   C49   A    
N30   Ni1   S    
N14   N22   A    
C54   S2    S    
C99   H51   S    
N23   Ni3   S    
C109  C110  S    
C97   H49   S    
N21   Ni1   S    
C3    N3    A    
N12   N20   A    
C89   H45   S    
C1    N1    A    
O36   H108  S    
C113  C114  S    
C114  H87   S    
C59   S7    S    
C86   H42   S    
C88   N20   A    
C59   H19   S    
C73   H25   S    
S11   O31   D    
O12   H60   S    
C15   C83   A    
C80   H36   S    
C5    C45   A    
C105  H64   S    
C117  H99   S    
C7    C47   A    
C8    C48   A    
S6    O16   D    
C18   H54   S    
N5    Ni5   S    
S3    O7    D    
N3    Ni3   S    
C41   C102  S    
C26   C58   S    
C54   C107  S    
C96   S12   S    
C40   H16   S    
C16   C92   A    
C31   C35   A    
C14   C82   A    
C74   H26   S    
C32   C36   A    
O33   H107  S    
C46   N6    A    
C55   C109  S    
N11   Ni4   S    
C110  H73   S    
N9    Ni2   S    
C19   H55   S    
C36   C38   A    
C108  H67   S    
N24   Ni4   S    
C99   N31   A    
C43   C51   A    
N19   Ni7   S    
C65   C69   A    
C85   H41   S    
C110  H72   S    
C13   C22   S    
C67   C71   A    
C17   C21   D    
C38   H14   S    
C85   N17   A    
O30   H106  S    
C2    C102  A    
C114  H85   S    
N12   Ni3   S    
C73   C113  S    
C84   N16   A    
C45   N5    A    
C93   N25   A    
C83   N15   A    
S1    O1    D    
C96   N28   A    
C8    C96   A    
S7    O21   S    
C53   C59   S    
C54   C60   S    
C110  H71   S    
S10   O30   S    
C33   C39   A    
C72   H24   S    
C34   C40   A    
C35   C37   A    
C38   C42   A    
C115  H93   S    
C75   C117  S    
C60   H20   S    
C9    C66   S    
C28   C50   A    
C90   N22   A    
C112  H77   S    
C92   H48   S    
C4    N4    A    
N25   Ni6   S    
C107  H70   S    
S12   O35   D    
C81   H37   S    
N18   Ni6   S    
C78   H34   S    
C75   H27   S    
C111  C112  S    
C5    C29   S    
C12   C67   S    
C63   C67   A    
S5    O14   D    
C7    C31   S    
C113  H89   S    
C119  H103  S    
C8    C32   S    
C20   C24   D    
C120  H102  S    
S4    O10   D    
N1    N29   A    
O9    H59   S    
C39   C43   A    
N28   Ni7   S    
C3    H3    S    
C57   H17   S    
N5    N25   A    
S11   O32   D    
C25   C51   A    
C26   C52   A    
C47   N7    A    
C48   N8    A    
N7    N27   A    
N2    Ni2   S    
N26   Ni5   S    
C115  C116  S    
S3    O8    D    
C116  H91   S    
S9    O27   S    
S7    O19   D    
C10   C65   S    
S10   O28   D    
C6    C46   A    
C13   C89   A    
N13   Ni6   S    
C5    C93   A    
C34   H10   S    
C7    C95   A    
C111  H79   S    
C27   C59   S    
C91   H47   S    
S2    O6    S    
C12   C80   A    
C74   C115  S    
N13   N21   A    
C106  H61   S    
C97   C101  A    
N15   Ni8   S    
S5    O15   S    
C87   N19   A    
C77   N9    A    
C12   C88   A    
C52   C56   S    
