data_mof_unit_49020.cif
_audit_creation_date              2012-12-10T17:42:42-0500
_audit_creation_method            fapswitch 2.2
_symmetry_space_group_name_H-M    P1
_symmetry_Int_Tables_number       1
_space_group_crystal_system       triclinic
_cell_length_a                    9.950373
_cell_length_b                    10.698349
_cell_length_c                    13.139761
_cell_angle_alpha                 91.55811
_cell_angle_beta                  71.362648
_cell_angle_gamma                 88.409097
_cell_volume                      1323.93904319

loop_
_atom_site_label
_atom_site_type_symbol
_atom_type_description
_atom_site_fract_x
_atom_site_fract_y
_atom_site_fract_z
_atom_type_partial_charge
C1    C     C_R   0.500424 0.739685 0.492159 0.884149
C2    C     C_R   0.381150 0.468814 0.818349 -0.107477
C3    C     C_R   0.242075 0.901020 0.494234 -0.251727
C4    C     C_R   0.423441 0.490152 0.702884 0.841288
C5    C     C_R   0.115846 0.973379 0.531202 0.538294
C6    C     C_R   0.109299 0.082470 0.593262 -0.209154
C7    C     C_R   0.233790 0.128909 0.603076 -0.229776
C8    C     C_R   0.365562 0.067343 0.547867 0.122745
C9    C     C_R   0.366881 0.943950 0.510368 0.034878
C10   C     C_R   0.496646 0.873414 0.482540 -0.147186
C11   C     C_R   0.624574 0.933349 0.459685 -0.096940
C12   C     C_R   0.448397 0.443995 0.979666 0.108394
C13   C     C_R   0.623951 0.060903 0.473957 -0.081775
C14   C     C_R   0.495559 0.128059 0.518786 -0.135126
C15   C     C_R   0.795216 0.658915 0.647217 -0.177542
C16   C     C_R   0.497507 0.261110 0.509544 0.915105
C17   C     C_R   0.832464 0.732804 0.722138 0.712563
C18   C     C_R   0.972059 0.732610 0.721173 -0.293770
C19   C     C_R   0.074958 0.657617 0.646053 -0.282230
C20   C     C_R   0.040006 0.577740 0.572190 0.196858
C21   C     C_R   0.895436 0.577715 0.572588 0.126099
C22   C     C_R   0.959223 0.422869 0.433028 -0.089672
C23   C     C_R   0.483703 0.430665 0.867195 0.092904
C24   C     C_R   0.101591 0.422171 0.434001 -0.070137
C25   C     C_R   0.578315 0.490928 0.296721 0.929161
C26   C     C_R   0.807091 0.445938 0.006835 -0.167964
C27   C     C_R   0.626020 0.461162 0.181590 -0.176735
C28   C     C_R   0.241889 0.502317 0.882500 -0.204177
C29   C     C_R   0.206247 0.508624 0.993797 -0.131280
C30   C     C_R   0.309303 0.483872 0.042068 -0.090154
C31   C     C_R   0.557414 0.429032 0.025662 -0.003539
C32   C     C_R   0.700893 0.424260 0.960235 0.157391
C33   C     C_R   0.733201 0.393908 0.851385 -0.204680
C34   C     C_R   0.623362 0.385331 0.807687 -0.159515
C35   C     C_R   0.528439 0.414058 0.134864 0.337303
C36   C     C_R   0.767727 0.474473 0.117191 -0.220679
F1    F     F_    0.732923 0.808219 0.793966 -0.636090
H1    H     H_    0.847426 0.502394 0.152379 0.171466
H2    H     H_    0.841984 0.374745 0.800902 0.138551
H3    H     H_    0.178962 0.356745 0.382220 0.232123
H4    H     H_    0.917582 0.446929 0.957834 0.141123
H5    H     H_    0.162444 0.530612 0.846507 0.153773
H6    H     H_    0.281030 0.501673 0.127941 0.156708
H7    H     H_    0.100333 0.539740 0.042646 0.138978
H8    H     H_    0.651379 0.347480 0.726285 0.184758
H9    H     H_    0.724753 0.881235 0.428954 0.217694
H10   H     H_    0.977883 0.800492 0.361264 0.372101
H11   H     H_    0.462185 0.082689 0.122867 0.393392
H12   H     H_    0.244521 0.818929 0.443963 0.215444
H13   H     H_    0.010597 0.136854 0.626176 0.179195
H14   H     H_    0.227340 0.216889 0.647406 0.170076
H15   H     H_    0.723346 0.107657 0.448025 0.223379
H16   H     H_    0.930932 0.359482 0.378268 0.176117
H17   H     H_    0.687756 0.669856 0.649294 0.220311
H18   H     H_    0.001507 0.792540 0.777699 0.186605
H19   H     H_    0.181013 0.665195 0.647248 0.234323
N1    N     N_R   0.856860 0.501200 0.500990 -0.119509
N2    N     N_R   0.142450 0.501280 0.501020 -0.129751
O1    O     O_R   0.385310 0.683220 0.500000 -0.645607
O2    O     O_2   0.972050 0.031033 0.402133 -0.353464
O3    O     O_3   0.991639 0.792754 0.432290 -0.602052
O4    O     O_2   0.458510 0.240008 0.288194 -0.313541
O5    O     O_2   0.284764 0.287044 0.196269 -0.342195
O6    O     O_3   0.512463 0.158382 0.091959 -0.510258
O7    O     O_R   0.614640 0.683250 0.500010 -0.611042
O8    O     O_R   0.328400 0.499950 0.653610 -0.646761
O9    O     O_R   0.557730 0.499970 0.653620 -0.650459
O10   O     O_R   0.385360 0.316750 0.499990 -0.581204
O11   O     O_R   0.614690 0.316780 0.500000 -0.631220
O12   O     O_R   0.442270 0.500030 0.346380 -0.588249
O13   O     O_R   0.671600 0.500050 0.346390 -0.615407
O14   O     O_2   0.837799 0.954773 0.578820 -0.303931
S1    S     S_3+6 0.973461 0.939112 0.486312 -0.040227
S2    S     S_3+6 0.439968 0.274634 0.183525 0.023064
Zn1   Zn    Zn3+2 0.346880 0.499980 0.499990 0.968110
Zn2   Zn    Zn3+2 0.653120 0.500020 0.500010 0.957777

loop_
_geom_bond_atom_site_label_1
_geom_bond_atom_site_label_2
_ccdc_geom_bond_type
C19   H19   S    
C35   S2    S    
C26   C32   A    
C19   C20   A    
C22   N1    A    
C3    H12   S    
C7    C8    A    
O10   Zn1   S    
C12   C23   A    
C33   H2    S    
O7    Zn2   S    
N1    Zn2   S    
C28   C29   A    
C1    O1    A    
O13   Zn2   S    
H11   O6    S    
O2    S1    D    
O11   Zn2   S    
C18   C19   A    
C8    C9    A    
C1    O7    A    
C25   O13   A    
C9    C10   A    
C13   C14   A    
N2    Zn1   S    
C33   C34   A    
C22   H16   S    
C1    C10   S    
C15   H17   S    
C27   C35   A    
C2    C4    S    
C21   N1    A    
C29   C30   A    
C3    C9    A    
C13   H15   S    
C31   C32   A    
C23   C34   A    
C17   C18   A    
C34   H8    S    
C17   F1    S    
C6    H13   S    
C18   H18   S    
C16   O10   A    
C26   C36   A    
C12   C31   A    
C14   C16   S    
C30   H6    S    
C20   N2    A    
O1    Zn1   S    
O12   Zn1   S    
C15   C17   A    
C8    C14   A    
C12   C30   A    
C16   O11   A    
O14   S1    D    
C3    C5    A    
H10   O3    S    
C4    O9    A    
C6    C7    A    
C25   O12   A    
O5    S2    D    
C27   C36   A    
C25   C27   S    
O3    S1    S    
C32   C33   A    
C36   H1    S    
C7    H14   S    
C29   H7    S    
C4    O8    A    
C11   C13   A    
C5    C6    A    
O8    Zn1   S    
C31   C35   A    
C28   H5    S    
C24   H3    S    
C22   C24   A    
C5    S1    S    
C10   C11   A    
C15   C21   A    
C20   C21   A    
C24   N2    A    
C2    C23   A    
O6    S2    S    
O4    S2    D    
C11   H9    S    
C2    C28   A    
O9    Zn2   S    
C26   H4    S    
