data_mof_unit_21148.cif
_audit_creation_date              2012-12-11T15:46:40-0500
_audit_creation_method            fapswitch 2.2
_symmetry_space_group_name_H-M    P1
_symmetry_Int_Tables_number       1
_space_group_crystal_system       triclinic
_cell_length_a                    11.538941
_cell_length_b                    11.537414
_cell_length_c                    19.562922
_cell_angle_alpha                 90.428621
_cell_angle_beta                  90.084788
_cell_angle_gamma                 59.992768
_cell_volume                      2255.24380116

loop_
_atom_site_label
_atom_site_type_symbol
_atom_type_description
_atom_site_fract_x
_atom_site_fract_y
_atom_site_fract_z
_atom_type_partial_charge
C1    C     C_R   0.640476 0.117199 0.599296 0.547370
C2    C     C_1   0.653111 0.149423 0.668668 0.002840
C3    C     C_R   0.649433 0.690958 0.186941 0.015976
C4    C     C_R   0.612511 0.745960 0.598655 0.545396
C5    C     C_R   0.530687 0.722957 0.221468 0.016814
C6    C     C_R   0.526550 0.731430 0.290899 0.054919
C7    C     C_R   0.743368 0.712807 0.293799 -0.164615
C8    C     C_R   0.749642 0.701967 0.222452 -0.166787
C9    C     C_3   0.438480 0.665310 0.221110 -0.244740
C10   C     C_3   0.435326 0.675461 0.298611 -0.137888
C11   C     C_R   0.635705 0.714969 0.328840 0.019047
C12   C     C_1   0.641309 0.703899 0.668024 0.003736
C13   C     C_R   0.159080 0.189989 0.187964 0.016582
C14   C     C_R   0.185407 0.277759 0.225200 0.025898
C15   C     C_R   0.208827 0.260959 0.293968 0.037582
C16   C     C_R   0.241109 0.145182 0.598227 0.546534
C17   C     C_R   0.202454 0.055974 0.290401 -0.164457
C18   C     C_R   0.180356 0.071575 0.219673 -0.165501
C19   C     C_3   0.106509 0.426987 0.232852 -0.271336
C20   C     C_3   0.133502 0.407723 0.308754 -0.276915
C21   C     C_R   0.207591 0.156443 0.328908 0.016249
C22   C     C_R   0.668630 0.172776 0.189197 0.015605
C23   C     C_1   0.126567 0.198988 0.859267 0.003855
C24   C     C_R   0.762002 0.053615 0.221431 0.034940
C25   C     C_R   0.751452 0.034445 0.289483 0.032582
C26   C     C_R   0.538166 0.236492 0.293382 -0.161349
C27   C     C_R   0.549706 0.259132 0.224023 -0.170575
C28   C     C_R   0.640511 0.107815 0.399984 0.545992
C29   C     C_3   0.911754 0.985722 0.226382 -0.266493
C30   C     C_3   0.898485 0.964041 0.301423 -0.280372
C31   C     C_R   0.647755 0.132329 0.328176 0.015266
C32   C     C_R   0.081650 0.231281 0.928555 0.546904
C33   C     C_R   0.683923 0.604421 0.929483 0.545552
C34   C     C_1   0.171602 0.170191 0.727731 -0.030729
C35   C     C_R   0.708395 0.206763 0.930101 0.546709
C36   C     C_R   0.085425 0.234797 0.124403 0.543827
C37   C     C_R   0.680635 0.615798 0.123953 0.546428
C38   C     C_R   0.707677 0.209475 0.126091 0.544157
C39   C     C_R   0.614495 0.743847 0.400821 0.538960
C40   C     C_R   0.247470 0.139116 0.400180 0.542392
C41   C     C_1   0.670380 0.646441 0.860108 0.004629
C42   C     C_1   0.654820 0.683675 0.728446 -0.031136
C43   C     C_1   0.663455 0.666648 0.799686 -0.030953
C44   C     C_3   0.498143 0.539941 0.334296 -0.406669
C45   C     C_1   0.150100 0.182390 0.798942 -0.030640
C46   C     C_1   0.195455 0.160710 0.667421 0.003324
C47   C     C_1   0.678546 0.191447 0.860742 0.004089
C48   C     C_1   0.658654 0.167069 0.729033 -0.030869
C49   C     C_1   0.665689 0.180960 0.800319 -0.030470
Cr1   Cr    Cr6+3 0.404720 0.198220 0.499960 1.021727
Cr2   Cr    Cr6+3 0.698290 0.897110 0.500380 1.025083
Cr3   Cr    Cr6+3 0.396970 0.904720 0.499610 1.021888
Cr4   Cr    Cr6+3 0.926290 0.152010 0.028150 1.021851
Cr5   Cr    Cr6+3 0.921440 0.451830 0.027490 1.023851
Cr6   Cr    Cr6+3 0.626370 0.446880 0.028730 1.021341
H1    H     H_    0.824035 0.714604 0.321225 0.131636
H2    H     H_    0.929551 0.020770 0.335836 0.138585
H3    H     H_    0.838056 0.688938 0.196319 0.125401
H4    H     H_    0.485109 0.560521 0.201972 0.170000
H5    H     H_    0.340202 0.734708 0.197522 0.112906
H6    H     H_    0.335685 0.748589 0.319516 0.142670
H7    H     H_    0.209606 0.969500 0.315178 0.119433
H8    H     H_    0.168765 0.997122 0.191312 0.121164
H9    H     H_    0.999226 0.468187 0.220472 0.159295
H10   H     H_    0.516697 0.550076 0.388997 0.166596
H11   H     H_    0.425603 0.504047 0.331854 0.118770
H12   H     H_    0.155927 0.477023 0.207637 0.131359
H13   H     H_    0.594105 0.465719 0.309791 0.146434
H14   H     H_    0.199520 0.445653 0.327387 0.132787
H15   H     H_    0.041819 0.438771 0.339865 0.137330
H16   H     H_    0.446581 0.302917 0.320222 0.136646
H17   H     H_    0.470937 0.347458 0.199611 0.121499
H18   H     H_    0.949158 0.056243 0.217906 0.158806
H19   H     H_    0.962620 0.891069 0.196191 0.132643
H20   H     H_    0.939395 0.856980 0.314500 0.135113
O1    O     O_R   0.267750 0.231960 0.575440 -0.505029
O2    O     O_R   0.596230 0.579400 0.952760 -0.505008
O3    O     O_R   0.639160 0.321170 0.958690 -0.493377
O4    O     O_R   0.527290 0.186640 0.570530 -0.493496
O5    O     O_R   0.821370 0.124220 0.104400 -0.521222
O6    O     O_R   0.037020 0.167050 0.097880 -0.510519
O7    O     O_R   0.056310 0.349620 0.102920 -0.518557
O8    O     O_R   0.797790 0.564880 0.097980 -0.509101
O9    O     O_R   0.596000 0.584270 0.104310 -0.526355
O10   O     O_R   0.638950 0.325690 0.099180 -0.508139
O11   O     O_3   0.824700 0.350240 0.028120 -0.251502
O12   O     O_R   0.685950 0.784660 0.430010 -0.508433
O13   O     O_R   0.728110 0.003450 0.576380 -0.504207
O14   O     O_R   0.682980 0.789190 0.570500 -0.493532
O15   O     O_R   0.499300 0.771880 0.575540 -0.505719
O16   O     O_R   0.285350 0.030870 0.569740 -0.493152
O17   O     O_R   0.270960 0.227070 0.423890 -0.520031
O18   O     O_R   0.530270 0.182120 0.430040 -0.511227
O19   O     O_R   0.731320 0.998570 0.424830 -0.516354
O20   O     O_R   0.502510 0.767000 0.423980 -0.523548
O21   O     O_R   0.288320 0.026340 0.429250 -0.505778
O22   O     O_3   0.499990 0.000020 0.499980 -0.254706
O23   O     O_R   0.821590 0.119350 0.952850 -0.504794
O24   O     O_R   0.037230 0.162540 0.957390 -0.494080
O25   O     O_R   0.056530 0.344750 0.951370 -0.504488
O26   O     O_R   0.798000 0.560370 0.957490 -0.494117

loop_
_geom_bond_atom_site_label_1
_geom_bond_atom_site_label_2
_ccdc_geom_bond_type
C25   C31   A    
Cr2   O22   S    
C23   C45   T    
Cr5   O26   S    
C44   H11   S    
C19   C20   S    
C39   O12   A    
C35   C47   S    
Cr1   O4    S    
C7    C8    A    
C47   C49   T    
Cr4   O24   S    
C7    C11   A    
C26   C27   A    
C13   C18   A    
C33   O26   A    
C28   O19   A    
C5    C6    A    
Cr6   O2    S    
C18   H8    S    
C29   H18   S    
C22   C38   S    
C30   H2    S    
Cr3   O22   S    
Cr3   O20   S    
Cr4   O6    S    
C1    C2    S    
C24   C29   S    
C12   C42   T    
C8    H3    S    
Cr3   O15   S    
C36   O7    A    
C37   O9    A    
C19   H12   S    
Cr4   O11   S    
C34   C46   T    
C4    C12   S    
C35   O23   A    
C9    C10   S    
C19   H9    S    
C1    O13   A    
C26   C31   A    
C13   C14   A    
C26   H16   S    
C41   C43   T    
C20   H15   S    
C44   H10   S    
C7    H1    S    
C40   O21   A    
Cr5   O8    S    
C4    O15   A    
C15   C20   S    
C38   O10   A    
C10   C44   S    
Cr4   O5    S    
C24   C25   A    
C13   C36   S    
C3    C8    A    
C16   C46   S    
C6    C11   A    
Cr5   O11   S    
Cr6   O3    S    
C29   H19   S    
C2    C48   T    
C17   C21   A    
C32   O25   A    
C28   O18   A    
C9    H4    S    
Cr6   O10   S    
C5    C9    S    
C29   C30   S    
Cr1   O1    S    
C17   H7    S    
C36   O6    A    
C17   C18   A    
C34   C45   S    
C40   O17   A    
C11   C39   S    
C39   O20   A    
Cr1   O17   S    
C48   C49   S    
C22   C27   A    
C1    O4    A    
C22   C24   A    
C20   H14   S    
C44   H13   S    
C10   H6    S    
C42   C43   S    
Cr2   O12   S    
Cr5   O7    S    
C4    O14   A    
C25   C30   S    
Cr1   O22   S    
C16   O1    A    
C14   C19   S    
C28   C31   S    
C3    C5    A    
Cr2   O13   S    
C6    C10   S    
Cr1   O18   S    
Cr4   O23   S    
C35   O3    A    
C32   O24   A    
C9    H5    S    
C33   C41   S    
C23   C32   S    
Cr6   O11   S    
Cr2   O14   S    
C30   H20   S    
C33   O2    A    
C21   C40   S    
C38   O5    A    
Cr5   O25   S    
Cr3   O21   S    
Cr2   O19   S    
C15   C21   A    
C3    C37   S    
C16   O16   A    
C14   C15   A    
C37   O8    A    
Cr3   O16   S    
Cr6   O9    S    
C27   H17   S    
