data_mof_unit_39810.cif
_audit_creation_date              2012-12-10T18:11:35-0500
_audit_creation_method            fapswitch 2.2
_symmetry_space_group_name_H-M    P1
_symmetry_Int_Tables_number       1
_space_group_crystal_system       triclinic
_cell_length_a                    10.493331
_cell_length_b                    12.619579
_cell_length_c                    13.065561
_cell_angle_alpha                 83.393615
_cell_angle_beta                  90.557784
_cell_angle_gamma                 102.227851
_cell_volume                      1679.48958559

loop_
_atom_site_label
_atom_site_type_symbol
_atom_type_description
_atom_site_fract_x
_atom_site_fract_y
_atom_site_fract_z
_atom_type_partial_charge
C1    C     C_R   0.493638 0.440032 0.691427 0.851365
C2    C     C_R   0.549359 0.448397 0.975830 0.070736
C3    C     C_R   0.572210 0.473696 0.868856 0.085491
C4    C     C_R   0.742447 0.500643 0.500360 0.830485
C5    C     C_R   0.601838 0.528533 0.040572 0.056760
C6    C     C_R   0.651210 0.637119 0.997198 0.151512
C7    C     C_R   0.690491 0.656427 0.894093 -0.243542
C8    C     C_R   0.660421 0.571643 0.832641 -0.213364
C9    C     C_R   0.601739 0.506424 0.147545 0.022960
C10   C     C_R   0.612896 0.698925 0.160198 -0.231417
C11   C     C_R   0.501543 0.403445 0.801324 -0.115451
C12   C     C_3   0.063833 0.585671 0.435728 -0.165232
C13   C     C_R   0.317681 0.086258 0.347102 -0.310477
C14   C     C_R   0.660577 0.803122 0.624997 0.023513
C15   C     C_R   0.693852 0.908286 0.652703 -0.255969
C16   C     C_R   0.528468 0.559251 0.309776 0.856446
C17   C     C_R   0.631665 0.987976 0.606449 -0.192730
C18   C     C_R   0.536601 0.962900 0.530601 0.014758
C19   C     C_R   0.505838 0.853907 0.505389 0.236176
C20   C     C_R   0.472607 0.041589 0.477929 -0.016950
C21   C     C_R   0.380744 0.010063 0.400615 0.198045
C22   C     C_R   0.353228 0.903035 0.376810 -0.297746
C23   C     C_3   0.984889 0.594550 0.532253 -0.132577
C24   C     C_R   0.415133 0.826409 0.428233 -0.212574
C25   C     C_R   0.496152 0.151137 0.498119 -0.049728
C26   C     C_R   0.345642 0.193007 0.370542 -0.010744
C27   C     C_R   0.257651 0.499503 0.499557 0.866908
C28   C     C_3   0.936648 0.415273 0.564266 -0.174048
C29   C     C_3   0.046062 0.507696 0.595881 -0.183555
C30   C     C_3   0.122181 0.498769 0.499321 0.029752
C31   C     C_3   0.015420 0.406383 0.467604 -0.140448
C32   C     C_3   0.954467 0.493398 0.404045 -0.197694
C33   C     C_3   0.654138 0.408666 0.199081 -0.370386
C34   C     C_3   0.878143 0.502029 0.500547 0.036747
C35   C     C_3   0.768573 0.383696 0.140098 -0.377574
C36   C     C_3   0.818160 0.288099 0.197185 -0.889542
C37   C     C_R   0.659347 0.722638 0.058361 -0.206768
C38   C     C_R   0.580557 0.589715 0.204697 -0.101924
C39   C     C_R   0.424761 0.302276 0.841067 -0.198396
C40   C     C_R   0.407092 0.275301 0.946754 -0.157633
C41   C     C_R   0.464143 0.349361 0.013501 -0.183113
H1    H     H_    0.088137 0.513285 0.673870 0.136404
H2    H     H_    0.711629 0.742402 0.658365 0.119480
H3    H     H_    0.880156 0.346123 0.616674 0.130290
H4    H     H_    0.661551 0.068316 0.630397 0.133925
H5    H     H_    0.768506 0.928212 0.709319 0.141458
H6    H     H_    0.391411 0.746443 0.404678 0.212128
H7    H     H_    0.031619 0.329719 0.441086 0.141671
H8    H     H_    0.914415 0.489972 0.325438 0.136489
H9    H     H_    0.120302 0.654848 0.383329 0.127602
H10   H     H_    0.968419 0.671200 0.558625 0.140224
H11   H     H_    0.606186 0.764984 0.204569 0.169014
H12   H     H_    0.371568 0.246881 0.790338 0.157909
H13   H     H_    0.743156 0.736248 0.861228 0.138019
H14   H     H_    0.692387 0.806841 0.025728 0.141327
H15   H     H_    0.850445 0.305856 0.275715 0.260865
H16   H     H_    0.739869 0.212955 0.203476 0.267638
H17   H     H_    0.902181 0.273309 0.154085 0.249125
H18   H     H_    0.738368 0.361729 0.062403 0.238868
H19   H     H_    0.849535 0.457039 0.130987 0.222306
H20   H     H_    0.693064 0.427260 0.275724 0.220362
H21   H     H_    0.575511 0.334521 0.213235 0.209824
H22   H     H_    0.434331 0.330788 0.093363 0.135623
H23   H     H_    0.342435 0.199556 0.976783 0.139310
H24   H     H_    0.701075 0.584918 0.755645 0.158269
H25   H     H_    0.298012 0.253097 0.329815 0.131637
H26   H     H_    0.283822 0.878384 0.317516 0.150121
H27   H     H_    0.247728 0.063489 0.287695 0.140667
H28   H     H_    0.563539 0.182610 0.555468 0.126352
N1    N     N_R   0.432930 0.222190 0.444670 -0.100633
N2    N     N_R   0.566370 0.776980 0.554790 -0.126463
O1    O     O_R   0.467970 0.366730 0.627150 -0.614908
O2    O     O_R   0.510820 0.544830 0.662520 -0.607970
O3    O     O_R   0.664630 0.410960 0.482340 -0.630772
O4    O     O_R   0.707470 0.589060 0.517710 -0.635532
O5    O     O_R   0.489180 0.455170 0.337480 -0.627844
O6    O     O_R   0.532030 0.633270 0.372850 -0.634087
O7    O     O_R   0.292530 0.410940 0.482290 -0.617610
O8    O     O_R   0.335370 0.589040 0.517660 -0.630116
Zn1   Zn    Zn3+2 0.471390 0.381080 0.476380 0.921557
Zn2   Zn    Zn3+2 0.528610 0.618920 0.523620 0.925402

loop_
_geom_bond_atom_site_label_1
_geom_bond_atom_site_label_2
_ccdc_geom_bond_type
C29   H1    S    
C14   N2    A    
C19   N2    A    
C35   C36   S    
C1    C11   S    
C27   O7    A    
C10   H11   S    
C7    C8    A    
C12   C23   S    
C10   C37   A    
C5    C6    A    
C23   C29   S    
C28   C29   S    
C17   H4    S    
C18   C19   A    
C36   H17   S    
C30   C31   S    
O7    Zn1   S    
C20   C25   A    
C2    C41   A    
C35   H18   S    
C16   O6    A    
C4    O4    A    
C33   H21   S    
C15   H5    S    
C4    O3    A    
C28   C34   S    
C8    H24   S    
O3    Zn1   S    
C21   C22   A    
C12   C32   S    
C27   C30   S    
C9    C33   S    
O2    Zn2   S    
C32   H8    S    
C4    C34   S    
C1    O1    A    
N1    Zn1   S    
C26   H25   S    
C3    C8    A    
C39   C40   A    
O8    Zn2   S    
O4    Zn2   S    
C28   H3    S    
C35   H19   S    
C32   C34   S    
C5    C9    A    
C29   C30   S    
C36   H15   S    
C23   H10   S    
C31   C32   S    
O6    Zn2   S    
C23   C34   S    
C17   C18   A    
C6    C37   A    
C13   C21   A    
C11   C39   A    
C40   C41   A    
C36   H16   S    
C31   H7    S    
C26   N1    A    
C22   C24   A    
C13   C26   A    
C2    C5    A    
C25   H28   S    
C41   H22   S    
C15   C17   A    
C12   C30   S    
C16   O5    A    
C24   H6    S    
C28   C31   S    
O5    Zn1   S    
C12   H9    S    
C6    C7    A    
C27   O8    A    
C40   H23   S    
C10   C38   A    
C1    O2    A    
C2    C3    A    
O1    Zn1   S    
C39   H12   S    
C9    C38   A    
C33   C35   S    
C19   C24   A    
C18   C20   A    
C22   H26   S    
C3    C11   A    
C37   H14   S    
C20   C21   A    
C33   H20   S    
C14   C15   A    
C25   N1    A    
C7    H13   S    
C16   C38   S    
C14   H2    S    
N2    Zn2   S    
C13   H27   S    
