data_mof_unit_23440.cif
_audit_creation_date              2012-10-26T21:32:54-0400
_audit_creation_method            fapswitch 2.2
_symmetry_space_group_name_H-M    P1
_symmetry_Int_Tables_number       1
_space_group_crystal_system       triclinic
_cell_length_a                    28.206256
_cell_length_b                    18.457049
_cell_length_c                    17.027243
_cell_angle_alpha                 90.874445
_cell_angle_beta                  60.373557
_cell_angle_gamma                 90.285855
_cell_volume                      7704.6464411

loop_
_atom_site_label
_atom_site_type_symbol
_atom_type_description
_atom_site_fract_x
_atom_site_fract_y
_atom_site_fract_z
_atom_type_partial_charge
C1    C     C_R   0.703226 0.273548 0.675179 0.988537
C2    C     C_R   0.917417 0.621292 0.585832 -0.208113
C3    C     C_R   0.067359 0.893485 0.939896 0.903058
C4    C     C_R   0.576760 0.596425 0.931200 0.977592
C5    C     C_R   0.427409 0.398334 0.064246 0.959907
C6    C     C_R   0.422913 0.596092 0.069986 1.012682
C7    C     C_R   0.567344 0.393474 0.939912 0.904264
C8    C     C_R   0.558480 0.001633 0.472746 0.022952
C9    C     C_R   0.470294 0.000918 0.438639 0.023199
C10   C     C_R   0.029467 0.499121 0.562003 0.022516
C11   C     C_R   0.941172 0.498394 0.528147 0.022439
C12   C     C_R   0.529220 0.066094 0.482905 0.045157
C13   C     C_R   0.961132 0.373389 0.476233 -0.205754
C14   C     C_R   0.498841 0.935835 0.429358 0.044920
C15   C     C_R   0.489371 0.066928 0.455672 0.046331
C16   C     C_R   0.546191 0.937778 0.438924 0.049306
C17   C     C_R   0.000865 0.564197 0.571404 0.044742
C18   C     C_R   0.970482 0.433949 0.517895 0.044068
C19   C     C_R   0.953432 0.562242 0.562015 0.048133
C20   C     C_R   0.010366 0.433113 0.545047 0.046876
C21   C     C_R   0.632108 0.938464 0.481021 0.063162
C22   C     C_R   0.396446 0.066366 0.433463 0.062364
C23   C     C_R   0.398052 0.934238 0.427763 0.069725
C24   C     C_R   0.021186 0.628665 0.589057 -0.205322
C25   C     C_R   0.612895 0.064392 0.529895 0.070180
C26   C     C_R   0.103468 0.433664 0.566778 0.067069
C27   C     C_R   0.867523 0.561538 0.519870 0.057892
C28   C     C_R   0.886904 0.435669 0.470704 0.078820
C29   C     C_R   0.101849 0.565809 0.572476 0.063377
C30   C     C_R   0.670206 0.937434 0.513275 -0.108329
C31   C     C_R   0.343359 0.064934 0.442358 -0.122037
C32   C     C_R   0.343977 0.934682 0.440447 -0.121290
C33   C     C_R   0.659584 0.064338 0.542065 -0.125988
C34   C     C_R   0.156610 0.435087 0.557682 -0.120396
C35   C     C_R   0.582116 0.878688 0.415266 -0.209162
C36   C     C_R   0.829563 0.562576 0.487331 -0.116824
C37   C     C_R   0.840300 0.435713 0.458322 -0.121480
C38   C     C_R   0.155976 0.565351 0.559636 -0.123430
C39   C     C_R   0.683405 0.000043 0.542757 -0.299264
C40   C     C_R   0.319115 0.999641 0.443102 -0.288919
C41   C     C_R   0.180865 0.500380 0.556865 -0.293109
C42   C     C_R   0.816463 0.499987 0.457658 -0.292308
C43   C     C_R   0.600770 0.001310 0.495321 0.070680
C44   C     C_R   0.421772 0.000434 0.432553 0.074405
C45   C     C_R   0.078085 0.499606 0.567832 0.074476
C46   C     C_R   0.469122 0.131710 0.441757 -0.212261
C47   C     C_R   0.898913 0.498719 0.505508 0.073455
C48   C     C_R   0.074226 0.369153 0.575156 -0.170440
C49   C     C_R   0.874384 0.619919 0.567888 -0.171313
C50   C     C_R   0.921240 0.374996 0.450887 -0.155390
C51   C     C_R   0.070332 0.629311 0.590117 -0.161642
C52   C     C_R   0.625086 0.880039 0.433275 -0.184456
C53   C     C_R   0.425681 0.130873 0.425170 -0.156172
C54   C     C_R   0.429555 0.870747 0.410151 -0.171524
C55   C     C_R   0.578599 0.125105 0.549651 -0.156472
C56   C     C_R   0.478589 0.871373 0.411529 -0.200360
C57   C     C_R   0.538640 0.126689 0.524438 -0.213895
C58   C     C_R   0.717876 0.272852 0.959750 0.156370
C59   C     C_R   0.275619 0.737277 0.054569 0.150263
C60   C     C_R   0.283822 0.258340 0.039519 0.085069
C61   C     C_R   0.301484 0.738529 0.323407 0.888242
C62   C     C_R   0.726830 0.731332 0.944845 0.238446
C63   C     C_R   0.217801 0.772731 0.959845 0.155550
C64   C     C_R   0.775626 0.237253 0.054532 0.151681
C65   C     C_R   0.782920 0.761051 0.040917 0.173251
C66   C     C_R   0.227536 0.230180 0.943487 0.242773
C67   C     C_R   0.764166 0.227229 0.920745 -0.208220
C68   C     C_R   0.227391 0.779230 0.095553 -0.124220
C69   C     C_R   0.288260 0.190403 0.998314 -0.215372
C70   C     C_R   0.724484 0.800698 0.981840 -0.125524
C71   C     C_R   0.264042 0.727024 0.920909 -0.205883
C72   C     C_R   0.298777 0.267378 0.323241 0.968199
C73   C     C_R   0.727359 0.279119 0.095567 -0.125890
C74   C     C_R   0.785712 0.691917 0.003564 -0.152380
C75   C     C_R   0.223866 0.298496 0.983658 -0.128373
C76   C     C_R   0.794439 0.214334 0.964318 -0.206716
C77   C     C_R   0.201611 0.800664 0.047205 -0.123556
C78   C     C_R   0.260385 0.176454 0.950677 -0.104776
C79   C     C_R   0.752408 0.815467 0.029248 -0.182230
C80   C     C_R   0.294356 0.714208 0.964427 -0.204566
C81   C     C_R   0.701614 0.300638 0.047200 -0.124659
C82   C     C_R   0.758139 0.677269 0.955587 -0.130946
C83   C     C_R   0.699631 0.736477 0.677199 0.902358
C84   C     C_R   0.251818 0.312468 0.031173 -0.151517
C85   C     C_R   0.630812 0.309428 0.957097 0.339293
C86   C     C_R   0.341301 0.655855 0.078455 0.257006
C87   C     C_R   0.361756 0.317871 0.046496 0.351618
C88   C     C_R   0.656431 0.658092 0.929967 0.259419
C89   C     C_R   0.130761 0.809375 0.957156 0.339324
C90   C     C_R   0.841288 0.155806 0.078421 0.255969
C91   C     C_R   0.863896 0.815885 0.044383 0.314164
C92   C     C_R   0.156949 0.157325 0.928983 0.257837
C93   C     C_R   0.605680 0.333139 0.907426 -0.240910
C94   C     C_R   0.203194 0.773483 0.675206 0.987715
C95   C     C_R   0.379702 0.649739 0.109088 -0.163488
C96   C     C_R   0.386877 0.341316 0.097034 -0.188347
C97   C     C_R   0.621150 0.648084 0.893024 -0.235555
C98   C     C_R   0.105648 0.833095 0.907458 -0.239799
C99   C     C_R   0.879669 0.149677 0.109095 -0.164386
C100  C     C_R   0.888456 0.839895 0.095499 -0.177038
C101  C     C_R   0.121303 0.147813 0.892679 -0.232341
C102  C     C_R   0.625634 0.310517 0.819654 0.264297
C103  C     C_R   0.375277 0.692840 0.179753 0.292052
C104  C     C_R   0.370792 0.314402 0.181713 0.205316
C105  C     C_R   0.801473 0.238508 0.323409 0.889412
C106  C     C_R   0.627985 0.688574 0.820000 0.312026
C107  C     C_R   0.125582 0.810413 0.819704 0.265327
C108  C     C_R   0.875229 0.192761 0.179775 0.291014
C109  C     C_R   0.870672 0.815305 0.181737 0.239373
C110  C     C_R   0.127912 0.188630 0.819986 0.315724
C111  C     C_R   0.679794 0.289360 0.771117 -0.204170
C112  C     C_R   0.329396 0.735635 0.224497 -0.332635
C113  C     C_R   0.322515 0.276562 0.225802 -0.189233
C114  C     C_R   0.674625 0.730179 0.775551 -0.321076
C115  C     C_R   0.179735 0.789221 0.771175 -0.203698
C116  C     C_R   0.797615 0.770119 0.323841 0.952173
C117  C     C_R   0.829353 0.235559 0.224509 -0.332792
C118  C     C_R   0.820326 0.782170 0.227321 -0.256072
C119  C     C_R   0.174503 0.230343 0.775555 -0.326972
C120  C     C_R   0.712463 0.288210 0.813639 0.280260
C121  C     C_R   0.302922 0.760307 0.177071 0.374961
C122  C     C_R   0.294421 0.253744 0.178965 0.351026
C123  C     C_R   0.703229 0.752108 0.821768 0.309912
C124  C     C_R   0.212390 0.788002 0.813725 0.280849
C125  C     C_R   0.802872 0.260222 0.177089 0.373964
C126  C     C_R   0.791089 0.764186 0.180686 0.328563
C127  C     C_R   0.199583 0.236569 0.677196 0.900379
C128  C     C_R   0.203168 0.252110 0.821682 0.322777
C129  C     C_R   0.686923 0.290457 0.909983 -0.079208
C130  C     C_R   0.306448 0.717773 0.104035 -0.071005
C131  C     C_R   0.314637 0.274365 0.088005 -0.165353
C132  C     C_R   0.694594 0.714434 0.898793 -0.022809
C133  C     C_R   0.186851 0.790311 0.910066 -0.079442
C134  C     C_R   0.806425 0.217710 0.104024 -0.071442
C135  C     C_R   0.814251 0.777842 0.088119 -0.112096
C136  C     C_R   0.194957 0.213822 0.898022 -0.025866
C137  C     C_R   0.691452 0.129278 0.533182 0.902079
C138  C     C_R   0.030683 0.368327 0.558822 -0.211342
C139  C     C_R   0.308999 0.870374 0.464235 0.861199
C140  C     C_R   0.308643 0.129183 0.465171 0.898591
C141  C     C_R   0.696768 0.872084 0.517081 0.869386
C142  C     C_R   0.190970 0.629660 0.535873 0.900227
C143  C     C_R   0.808512 0.370757 0.466962 0.859624
C144  C     C_R   0.803116 0.627931 0.483244 0.914168
C145  C     C_R   0.191353 0.370830 0.534815 0.866336
C146  C     C_R   0.076823 0.096319 0.931101 0.976963
C147  C     C_R   0.928724 0.897062 0.062942 0.956027
C148  C     C_R   0.922894 0.096057 0.069999 1.013758
H1    H     H_    0.715387 0.999665 0.560618 0.196407
H2    H     H_    0.416336 0.181677 0.405447 0.191215
H3    H     H_    0.417907 0.819828 0.392736 0.172599
H4    H     H_    0.581049 0.171472 0.587001 0.185445
H5    H     H_    0.011819 0.316710 0.560799 0.150775
H6    H     H_    0.920514 0.668419 0.621305 0.150617
H7    H     H_    0.986144 0.325176 0.458922 0.151133
H8    H     H_    0.001034 0.680216 0.598759 0.150666
H9    H     H_    0.579017 0.831514 0.379868 0.150481
H10   H     H_    0.487977 0.183324 0.439824 0.152168
H11   H     H_    0.498703 0.819805 0.401888 0.149781
H12   H     H_    0.278194 0.999463 0.452513 0.203126
H13   H     H_    0.513668 0.174936 0.541678 0.153344
H14   H     H_    0.668766 0.339328 0.080019 0.203936
H15   H     H_    0.332287 0.684790 0.926811 0.200812
H16   H     H_    0.248407 0.365459 0.061774 0.157704
H17   H     H_    0.761141 0.623580 0.926895 0.151811
H18   H     H_    0.168794 0.839407 0.079961 0.203951
H19   H     H_    0.832395 0.184970 0.926694 0.199516
H20   H     H_    0.750232 0.869339 0.056993 0.150907
H21   H     H_    0.264245 0.123553 0.919635 0.150720
H22   H     H_    0.778029 0.201682 0.855441 0.197166
H23   H     H_    0.221816 0.500550 0.547323 0.201605
H24   H     H_    0.208452 0.796115 0.165479 0.206721
H25   H     H_    0.313354 0.148360 0.003006 0.161916
H26   H     H_    0.700428 0.843127 0.975033 0.155033
H27   H     H_    0.277844 0.701364 0.855682 0.197993
H28   H     H_    0.708370 0.295873 0.165546 0.205877
H29   H     H_    0.809668 0.649599 0.010835 0.154102
H30   H     H_    0.198646 0.340606 0.979440 0.151526
H31   H     H_    0.561455 0.304941 0.069147 0.356586
H32   H     H_    0.298897 0.595914 0.042083 0.339425
H33   H     H_    0.370831 0.307535 0.924719 0.351477
H34   H     H_    0.784570 0.500363 0.439589 0.198294
H35   H     H_    0.652503 0.564443 0.980382 0.341070
H36   H     H_    0.061412 0.805010 0.069224 0.358238
H37   H     H_    0.798944 0.095927 0.041857 0.338051
H38   H     H_    0.872190 0.803752 0.923329 0.342848
H39   H     H_    0.152836 0.063178 0.978545 0.342222
H40   H     H_    0.603357 0.357851 0.744239 0.358275
H41   H     H_    0.410926 0.732770 0.243468 0.335010
H42   H     H_    0.388577 0.372923 0.256625 0.356965
H43   H     H_    0.591278 0.730072 0.760182 0.342251
H44   H     H_    0.103280 0.857721 0.744304 0.358035
H45   H     H_    0.083649 0.318339 0.594742 0.177836
H46   H     H_    0.910897 0.232699 0.243446 0.336662
H47   H     H_    0.888936 0.871279 0.257944 0.353909
H48   H     H_    0.091196 0.230258 0.760212 0.332363
H49   H     H_    0.783952 0.317122 0.791470 0.334924
H50   H     H_    0.285916 0.853912 0.239020 0.345782
H51   H     H_    0.232298 0.199512 0.184691 0.352955
H52   H     H_    0.730034 0.842846 0.760585 0.348495
H53   H     H_    0.283899 0.816797 0.791555 0.335791
H54   H     H_    0.785852 0.353833 0.239023 0.345826
H55   H     H_    0.715883 0.771016 0.269486 0.328049
H56   H     H_    0.846188 0.664850 0.594496 0.188425
H57   H     H_    0.229666 0.343063 0.760829 0.344619
H58   H     H_    0.918892 0.328691 0.413350 0.168828
H59   H     H_    0.082059 0.680261 0.607312 0.192057
H60   H     H_    0.653079 0.835001 0.406928 0.167342
O1    O     O_R   0.746490 0.236330 0.638080 -0.569423
O2    O     O_R   0.325830 0.813840 0.483730 -0.631634
O3    O     O_R   0.325830 0.186160 0.483730 -0.635942
O4    O     O_R   0.674170 0.813840 0.516270 -0.645886
O5    O     O_R   0.174170 0.686160 0.516270 -0.630820
O6    O     O_R   0.825830 0.313840 0.483730 -0.634928
O7    O     O_R   0.825830 0.686160 0.483730 -0.629117
O8    O     O_R   0.174170 0.313840 0.516270 -0.642696
O9    O     O_R   0.739960 0.127620 0.525000 -0.622987
O10   O     O_R   0.260040 0.872380 0.475000 -0.637383
O11   O     O_R   0.260040 0.127620 0.475000 -0.623058
O12   O     O_R   0.253510 0.763670 0.361920 -0.602165
O13   O     O_R   0.739960 0.872380 0.525000 -0.639289
O14   O     O_R   0.239960 0.627620 0.525000 -0.625838
O15   O     O_R   0.760040 0.372380 0.475000 -0.633389
O16   O     O_R   0.760040 0.627620 0.475000 -0.621130
O17   O     O_R   0.239960 0.372380 0.525000 -0.636668
O18   O     O_R   0.680700 0.294870 0.629350 -0.627284
O19   O     O_R   0.319300 0.705130 0.370650 -0.598161
O20   O     O_R   0.319300 0.294870 0.370650 -0.614725
O21   O     O_R   0.680700 0.705130 0.629350 -0.594081
O22   O     O_R   0.180700 0.794870 0.629350 -0.630334
O23   O     O_R   0.253510 0.236330 0.361920 -0.559320
O24   O     O_R   0.819300 0.205130 0.370650 -0.596509
O25   O     O_R   0.819300 0.794870 0.370650 -0.594991
O26   O     O_R   0.180700 0.205130 0.629350 -0.600797
O27   O     O_R   0.062020 0.072840 0.007170 -0.603835
O28   O     O_R   0.937980 0.927160 0.992830 -0.553133
O29   O     O_R   0.937980 0.072840 0.992830 -0.577578
O30   O     O_R   0.062020 0.927160 0.007170 -0.623673
O31   O     O_R   0.562020 0.572840 0.007170 -0.603146
O32   O     O_R   0.437980 0.427160 0.992830 -0.551541
O33   O     O_R   0.437980 0.572840 0.992830 -0.576359
O34   O     O_R   0.746490 0.763670 0.638080 -0.617181
O35   O     O_R   0.562020 0.427160 0.007170 -0.623213
O36   O     O_R   0.947860 0.073950 0.109290 -0.575154
O37   O     O_R   0.052140 0.926050 0.890710 -0.605270
O38   O     O_R   0.052140 0.073950 0.890710 -0.564628
O39   O     O_R   0.947860 0.926050 0.109290 -0.629483
O40   O     O_R   0.447860 0.573950 0.109290 -0.576055
O41   O     O_R   0.552140 0.426050 0.890710 -0.605699
O42   O     O_R   0.552140 0.573950 0.890710 -0.564229
O43   O     O_R   0.447860 0.426050 0.109290 -0.628554
O44   O     O_3   0.600865 0.303604 0.049913 -0.762834
O45   O     O_R   0.246490 0.736330 0.638080 -0.568048
O46   O     O_3   0.337392 0.599299 0.027975 -0.746034
O47   O     O_3   0.383818 0.339207 0.957505 -0.715292
O48   O     O_3   0.653020 0.615624 0.998487 -0.727564
O49   O     O_3   0.100823 0.803651 0.049983 -0.759408
O50   O     O_3   0.837422 0.099293 0.027845 -0.749336
O51   O     O_3   0.888688 0.832134 0.953375 -0.717925
O52   O     O_3   0.154169 0.114160 0.996525 -0.734984
O53   O     O_3   0.592664 0.313441 0.781217 -0.715270
O54   O     O_3   0.413370 0.688240 0.208251 -0.719388
O55   O     O_3   0.401987 0.326524 0.222382 -0.716439
O56   O     O_R   0.753510 0.263670 0.361920 -0.603737
O57   O     O_3   0.590123 0.684306 0.790870 -0.716177
O58   O     O_3   0.092606 0.813310 0.781276 -0.716258
O59   O     O_3   0.913314 0.188147 0.208287 -0.719372
O60   O     O_3   0.902286 0.825625 0.221981 -0.704546
O61   O     O_3   0.089917 0.184559 0.791118 -0.720543
O62   O     O_3   0.768452 0.289058 0.759420 -0.747097
O63   O     O_3   0.275218 0.825518 0.200341 -0.768621
O64   O     O_3   0.247420 0.212722 0.224303 -0.725665
O65   O     O_3   0.741376 0.806929 0.790846 -0.746913
O66   O     O_3   0.268380 0.788734 0.759534 -0.744837
O67   O     O_R   0.753510 0.736330 0.361920 -0.616795
O68   O     O_3   0.775144 0.325416 0.200376 -0.767949
O69   O     O_3   0.739714 0.734432 0.223963 -0.712210
O70   O     O_3   0.241026 0.307293 0.791223 -0.738485
O71   O     O_R   0.246490 0.263670 0.638080 -0.597423
O72   O     O_R   0.674170 0.186160 0.516270 -0.631164
Zn1   Zn    Zn3+2 0.792340 0.208750 0.507670 1.009707
Zn2   Zn    Zn3+2 0.494040 0.500000 0.919480 1.076979
Zn3   Zn    Zn3+2 0.005960 0.000000 0.080520 1.033097
Zn4   Zn    Zn3+2 0.994040 1.000000 0.919480 1.072782
Zn5   Zn    Zn3+2 0.207660 0.791250 0.492330 0.981404
Zn6   Zn    Zn3+2 0.207660 0.208750 0.492330 1.013710
Zn7   Zn    Zn3+2 0.792340 0.791250 0.507670 0.987847
Zn8   Zn    Zn3+2 0.292340 0.708750 0.507670 1.011108
Zn9   Zn    Zn3+2 0.707660 0.291250 0.492330 0.983383
Zn10  Zn    Zn3+2 0.707660 0.708750 0.492330 0.998604
Zn11  Zn    Zn3+2 0.292340 0.291250 0.507670 0.987203
Zn12  Zn    Zn3+2 0.505960 0.500000 0.080520 1.033075

loop_
_geom_bond_atom_site_label_1
_geom_bond_atom_site_label_2
_ccdc_geom_bond_type
C28   C47   A    
C72   O23   A    
O2    Zn8   S    
C36   C42   A    
C137  O72   A    
C61   O19   A    
C13   C18   A    
C63   C133  S    
C6    O40   A    
C16   C35   A    
C90   C134  A    
C120  O62   S    
C62   C70   A    
C37   C42   A    
O14   Zn8   S    
C85   C129  A    
C113  C122  A    
C33   C137  S    
C106  O57   S    
C116  O25   A    
C6    O33   A    
O8    Zn6   S    
C91   C100  A    
C88   C97   A    
C119  C128  A    
C24   C51   A    
C70   C79   A    
C49   H56   S    
C100  C109  A    
C8    C16   A    
C83   C114  S    
C102  C111  A    
C69   H25   S    
C109  O60   S    
C73   C81   A    
C109  C118  A    
C7    C93   S    
C64   C134  S    
O41   Zn2   S    
O40   Zn12  S    
C62   C132  S    
C32   C139  S    
C101  C110  A    
C145  O17   A    
C72   C113  S    
O27   Zn3   S    
C29   C45   A    
C103  C112  A    
C35   H9    S    
C80   H15   S    
O37   Zn4   S    
H48   O61   S    
H47   O60   S    
C65   C135  S    
C66   C136  S    
C124  C133  A    
C63   C71   A    
C55   C57   A    
C90   O50   S    
C68   C77   A    
O11   Zn6   S    
C2    C19   A    
C25   C55   A    
C142  O5    A    
C59   C80   A    
C94   C115  S    
O72   Zn9   S    
C48   C138  A    
C9    C15   A    
H31   O44   S    
C3    C98   S    
O5    Zn5   S    
C46   C53   A    
C4    O31   A    
O16   Zn10  S    
H41   O54   S    
C38   C142  S    
C36   C144  S    
C86   C95   A    
C58   C67   A    
C57   H13   S    
C137  O9    A    
C111  C120  A    
C24   H8    S    
C140  O3    A    
C141  O13   A    
C82   H17   S    
C1    O18   A    
C11   C18   A    
C65   C79   A    
C5    O32   A    
C123  C132  A    
C81   H14   S    
C139  O10   A    
C121  C130  A    
C25   C43   A    
C99   C108  A    
C41   H23   S    
C83   O34   A    
C30   C141  S    
C51   H59   S    
C75   C84   A    
C58   C129  S    
H52   O65   S    
C46   H10   S    
O1    Zn1   S    
C87   C131  A    
O13   Zn7   S    
C26   C45   A    
C85   C93   A    
C116  C118  S    
C29   C38   A    
C64   C73   A    
O23   Zn6   S    
O24   Zn1   S    
C147  O28   A    
O10   Zn5   S    
C2    H6    S    
O32   Zn2   S    
C4    C97   S    
H43   O57   S    
O7    Zn7   S    
C128  O70   S    
C95   C103  A    
C89   C133  A    
O31   Zn12  S    
C1    O1    A    
C120  C129  A    
C105  O24   A    
C38   C41   A    
C10   C20   A    
C86   C130  A    
H40   O53   S    
C65   C74   A    
H42   O55   S    
C145  O8    A    
H37   O50   S    
H38   O51   S    
C8    C12   A    
C10   C45   A    
C101  C146  S    
C70   H26   S    
C114  C123  A    
C50   H58   S    
H54   O68   S    
O6    Zn1   S    
C12   C57   A    
C122  C131  A    
C94   O22   A    
C29   C51   A    
C27   C47   A    
C146  O27   A    
C108  C117  A    
O67   Zn10  S    
C110  C119  A    
C122  O64   S    
C86   O46   S    
C39   H1    S    
C89   C98   A    
C112  C121  A    
C60   C69   A    
O22   Zn5   S    
C30   C39   A    
O20   Zn11  S    
O56   Zn9   S    
C91   O51   S    
C3    O30   A    
C104  C113  A    
C6    C95   S    
C148  O36   A    
C15   C46   A    
C127  O71   A    
C31   C140  S    
C61   C112  S    
C117  C125  A    
C123  O65   S    
C25   C33   A    
C119  C127  S    
C125  C134  A    
C90   C99   A    
C11   C47   A    
O28   Zn4   S    
C8    C43   A    
O33   Zn2   S    
O45   Zn8   S    
C42   H34   S    
C11   C19   A    
C7    O41   A    
C56   H11   S    
C128  C136  A    
C48   H45   S    
C100  C147  S    
O18   Zn9   S    
C31   C40   A    
C20   C138  A    
O29   Zn4   S    
O3    Zn11  S    
O39   Zn3   S    
O30   Zn3   S    
O17   Zn11  S    
O38   Zn4   S    
C121  O63   S    
C26   C48   A    
C87   O47   S    
C62   C82   A    
C67   H22   S    
O43   Zn12  S    
C105  C117  S    
C92   C136  A    
C34   C41   A    
C74   C82   A    
C60   C131  S    
C139  O2    A    
C66   C78   A    
C126  O69   S    
C148  O29   A    
H35   O48   S    
C58   C81   A    
H32   O46   S    
C83   O21   A    
C23   C44   A    
C116  O67   A    
C9    C14   A    
C144  O7    A    
C140  O11   A    
C12   C15   A    
C107  O58   S    
C102  O53   S    
C92   C101  A    
C97   C106  A    
C138  H5    S    
C126  C135  A    
C94   O45   A    
C5    C96   S    
O35   Zn12  S    
O36   Zn3   S    
C115  C124  A    
C37   C143  S    
C40   H12   S    
H46   O59   S    
C93   C102  A    
C54   H3    S    
C27   C36   A    
C21   C30   A    
C146  O38   A    
C23   C32   A    
C73   H28   S    
O19   Zn8   S    
C1    C111  S    
C68   H24   S    
O25   Zn7   S    
C74   H29   S    
H55   O69   S    
C105  O56   A    
C66   C75   A    
C103  O54   S    
C71   H27   S    
C98   C107  A    
C91   C135  A    
C72   O20   A    
C35   C52   A    
C3    O37   A    
H49   O62   S    
H51   O64   S    
C125  O68   S    
C14   C56   A    
C99   C148  S    
C59   C130  S    
C5    O43   A    
C61   O12   A    
C55   H4    S    
C88   O48   S    
C33   C39   A    
C106  C114  A    
C28   C37   A    
O21   Zn10  S    
C143  O15   A    
C34   C145  S    
C10   C17   A    
C76   H19   S    
C75   H30   S    
C13   H7    S    
H33   O47   S    
C21   C43   A    
C124  O66   S    
C26   C34   A    
C22   C44   A    
H57   O70   S    
C104  O55   S    
C79   H20   S    
C84   H16   S    
H53   O66   S    
C147  O39   A    
O42   Zn2   S    
C69   C78   A    
C28   C50   A    
C71   C80   A    
C92   O52   S    
C22   C53   A    
C54   C56   A    
H39   O52   S    
C17   C24   A    
C22   C31   A    
C89   O49   S    
C77   H18   S    
O26   Zn6   S    
C78   H21   S    
C13   C50   A    
O12   Zn5   S    
C108  O59   S    
C2    C49   A    
C59   C68   A    
O9    Zn1   S    
C87   C96   A    
C64   C76   A    
H44   O58   S    
C9    C44   A    
C141  O4    A    
C107  C115  A    
H50   O63   S    
C143  O6    A    
O71   Zn11  S    
O15   Zn9   S    
C53   H2    S    
C14   C16   A    
C88   C132  A    
O4    Zn10  S    
C23   C54   A    
C63   C77   A    
C127  O26   A    
C52   H60   S    
C110  O61   S    
H36   O49   S    
C96   C104  A    
C4    O42   A    
C60   C84   A    
C17   C19   A    
C18   C20   A    
C32   C40   A    
O34   Zn7   S    
C144  O16   A    
C27   C49   A    
C85   O44   S    
C7    O35   A    
C67   C76   A    
C118  C126  A    
C142  O14   A    
C21   C52   A    
