data_mof_unit_15920.cif
_audit_creation_date              2012-12-10T18:38:35-0500
_audit_creation_method            fapswitch 2.2
_symmetry_space_group_name_H-M    P1
_symmetry_Int_Tables_number       1
_space_group_crystal_system       triclinic
_cell_length_a                    15.851244
_cell_length_b                    15.218982
_cell_length_c                    13.904477
_cell_angle_alpha                 89.782781
_cell_angle_beta                  91.616858
_cell_angle_gamma                 89.637512
_cell_volume                      3352.88416893

loop_
_atom_site_label
_atom_site_type_symbol
_atom_type_description
_atom_site_fract_x
_atom_site_fract_y
_atom_site_fract_z
_atom_type_partial_charge
C1    C     C_R   0.506701 0.330385 0.500336 0.878489
C2    C     C_R   0.501256 0.670313 0.499950 0.872749
C3    C     C_R   0.504580 0.187034 0.585674 0.247535
C4    C     C_R   0.503487 0.815441 0.412944 0.279356
C5    C     C_R   0.519937 0.234530 0.501566 -0.402919
C6    C     C_R   0.505085 0.767359 0.500131 -0.429966
C7    C     C_R   0.552342 0.189433 0.421932 0.318853
C8    C     C_R   0.513832 0.814030 0.587500 0.303934
C9    C     C_R   0.561976 0.097146 0.426660 0.352249
C10   C     C_R   0.533687 0.903088 0.585225 0.358711
C11   C     C_R   0.522538 0.049985 0.501781 -0.172290
C12   C     C_R   0.516396 0.952474 0.500621 -0.199238
C13   C     C_R   0.574103 0.509129 0.108360 0.309802
C14   C     C_R   0.451762 0.438475 0.890978 0.319328
C15   C     C_R   0.572949 0.511935 0.210079 -0.176576
C16   C     C_R   0.452639 0.440383 0.789153 -0.169907
C17   C     C_R   0.426477 0.485535 0.206117 0.506094
C18   C     C_R   0.546411 0.560612 0.792070 0.496845
C19   C     C_R   0.422858 0.497070 0.105022 0.247823
C20   C     C_R   0.538735 0.568407 0.892925 0.235823
C21   C     C_R   0.497603 0.503218 0.053812 -0.073479
C22   C     C_R   0.495566 0.503538 0.944758 -0.065270
C23   C     C_R   0.339908 0.499541 0.498744 0.804208
C24   C     C_R   0.660016 0.501739 0.501181 0.770703
C25   C     C_3   0.971959 0.430142 0.548660 -0.421707
C26   C     C_3   0.027728 0.573859 0.451091 -0.502529
C27   C     C_3   0.024056 0.428675 0.455885 0.442270
C28   C     C_3   0.975142 0.574888 0.543860 0.400411
C29   C     C_1   0.250408 0.498448 0.495816 -0.184591
C30   C     C_1   0.749440 0.503196 0.503531 -0.192618
C31   C     C_3   0.031655 0.502497 0.588665 0.450710
C32   C     C_3   0.967978 0.501221 0.410863 0.453049
C33   C     C_3   0.083511 0.499574 0.496691 -0.085315
C34   C     C_3   0.916195 0.503670 0.503057 -0.061358
C35   C     C_1   0.174960 0.498057 0.494899 -0.004981
C36   C     C_1   0.824823 0.503970 0.504029 0.023878
C37   C     C_R   0.488546 0.097533 0.578846 0.384093
C38   C     C_R   0.495148 0.906949 0.414921 0.358912
Cu1   Cu    Cu3+1 0.500000 0.499990 0.596430 0.968561
Cu2   Cu    Cu3+1 0.500000 0.500010 0.403570 0.990285
H1    H     H_    0.948599 0.374121 0.591532 0.165613
H2    H     H_    0.052541 0.631472 0.411993 0.165776
H3    H     H_    0.631869 0.521971 0.249109 0.191781
H4    H     H_    0.415499 0.393373 0.748330 0.201385
N1    N     N_R   0.500000 0.500020 0.258690 -0.234222
N2    N     N_R   0.500000 0.499980 0.741310 -0.254792
O1    O     O_R   0.500010 0.371450 0.581430 -0.556183
O2    O     O_R   0.499990 0.628550 0.418570 -0.548661
O3    O     O_R   0.500010 0.371460 0.418560 -0.534821
O4    O     O_R   0.499990 0.628540 0.581440 -0.513884
O5    O     O_R   0.379080 0.499990 0.581420 -0.595401
O6    O     O_R   0.620920 0.500010 0.418580 -0.597030
O7    O     O_R   0.379080 0.500000 0.418550 -0.508215
O8    O     O_R   0.620920 0.500000 0.581450 -0.565094
O9    O     O_3   0.053017 0.357588 0.400169 -0.604565
C39   C     C_3   0.056296 0.278593 0.453863 0.070890
H5    H     H_    0.064926 0.224191 0.401942 0.167074
H6    H     H_    0.995717 0.265137 0.489378 0.127663
C40   C     C_3   0.131184 0.276718 0.526461 -0.359319
H7    H     H_    0.190265 0.291963 0.488967 0.222609
H8    H     H_    0.122094 0.326823 0.583097 0.233638
C41   C     C_3   0.140416 0.186982 0.574880 -0.948260
H9    H     H_    0.081592 0.169770 0.612012 0.261209
H10   H     H_    0.193128 0.188860 0.629000 0.256104
H11   H     H_    0.154442 0.135730 0.520850 0.248794
O10   O     O_3   0.951650 0.650087 0.596292 -0.612256
C42   C     C_3   0.907185 0.709639 0.535085 0.058940
H12   H     H_    0.844301 0.682558 0.514491 0.146705
H13   H     H_    0.942522 0.723935 0.468836 0.134520
C43   C     C_3   0.894808 0.796526 0.587835 -0.308058
H14   H     H_    0.862052 0.784842 0.656173 0.222299
H15   H     H_    0.957464 0.825553 0.605766 0.217234
C44   C     C_3   0.843098 0.861644 0.526237 -0.993888
H16   H     H_    0.876802 0.877198 0.459310 0.260040
H17   H     H_    0.833880 0.923440 0.566983 0.251900
H18   H     H_    0.780139 0.833890 0.506990 0.242159
O11   O     O_3   0.354058 0.461024 0.251395 -0.553232
C45   C     C_3   0.338676 0.371087 0.233364 0.077315
H19   H     H_    0.396974 0.330169 0.243676 0.152160
H20   H     H_    0.312726 0.362315 0.158923 0.186789
C46   C     C_3   0.273675 0.337583 0.302751 -0.767775
H21   H     H_    0.215551 0.378682 0.297415 0.272010
H22   H     H_    0.257271 0.268540 0.285191 0.193501
H23   H     H_    0.300010 0.339750 0.377494 0.233273
O12   O     O_3   0.594963 0.619877 0.743075 -0.498673
C47   C     C_3   0.681204 0.601322 0.762548 0.119768
H24   H     H_    0.697255 0.532355 0.743208 0.129385
H25   H     H_    0.698682 0.611895 0.839612 0.178908
C48   C     C_3   0.734161 0.662943 0.703363 -0.769775
H26   H     H_    0.724229 0.731751 0.727033 0.241863
H27   H     H_    0.801908 0.645319 0.713447 0.222526
H28   H     H_    0.716054 0.657847 0.625900 0.240610
O13   O     O_3   0.345347 0.500559 0.056843 -0.537471
C49   C     C_3   0.308710 0.585166 0.067106 0.117181
H29   H     H_    0.306392 0.618123 0.995675 0.131894
H30   H     H_    0.344454 0.629931 0.116928 0.071947
C50   C     C_3   0.219042 0.576932 0.104120 -0.333955
H31   H     H_    0.220604 0.541166 0.173924 0.245435
H32   H     H_    0.193181 0.643797 0.116670 0.157815
C51   C     C_3   0.160503 0.529227 0.032985 -0.774340
H33   H     H_    0.152443 0.568336 0.965795 0.237210
H34   H     H_    0.097680 0.520877 0.064942 0.217689
H35   H     H_    0.186134 0.463174 0.015983 0.287504
O14   O     O_3   0.573627 0.640719 0.938726 -0.562177
C52   C     C_3   0.508767 0.699006 0.966442 0.109982
H36   H     H_    0.492646 0.684902 0.042063 0.140293
H37   H     H_    0.449599 0.693636 0.921450 0.093893
C53   C     C_3   0.540548 0.793259 0.958771 -0.314366
H38   H     H_    0.602812 0.798922 0.996795 0.226774
H39   H     H_    0.549467 0.809783 0.881851 0.251692
C54   C     C_3   0.478756 0.858602 0.001930 -0.945687
H40   H     H_    0.415903 0.854083 0.965240 0.258364
H41   H     H_    0.502807 0.926443 0.993184 0.269161
H42   H     H_    0.471524 0.845157 0.079802 0.280166
O15   O     O_3   0.927183 0.493147 0.319649 -0.603619
C55   C     C_3   0.973176 0.535168 0.247416 0.096573
H43   H     H_    0.966193 0.495333 0.180912 0.160089
H44   H     H_    0.042374 0.538561 0.263972 0.141917
C56   C     C_3   0.935571 0.626531 0.227090 -0.370879
H45   H     H_    0.868218 0.619879 0.203870 0.234907
H46   H     H_    0.938207 0.666577 0.293671 0.204975
C57   C     C_3   0.982885 0.674196 0.148673 -0.928366
H47   H     H_    0.049874 0.683525 0.171596 0.252733
H48   H     H_    0.953610 0.739742 0.135318 0.259087
H49   H     H_    0.979806 0.636161 0.080660 0.260813
O16   O     O_3   0.062112 0.497500 0.684893 -0.606161
C58   C     C_3   0.118723 0.566297 0.706998 0.089895
H50   H     H_    0.088754 0.610093 0.760114 0.169184
H51   H     H_    0.135324 0.608088 0.644289 0.139565
C59   C     C_3   0.199352 0.526556 0.752484 -0.323065
H52   H     H_    0.183557 0.488837 0.818033 0.234291
H53   H     H_    0.228303 0.480195 0.701286 0.231246
C60   C     C_3   0.263084 0.597446 0.779281 -0.931948
H54   H     H_    0.282842 0.632357 0.713518 0.253570
H55   H     H_    0.319595 0.567164 0.815037 0.268298
H56   H     H_    0.234903 0.645091 0.829570 0.244483
O17   O     O_3   0.447864 0.055792 0.652831 -0.514555
C61   C     C_3   0.362407 0.083371 0.654983 0.087079
H57   H     H_    0.322430 0.033235 0.618361 0.122242
H58   H     H_    0.348694 0.147803 0.619024 0.127872
C62   C     C_3   0.336619 0.091028 0.759172 -0.764033
H59   H     H_    0.371115 0.145919 0.794215 0.258123
H60   H     H_    0.267782 0.104014 0.762432 0.190441
H61   H     H_    0.351946 0.029503 0.799058 0.251105
O18   O     O_3   0.476413 0.950870 0.329764 -0.487478
C63   C     C_3   0.390048 0.973905 0.327562 0.101168
H62   H     H_    0.372932 0.012721 0.392092 0.110631
H63   H     H_    0.350384 0.913807 0.323341 0.132887
C64   C     C_3   0.370892 0.030228 0.238915 -0.764337
H64   H     H_    0.386089 0.993215 0.172839 0.251636
H65   H     H_    0.302941 0.048530 0.235849 0.182742
H66   H     H_    0.409111 0.091162 0.242026 0.261113
O19   O     O_3   0.512863 0.224598 0.675922 -0.537819
C65   C     C_3   0.600622 0.227361 0.699225 0.147136
H67   H     H_    0.632801 0.275687 0.652607 0.130974
H68   H     H_    0.631087 0.161675 0.690459 0.128954
C66   C     C_3   0.615556 0.254813 0.803115 -0.859721
H69   H     H_    0.586150 0.206671 0.851860 0.243853
H70   H     H_    0.684412 0.256419 0.820051 0.202681
H71   H     H_    0.589266 0.321487 0.814642 0.235526
O20   O     O_3   0.514472 0.775180 0.325197 -0.522862
C67   C     C_3   0.602465 0.763807 0.312979 0.118194
H72   H     H_    0.625749 0.704282 0.352191 0.144117
H73   H     H_    0.640180 0.820974 0.339163 0.119770
C68   C     C_3   0.619908 0.752457 0.207125 -0.767389
H74   H     H_    0.603175 0.814018 0.168021 0.250572
H75   H     H_    0.687954 0.738095 0.197760 0.199576
H76   H     H_    0.582300 0.697310 0.177365 0.258190
O21   O     O_3   0.571805 0.236378 0.339684 -0.573141
C69   C     C_3   0.660066 0.242157 0.326200 0.122910
H77   H     H_    0.668852 0.290842 0.267649 0.145264
H78   H     H_    0.685623 0.179689 0.298877 0.172973
C70   C     C_3   0.711556 0.273299 0.415263 -0.444936
H79   H     H_    0.682530 0.333710 0.443756 0.227814
H80   H     H_    0.711581 0.222358 0.472666 0.179204
C71   C     C_3   0.802879 0.292019 0.390474 -0.853733
H81   H     H_    0.833030 0.232244 0.360868 0.241890
H82   H     H_    0.838706 0.311811 0.456496 0.254404
H83   H     H_    0.805590 0.346259 0.336983 0.284923
O22   O     O_3   0.510784 0.773110 0.676259 -0.523357
C72   C     C_3   0.425302 0.761578 0.700779 0.139269
H84   H     H_    0.424077 0.710231 0.757414 0.164825
H85   H     H_    0.385333 0.736660 0.639597 0.101334
C73   C     C_3   0.386667 0.846535 0.739376 -0.353937
H86   H     H_    0.430955 0.877372 0.792200 0.266552
H87   H     H_    0.375517 0.893036 0.678744 0.229489
C74   C     C_3   0.302669 0.829302 0.786718 -0.991303
H88   H     H_    0.257189 0.799731 0.734145 0.264116
H89   H     H_    0.275575 0.892012 0.812572 0.266030
H90   H     H_    0.312049 0.784421 0.849289 0.254679
O23   O     O_3   0.602945 0.054607 0.353210 -0.506442
C75   C     C_3   0.680179 0.018393 0.388911 0.072712
H91   H     H_    0.669191 0.959686 0.434282 0.127697
H92   H     H_    0.717464 0.066920 0.431927 0.107856
C76   C     C_3   0.732839 0.989461 0.304600 -0.799464
H93   H     H_    0.752715 0.047267 0.262251 0.228081
H94   H     H_    0.790146 0.953963 0.331553 0.197100
H95   H     H_    0.695683 0.945240 0.256610 0.263263
O24   O     O_3   0.565504 0.941398 0.668517 -0.500272
C77   C     C_3   0.654372 0.941874 0.665247 0.091308
H96   H     H_    0.675234 0.992711 0.613506 0.105384
H97   H     H_    0.680259 0.876531 0.644429 0.139462
C78   C     C_3   0.690712 0.963855 0.764541 -0.782779
H98   H     H_    0.672608 0.912608 0.817041 0.248999
H99   H     H_    0.760626 0.966503 0.762351 0.190749
H100  H     H_    0.666355 0.028536 0.788370 0.250227
O25   O     O_3   0.650073 0.517163 0.063049 -0.533920
C79   C     C_3   0.686244 0.432708 0.054618 0.072765
H101  H     H_    0.643036 0.387679 0.014071 0.125181
H102  H     H_    0.701657 0.404177 0.126974 0.134805
C80   C     C_3   0.767557 0.439796 0.999752 -0.777148
H103  H     H_    0.812470 0.483859 0.038542 0.251891
H104  H     H_    0.796991 0.373758 0.993195 0.196971
H105  H     H_    0.753901 0.466617 0.926514 0.230281
O26   O     O_3   0.402081 0.378009 0.937270 -0.525590
C81   C     C_3   0.442042 0.295122 0.936213 0.051663
H106  H     H_    0.507075 0.298636 0.968555 0.132034
H107  H     H_    0.444074 0.269824 0.861451 0.183512
C82   C     C_3   0.392111 0.230450 0.995364 -0.792686
H108  H     H_    0.325847 0.227453 0.967462 0.252140
H109  H     H_    0.421018 0.163971 0.990916 0.209407
H110  H     H_    0.392759 0.251001 0.071841 0.232308

loop_
_geom_bond_atom_site_label_1
_geom_bond_atom_site_label_2
_ccdc_geom_bond_type
C24   O6    A    
Cu1   O5    S    
C78   H98   S    
C25   C31   S    
C68   H74   S    
O21   C69   S    
C28   O10   S    
C54   H40   S    
C81   C82   S    
O9    C39   S    
C10   O24   S    
C46   H23   S    
C50   H31   S    
C64   H64   S    
C27   C33   S    
O11   C45   S    
C53   H38   S    
C26   C32   S    
C78   H99   S    
O13   C49   S    
C69   H78   S    
C1    C5    S    
C23   C29   S    
C19   C21   A    
C17   N1    A    
C67   H72   S    
C64   H65   S    
O12   C47   S    
C45   H20   S    
C72   C73   S    
Cu1   O8    S    
C69   H77   S    
C24   O8    A    
O15   C55   S    
C67   C68   S    
C72   H84   S    
C3    O19   S    
C73   H86   S    
C18   C20   A    
Cu2   O2    S    
C44   H16   S    
C11   C37   A    
C74   H90   S    
C41   H10   S    
C2    O4    A    
C50   H32   S    
C71   H83   S    
C73   H87   S    
C77   H96   S    
C1    O3    A    
C14   O26   S    
C60   H56   S    
C31   C33   S    
C43   H14   S    
C39   H6    S    
C48   H27   S    
C16   H4    S    
C63   H63   S    
C19   O13   S    
C25   C34   S    
C76   H95   S    
C70   H80   S    
O10   C42   S    
C28   C34   S    
O24   C77   S    
C66   H70   S    
C37   O17   S    
C21   C22   S    
C66   H69   S    
C44   H17   S    
C2    C6    S    
C18   N2    A    
C17   O11   S    
O14   C52   S    
C46   H22   S    
C23   O7    A    
C67   H73   S    
C56   H46   S    
Cu2   N1    S    
C78   H100  S    
C40   H8    S    
C18   O12   S    
C28   C31   S    
C42   H12   S    
C75   C76   S    
C81   H106  S    
C65   C66   S    
C4    C6    A    
C72   H85   S    
C25   H1    S    
Cu1   Cu2   S    
C5    C7    A    
C47   H24   S    
C79   H101  S    
C6    C8    A    
C49   C50   S    
C2    O2    A    
C70   H79   S    
C47   C48   S    
C51   H35   S    
C46   H21   S    
O25   C79   S    
C42   H13   S    
C75   H92   S    
C59   H53   S    
O26   C81   S    
C58   H51   S    
C38   O18   S    
C41   H9    S    
C82   H109  S    
C63   C64   S    
C52   H37   S    
C8    O22   S    
C26   C33   S    
C23   O5    A    
C80   H103  S    
C13   C15   A    
C56   H45   S    
Cu1   O4    S    
C43   C44   S    
C13   O25   S    
C13   C21   A    
C54   H41   S    
C52   C53   S    
C48   H28   S    
C49   H30   S    
C9    C11   A    
C65   H67   S    
C10   C12   A    
Cu1   N2    S    
C20   O14   S    
C64   H66   S    
C8    C10   A    
C71   H81   S    
C80   H104  S    
C51   H34   S    
C20   C22   A    
C68   H76   S    
C7    O21   S    
C79   C80   S    
C60   H54   S    
C44   H18   S    
C14   C16   A    
C62   H61   S    
C59   C60   S    
C25   C27   S    
C39   H5    S    
C15   N1    A    
C16   N2    A    
C58   H50   S    
O18   C63   S    
C82   H108  S    
C50   C51   S    
O22   C72   S    
C26   H2    S    
Cu1   O1    S    
C63   H62   S    
O17   C61   S    
C70   C71   S    
O23   C75   S    
C7    C9    A    
C55   C56   S    
C40   C41   S    
C41   H11   S    
C27   C32   S    
C45   H19   S    
C65   H68   S    
C56   C57   S    
C1    O1    A    
C81   H107  S    
C3    C5    A    
C61   C62   S    
C11   C12   S    
C53   C54   S    
C57   H47   S    
C61   H58   S    
C66   H71   S    
C52   H36   S    
C29   C35   T    
C27   O9    S    
C26   C28   S    
C39   C40   S    
C30   C36   T    
C42   C43   S    
C73   C74   S    
C75   H91   S    
C14   C22   A    
C57   H49   S    
C62   H60   S    
C59   H52   S    
C48   H26   S    
C58   C59   S    
C15   H3    S    
C74   H88   S    
C79   H102  S    
Cu2   O6    S    
C62   H59   S    
C82   H110  S    
C45   C46   S    
C53   H39   S    
O20   C67   S    
O16   C58   S    
C71   H82   S    
C51   H33   S    
C33   C35   S    
C34   C36   S    
C55   H44   S    
C55   H43   S    
C54   H42   S    
C47   H25   S    
C32   O15   S    
C12   C38   A    
C49   H29   S    
C24   C30   S    
C74   H89   S    
C61   H57   S    
C76   H93   S    
C17   C19   A    
C40   H7    S    
C80   H105  S    
C3    C37   A    
C68   H75   S    
Cu2   O7    S    
C60   H55   S    
C4    O20   S    
C4    C38   A    
C43   H15   S    
C31   O16   S    
C77   C78   S    
O19   C65   S    
C9    O23   S    
C57   H48   S    
C77   H97   S    
Cu2   O3    S    
C32   C34   S    
C76   H94   S    
C69   C70   S    
