data_mof_unit_15439.cif
_audit_creation_date              2012-12-10T20:27:53-0500
_audit_creation_method            fapswitch 2.2
_symmetry_space_group_name_H-M    P1
_symmetry_Int_Tables_number       1
_space_group_crystal_system       triclinic
_cell_length_a                    12.866461
_cell_length_b                    10.678319
_cell_length_c                    9.854664
_cell_angle_alpha                 90.450708
_cell_angle_beta                  97.12289
_cell_angle_gamma                 90.016982
_cell_volume                      1343.46188356

loop_
_atom_site_label
_atom_site_type_symbol
_atom_type_description
_atom_site_fract_x
_atom_site_fract_y
_atom_site_fract_z
_atom_type_partial_charge
C1    C     C_R   0.502381 0.259809 0.499811 0.884268
C2    C     C_R   0.028538 0.524608 0.560612 0.191248
C3    C     C_R   0.971276 0.477928 0.439065 0.186511
C4    C     C_R   0.864304 0.466410 0.431580 -0.283925
C5    C     C_R   0.870327 0.546143 0.664690 -0.211123
C6    C     C_R   0.978102 0.557595 0.673406 -0.223917
C7    C     C_R   0.535005 0.065316 0.624376 0.036330
C8    C     C_R   0.519540 0.128519 0.500815 -0.072263
C9    C     C_R   0.528050 0.063564 0.378491 -0.226029
C10   C     C_R   0.530585 0.934170 0.379605 -0.194429
C11   C     C_R   0.525538 0.871135 0.503332 -0.133353
C12   C     C_R   0.298150 0.500525 0.473245 0.885827
C13   C     C_R   0.542061 0.937593 0.626468 -0.021209
C14   C     C_3   0.490087 0.931628 0.755481 0.352654
C15   C     C_3   0.479226 0.073598 0.748554 -0.535729
C16   C     C_R   0.445482 0.410774 0.061758 0.213616
C17   C     C_R   0.562387 0.579467 0.082906 -0.112884
C18   C     C_R   0.562716 0.579136 0.938807 -0.096377
C19   C     C_R   0.445450 0.410776 0.919157 0.211390
C20   C     C_3   0.330308 0.388197 0.894824 -0.492748
C21   C     C_3   0.330392 0.388572 0.048820 -0.523577
C22   C     C_R   0.505286 0.740055 0.501135 0.873977
C23   C     C_R   0.701826 0.499817 0.526775 0.877256
C24   C     C_R   0.813900 0.502248 0.542993 -0.046008
C25   C     C_R   0.186008 0.499002 0.456990 -0.049709
C26   C     C_R   0.021709 0.444052 0.326641 -0.221906
C27   C     C_R   0.129508 0.454219 0.335814 -0.208778
C28   C     C_R   0.135526 0.536522 0.567770 -0.287642
H1    H     H_    0.820184 0.430815 0.338206 0.157724
H2    H     H_    0.396673 0.104934 0.723897 0.167929
H3    H     H_    0.524619 0.125551 0.834405 0.212108
H4    H     H_    0.610950 0.645033 0.146288 0.149161
H5    H     H_    0.612204 0.643847 0.892671 0.169797
H6    H     H_    0.286561 0.468315 0.844486 0.216140
H7    H     H_    0.310994 0.295272 0.846634 0.197844
H8    H     H_    0.287281 0.469402 0.086271 0.215945
H9    H     H_    0.310935 0.295951 0.089835 0.199607
H10   H     H_    0.831055 0.574454 0.751071 0.154115
H11   H     H_    0.978173 0.408303 0.233120 0.139258
H12   H     H_    0.021679 0.592883 0.767116 0.138691
H13   H     H_    0.168620 0.424007 0.250225 0.154130
H14   H     H_    0.179565 0.573597 0.660342 0.147980
H15   H     H_    0.524559 0.111119 0.281313 0.171317
H16   H     H_    0.527771 0.884697 0.282792 0.183652
H17   H     H_    0.413160 0.882723 0.739699 0.110288
N1    N     N_R   0.499290 0.499140 0.142710 -0.112238
N2    N     N_R   0.499290 0.499180 0.857070 -0.115408
O1    O     O_R   0.500010 0.316790 0.614690 -0.612231
O2    O     O_R   0.500000 0.316760 0.385350 -0.627819
O3    O     O_R   0.346360 0.499990 0.595720 -0.624239
O4    O     O_R   0.346350 0.499960 0.366370 -0.621038
O5    O     O_R   0.500000 0.683240 0.614650 -0.617883
O6    O     O_R   0.499990 0.683210 0.385310 -0.618185
O7    O     O_R   0.653650 0.500040 0.633630 -0.630789
O8    O     O_R   0.653640 0.500010 0.404280 -0.627090
Zn1   Zn    Zn3+2 0.500010 0.500020 0.653130 0.946088
Zn2   Zn    Zn3+2 0.499990 0.499980 0.346870 0.943611
O9    O     O_3   0.552632 0.889697 0.876692 -0.596835
C29   C     C_3   0.661445 0.914002 0.880215 0.131962
H18   H     H_    0.677593 0.011060 0.848670 0.145232
H19   H     H_    0.696562 0.846558 0.812374 0.139181
C30   C     C_3   0.715208 0.898511 0.025466 -0.873276
H20   H     H_    0.710774 0.799712 0.057554 0.237856
H21   H     H_    0.799026 0.925202 0.030408 0.213458
H22   H     H_    0.677248 0.959433 0.096812 0.262487

loop_
_geom_bond_atom_site_label_1
_geom_bond_atom_site_label_2
_ccdc_geom_bond_type
C12   O3    A    
C23   C24   S    
C1    O1    A    
C23   O8    A    
C30   H20   S    
O4    Zn2   S    
C22   O6    A    
C1    C8    S    
C29   H18   S    
C9    C10   A    
C27   H13   S    
C11   C22   S    
C4    H1    S    
C12   C25   S    
C20   H6    S    
C18   N2    A    
C7    C15   S    
C17   C18   A    
C21   H9    S    
C7    C8    A    
C21   H8    S    
C5    H10   S    
C20   C21   S    
C25   C28   A    
C15   H3    S    
C11   C13   A    
C26   C27   A    
C2    C6    A    
C5    C24   A    
C1    O2    A    
C23   O7    A    
C16   C19   A    
C4    C24   A    
C28   H14   S    
C2    C3    A    
C14   H17   S    
O7    Zn1   S    
O8    Zn2   S    
N1    Zn2   S    
C5    C6    A    
C14   O9    S    
C18   H5    S    
C6    H12   S    
C26   H11   S    
C9    H15   S    
C29   H19   S    
C10   C11   A    
C10   H16   S    
C3    C4    A    
C2    C28   A    
C7    C13   A    
C12   O4    A    
O2    Zn2   S    
C17   N1    A    
O5    Zn1   S    
C15   H2    S    
C22   O5    A    
C19   N2    A    
C16   N1    A    
O1    Zn1   S    
C17   H4    S    
O6    Zn2   S    
C14   C15   S    
N2    Zn1   S    
C29   C30   S    
C30   H21   S    
C30   H22   S    
O9    C29   S    
C13   C14   S    
C20   H7    S    
C16   C21   S    
C3    C26   A    
O3    Zn1   S    
C19   C20   S    
C8    C9    A    
C25   C27   A    
