data_mof_unit_24013.cif
_audit_creation_date              2012-12-11T14:23:15-0500
_audit_creation_method            fapswitch 2.2
_symmetry_space_group_name_H-M    P1
_symmetry_Int_Tables_number       1
_space_group_crystal_system       triclinic
_cell_length_a                    11.087378
_cell_length_b                    10.898292
_cell_length_c                    18.844978
_cell_angle_alpha                 90.155741
_cell_angle_beta                  90.157875
_cell_angle_gamma                 59.867614
_cell_volume                      1969.38440478

loop_
_atom_site_label
_atom_site_type_symbol
_atom_type_description
_atom_site_fract_x
_atom_site_fract_y
_atom_site_fract_z
_atom_type_partial_charge
C1    C     C_R   0.241178 0.643806 0.611337 0.546443
C2    C     C_R   0.549961 0.208038 0.719664 -0.158948
C3    C     C_R   0.561377 0.204137 0.791843 -0.164019
C4    C     C_R   0.653750 0.623200 0.600644 0.542662
C5    C     C_R   0.927655 0.127388 0.813034 -0.073104
C6    C     C_R   0.041085 0.098412 0.770180 -0.094732
C7    C     C_R   0.034623 0.084033 0.697298 -0.138250
C8    C     C_R   0.912667 0.103657 0.666224 -0.094352
C9    C     C_R   0.663144 0.179695 0.676396 -0.010655
C10   C     C_R   0.195952 0.654723 0.838041 0.008599
C11   C     C_R   0.196833 0.542350 0.799737 -0.033180
C12   C     C_3   0.659530 0.561940 0.800198 -0.249427
C13   C     C_R   0.190554 0.547363 0.724329 0.000251
C14   C     C_R   0.235810 0.743659 0.729038 -0.124440
C15   C     C_R   0.230150 0.745011 0.802427 0.331639
C16   C     C_R   0.627853 0.228477 0.602905 0.530368
C17   C     C_R   0.206026 0.423995 0.834955 -0.097240
C18   C     C_R   0.196671 0.319261 0.797540 -0.146524
C19   C     C_R   0.173254 0.332552 0.724766 -0.158515
C20   C     C_R   0.168001 0.446402 0.688434 -0.102604
C21   C     C_R   0.209521 0.651285 0.688275 -0.059946
C22   C     C_R   0.730042 0.697486 0.181834 -0.002128
C23   C     C_3   0.700617 0.676099 0.811369 0.040767
C24   C     C_R   0.801769 0.557887 0.211645 0.038972
C25   C     C_R   0.746895 0.535004 0.272874 0.025008
C26   C     C_R   0.626474 0.789014 0.296944 -0.153479
C27   C     C_R   0.649913 0.812738 0.226633 -0.161144
C28   C     C_R   0.287061 0.622112 0.392561 0.561336
C29   C     C_R   0.922068 0.438454 0.181801 -0.090660
C30   C     C_R   0.970671 0.301829 0.205642 -0.148001
C31   C     C_R   0.902391 0.279895 0.260025 -0.119786
C32   C     C_R   0.783022 0.394065 0.288224 -0.073134
C33   C     C_R   0.664876 0.651410 0.318667 0.008005
C34   C     C_3   0.670162 0.649333 0.675872 0.054408
C35   C     C_R   0.661134 0.148099 0.178765 0.001260
C36   C     C_R   0.528952 0.210657 0.209662 0.012372
C37   C     C_R   0.519915 0.191864 0.282510 0.036024
C38   C     C_R   0.769029 0.092718 0.295808 -0.185557
C39   C     C_R   0.781059 0.083498 0.222426 -0.150941
C40   C     C_R   0.641438 0.621378 0.391457 0.528229
C41   C     C_R   0.406977 0.273969 0.168312 -0.079495
C42   C     C_R   0.286574 0.283029 0.194108 -0.119249
C43   C     C_R   0.279801 0.247196 0.264057 -0.157149
C44   C     C_R   0.395198 0.201520 0.308022 -0.095823
C45   C     C_3   0.820264 0.616380 0.690844 -0.244744
C46   C     C_R   0.637997 0.159266 0.326018 -0.003757
C47   C     C_R   0.176606 0.654060 0.175617 0.000083
C48   C     C_R   0.264098 0.705937 0.197188 0.025800
C49   C     C_R   0.280943 0.718821 0.270341 0.011341
C50   C     C_R   0.169471 0.579106 0.294372 -0.128090
C51   C     C_R   0.127222 0.595427 0.224889 -0.152157
C52   C     C_R   0.616388 0.224496 0.396387 0.525605
C53   C     C_R   0.316444 0.765066 0.147834 -0.073677
C54   C     C_R   0.348277 0.866901 0.169788 -0.100830
C55   C     C_R   0.340070 0.900160 0.241221 -0.143844
C56   C     C_3   0.640486 0.546835 0.720495 -0.212775
C57   C     C_R   0.317961 0.820210 0.291526 -0.112097
C58   C     C_R   0.246804 0.639817 0.318270 0.005255
C59   C     C_R   0.702451 0.103328 0.896463 0.533120
C60   C     C_R   0.725087 0.688973 0.887526 0.560767
C61   C     C_R   0.122256 0.702588 0.906827 0.560831
C62   C     C_R   0.677707 0.103907 0.104819 0.524474
C63   C     C_R   0.737991 0.717765 0.105017 0.567643
C64   C     C_3   0.584116 0.819319 0.779624 -0.229341
C65   C     C_R   0.099119 0.705252 0.110300 0.521631
C66   C     C_3   0.568262 0.804196 0.699335 -0.242747
C67   C     C_R   0.688397 0.163511 0.824980 -0.014250
C68   C     C_3   0.837764 0.633403 0.770409 -0.221296
C69   C     C_R   0.803575 0.143783 0.783095 0.008560
C70   C     C_R   0.793180 0.142127 0.707788 0.009756
Cr1   Cr    Cr6+3 0.392940 0.397950 0.502230 0.997481
Cr2   Cr    Cr6+3 0.398400 0.708500 0.501260 0.986259
Cr3   Cr    Cr6+3 0.708640 0.393530 0.496460 0.995895
Cr4   Cr    Cr6+3 0.937880 0.938320 0.007620 1.023513
Cr5   Cr    Cr6+3 0.625560 0.937220 0.994510 1.009389
Cr6   Cr    Cr6+3 0.938080 0.625010 0.001190 0.980264
F1    F     F_    0.256789 0.836238 0.838966 -0.672241
H1    H     H_    0.610415 0.904242 0.788434 0.142292
H2    H     H_    0.264176 0.814535 0.704121 0.146103
H3    H     H_    0.482999 0.852907 0.806495 0.187635
H4    H     H_    0.228166 0.407266 0.891161 0.132039
H5    H     H_    0.207913 0.228258 0.825799 0.112661
H6    H     H_    0.161342 0.253571 0.695927 0.110967
H7    H     H_    0.143550 0.454197 0.632642 0.140181
H8    H     H_    0.570194 0.878058 0.332572 0.115018
H9    H     H_    0.985516 0.447577 0.141725 0.147702
H10   H     H_    0.604105 0.919989 0.206986 0.139038
H11   H     H_    0.061892 0.212852 0.182298 0.114618
H12   H     H_    0.712562 0.434968 0.704540 0.150821
H13   H     H_    0.945480 0.174449 0.280679 0.117605
H14   H     H_    0.458662 0.834336 0.687714 0.136513
H15   H     H_    0.720605 0.373157 0.323033 0.169791
H16   H     H_    0.860936 0.050767 0.329143 0.125206
H17   H     H_    0.406615 0.306932 0.114119 0.129814
H18   H     H_    0.884894 0.025041 0.200081 0.162422
H19   H     H_    0.201029 0.315571 0.158363 0.098441
H20   H     H_    0.186572 0.252531 0.284654 0.120926
H21   H     H_    0.387572 0.164222 0.359946 0.137805
H22   H     H_    0.132147 0.528171 0.330369 0.150536
H23   H     H_    0.922767 0.531116 0.791091 0.169107
H24   H     H_    0.319628 0.743217 0.091544 0.135875
H25   H     H_    0.050251 0.568451 0.210626 0.124271
H26   H     H_    0.590617 0.878639 0.669573 0.118809
H27   H     H_    0.360384 0.982006 0.258330 0.120911
H28   H     H_    0.322609 0.847719 0.345701 0.165515
H29   H     H_    0.869447 0.714606 0.778455 0.126366
H30   H     H_    0.843961 0.688409 0.659744 0.114016
H31   H     H_    0.741768 0.458320 0.821833 0.126680
H32   H     H_    0.560827 0.591840 0.828818 0.150249
H33   H     H_    0.532551 0.568731 0.710388 0.127555
H34   H     H_    0.895737 0.505637 0.674701 0.147155
H35   H     H_    0.136300 0.082646 0.793802 0.164571
H36   H     H_    0.375273 0.922871 0.131446 0.143289
H37   H     H_    0.448812 0.237712 0.697942 0.170256
H38   H     H_    0.937584 0.142405 0.868864 0.152761
H39   H     H_    0.471198 0.222925 0.821999 0.155935
H40   H     H_    0.124769 0.056944 0.664626 0.103746
H41   H     H_    0.914162 0.086056 0.609695 0.137153
O1    O     O_R   0.507340 0.255690 0.581430 -0.526846
O2    O     O_R   0.837290 0.593240 0.915240 -0.523594
O3    O     O_R   0.065320 0.635310 0.931580 -0.532474
O4    O     O_R   0.280360 0.527380 0.578910 -0.502160
O5    O     O_R   0.068470 0.828620 0.091850 -0.526083
O6    O     O_R   0.799150 0.057200 0.079350 -0.505245
O7    O     O_R   0.585220 0.080180 0.076770 -0.539614
O8    O     O_R   0.627170 0.809480 0.067050 -0.496627
O9    O     O_R   0.816200 0.596410 0.076500 -0.531155
O10   O     O_R   0.045770 0.638240 0.081070 -0.544545
O11   O     O_3   0.833840 0.833520 0.001110 -0.274643
O12   O     O_R   0.524510 0.695820 0.424050 -0.534117
O13   O     O_R   0.260600 0.739610 0.584580 -0.527022
O14   O     O_R   0.532370 0.695050 0.573830 -0.510997
O15   O     O_R   0.744850 0.503430 0.576380 -0.523343
O16   O     O_R   0.699080 0.276500 0.571950 -0.508157
O17   O     O_R   0.498860 0.256520 0.419860 -0.537490
O18   O     O_R   0.272490 0.528150 0.429140 -0.500052
O19   O     O_R   0.252110 0.740440 0.423010 -0.536315
O20   O     O_R   0.736370 0.504260 0.414810 -0.522602
O21   O     O_R   0.691220 0.277270 0.422180 -0.521460
O22   O     O_3   0.499990 0.499990 0.499980 -0.263284
O23   O     O_R   0.089570 0.825450 0.930590 -0.444972
O24   O     O_R   0.818700 0.054260 0.929860 -0.508599
O25   O     O_R   0.606310 0.077010 0.915520 -0.529425
O26   O     O_R   0.646730 0.806540 0.917560 -0.491209

loop_
_geom_bond_atom_site_label_1
_geom_bond_atom_site_label_2
_ccdc_geom_bond_type
C57   H28   S    
C34   C56   S    
C11   C13   A    
C41   C42   A    
C7    H40   S    
Cr1   O4    S    
Cr4   O6    S    
C19   C20   A    
C16   O16   A    
C34   C66   S    
C62   O6    A    
C8    H41   S    
C7    C8    A    
C4    O14   A    
C41   H17   S    
C15   F1    S    
C53   C54   A    
C51   H25   S    
C1    C21   S    
C5    C6    A    
C12   C23   S    
C26   C27   A    
Cr6   O2    S    
C42   H19   S    
Cr6   O3    S    
C14   C21   A    
C36   C37   A    
C9    C16   S    
C10   C15   A    
Cr1   O17   S    
C30   C31   A    
Cr3   O20   S    
C54   H36   S    
C46   C52   S    
C52   O21   A    
C49   C57   A    
C61   O3    A    
C18   C19   A    
C24   C29   A    
C5    C69   A    
C59   C67   S    
C22   C63   S    
C1    O4    A    
C44   H21   S    
C11   C17   A    
C35   C36   A    
C59   O24   A    
C53   H24   S    
C40   O20   A    
C25   C32   A    
Cr4   O5    S    
Cr4   O24   S    
C59   O25   A    
C5    H38   S    
C64   H3    S    
C36   C41   A    
C23   C60   S    
C68   H29   S    
C19   H6    S    
C56   H33   S    
C12   H32   S    
Cr2   O14   S    
Cr2   O19   S    
C48   C53   A    
C4    C34   S    
C33   C40   S    
C50   C58   A    
C65   O10   A    
C38   C39   A    
C9    C70   A    
Cr5   O26   S    
C16   O1    A    
Cr1   O18   S    
C12   H31   S    
C47   C51   A    
Cr3   O21   S    
C50   C51   A    
C55   H27   S    
C49   C58   A    
C67   C69   A    
C64   C66   S    
C23   C68   S    
C35   C39   A    
C43   C44   A    
C68   H23   S    
C29   C30   A    
Cr6   O11   S    
C26   C33   A    
C47   C48   A    
C31   H13   S    
C45   C68   S    
C17   C18   A    
C50   H22   S    
C13   C21   A    
C34   C45   S    
C14   H2    S    
C24   C25   A    
C27   H10   S    
C39   H18   S    
C29   H9    S    
C12   C56   S    
C66   H14   S    
Cr5   O25   S    
C61   O23   A    
C23   C64   S    
Cr4   O23   S    
Cr3   O15   S    
C22   C27   A    
C55   C57   A    
Cr6   O10   S    
C22   C24   A    
C10   C61   S    
C42   C43   A    
C30   H11   S    
Cr2   O13   S    
C52   O17   A    
C40   O12   A    
C54   C55   A    
C56   H12   S    
Cr1   O22   S    
C13   C20   A    
C28   O18   A    
C64   H1    S    
C66   H26   S    
C31   C32   A    
C3    C67   A    
C28   O19   A    
C43   H20   S    
C1    O13   A    
C62   O7    A    
C45   H34   S    
Cr2   O12   S    
C6    C7    A    
Cr3   O22   S    
C28   C58   S    
C8    C70   A    
Cr1   O1    S    
C3    H39   S    
Cr5   O8    S    
C37   C44   A    
C20   H7    S    
C2    C3    A    
C60   O26   A    
C2    H37   S    
C32   H15   S    
C26   H8    S    
C48   C49   A    
C38   H16   S    
C18   H5    S    
C60   O2    A    
C35   C62   S    
C17   H4    S    
C65   O5    A    
C69   C70   A    
C38   C46   A    
C63   O8    A    
C10   C11   A    
C45   H30   S    
Cr2   O22   S    
Cr3   O16   S    
Cr4   O11   S    
Cr6   O9    S    
C14   C15   A    
C6    H35   S    
Cr5   O7    S    
C37   C46   A    
C2    C9    A    
C47   C65   S    
C63   O9    A    
Cr5   O11   S    
C25   C33   A    
C4    O15   A    
