data_mof_unit_37434.cif
_audit_creation_date              2012-12-10T17:36:21-0500
_audit_creation_method            fapswitch 2.2
_symmetry_space_group_name_H-M    P1
_symmetry_Int_Tables_number       1
_space_group_crystal_system       triclinic
_cell_length_a                    12.313428
_cell_length_b                    13.155348
_cell_length_c                    15.856712
_cell_angle_alpha                 77.950685
_cell_angle_beta                  101.163196
_cell_angle_gamma                 116.279794
_cell_volume                      2237.32093192

loop_
_atom_site_label
_atom_site_type_symbol
_atom_type_description
_atom_site_fract_x
_atom_site_fract_y
_atom_site_fract_z
_atom_type_partial_charge
C1    C     C_R   0.855118 0.286815 0.504970 0.790642
C2    C     C_R   0.228542 0.834423 0.470196 -0.073867
C3    C     C_R   0.822021 0.084801 0.543108 -0.297127
C4    C     C_R   0.999810 0.500040 0.659609 0.827067
C5    C     C_R   0.746457 0.969722 0.558464 -0.225708
C6    C     C_R   0.620310 0.930584 0.539269 0.444594
C7    C     C_R   0.568117 0.007459 0.492090 -0.035953
C8    C     C_R   0.648538 0.124700 0.470897 0.028369
C9    C     C_R   0.439933 0.975674 0.468863 0.072974
C10   C     C_R   0.395943 0.060813 0.433637 0.168843
C11   C     C_R   0.477057 0.171007 0.405206 -0.238560
C12   C     C_3   0.998483 0.387692 0.067843 -0.391180
C13   C     C_R   0.600902 0.199889 0.418174 -0.176782
C14   C     C_R   0.353214 0.862343 0.477564 -0.234153
C15   C     C_R   0.187087 0.920651 0.443901 -0.198478
C16   C     C_R   0.145065 0.713357 0.486002 0.802531
C17   C     C_R   0.774178 0.164102 0.503687 -0.092963
C18   C     C_R   0.345196 0.325951 0.635579 -0.311554
C19   C     C_R   0.764056 0.652267 0.389008 -0.061388
C20   C     C_R   0.672334 0.692281 0.369476 0.390366
C21   C     C_R   0.565800 0.631865 0.409650 -0.221376
C22   C     C_R   0.553175 0.537076 0.474267 -0.078906
C23   C     C_3   0.003624 0.502393 0.083215 0.274254
C24   C     C_R   0.652878 0.504859 0.495945 0.261504
C25   C     C_R   0.447526 0.475758 0.520291 -0.004752
C26   C     C_R   0.445803 0.386371 0.588500 0.169986
C27   C     C_R   0.544965 0.358395 0.610115 -0.285236
C28   C     C_R   0.000190 0.499854 0.340439 0.820022
C29   C     C_R   0.646206 0.416579 0.565249 -0.151210
C30   C     C_R   0.342736 0.498894 0.502123 0.020320
C31   C     C_R   0.245881 0.353602 0.614972 0.061972
C32   C     C_3   0.000090 0.388672 0.970146 -0.445399
C33   C     C_3   0.889052 0.513446 0.932323 -0.466420
C34   C     C_3   0.121702 0.602673 0.051718 -0.488208
C35   C     C_3   0.891997 0.519084 0.029309 -0.394999
C36   C     C_1   0.000880 0.499902 0.250925 -0.185957
C37   C     C_3   0.005331 0.503995 0.917363 0.271931
C38   C     C_3   0.530991 0.802031 0.653119 0.013736
C39   C     C_3   0.452158 0.675585 0.681261 -0.316474
C40   C     C_3   0.423649 0.654076 0.774446 -0.884490
C41   C     C_3   0.788873 0.884755 0.333078 0.043047
C42   C     C_3   0.770215 0.993395 0.294825 -0.300449
C43   C     C_3   0.885383 0.101031 0.312882 -0.933219
C44   C     C_3   0.296494 0.552648 0.987843 0.035629
C45   C     C_3   0.124042 0.606666 0.951260 0.641091
C46   C     C_3   0.414323 0.645117 0.025664 -0.348041
C47   C     C_3   0.484961 0.592572 0.096612 -0.905895
C48   C     C_1   0.001700 0.500587 0.175378 -0.082815
C49   C     C_1   0.002354 0.502272 0.824865 -0.019651
C50   C     C_1   0.000441 0.501159 0.749187 -0.174695
C51   C     C_R   0.270456 0.033183 0.422657 -0.196951
Cu1   Cu    Cu3+1 0.098280 0.475420 0.519630 0.926235
Cu2   Cu    Cu3+1 0.901720 0.524580 0.480370 0.918726
H1    H     H_    0.913645 0.315561 0.089956 0.175781
H2    H     H_    0.785585 0.910441 0.590840 0.157046
H3    H     H_    0.916092 0.316556 0.946474 0.170068
H4    H     H_    0.657943 0.282445 0.386149 0.179416
H5    H     H_    0.167793 0.307259 0.650968 0.124410
H6    H     H_    0.544801 0.290969 0.662897 0.146149
H7    H     H_    0.343469 0.257810 0.688047 0.136220
H8    H     H_    0.335178 0.564019 0.450598 0.127752
H9    H     H_    0.845149 0.695821 0.356058 0.135241
H10   H     H_    0.496642 0.664134 0.391441 0.159931
H11   H     H_    0.718285 0.390577 0.588787 0.202660
H12   H     H_    0.077399 0.372251 0.960271 0.166673
H13   H     H_    0.878997 0.588917 0.891115 0.177342
H14   H     H_    0.806305 0.437440 0.912637 0.179199
H15   H     H_    0.806138 0.451557 0.053681 0.175150
H16   H     H_    0.896160 0.603197 0.036358 0.166718
H17   H     H_    0.201712 0.597377 0.094584 0.163185
H18   H     H_    0.481966 0.853402 0.659423 0.149908
H19   H     H_    0.618627 0.828425 0.696700 0.144811
H20   H     H_    0.365127 0.647730 0.637709 0.254016
H21   H     H_    0.500362 0.623427 0.675768 0.225871
H22   H     H_    0.509180 0.678316 0.819818 0.239385
H23   H     H_    0.076088 0.371806 0.107019 0.158626
H24   H     H_    0.365330 0.561728 0.792028 0.261150
H25   H     H_    0.373940 0.704283 0.781097 0.282388
H26   H     H_    0.867458 0.887716 0.306276 0.135353
H27   H     H_    0.810210 0.883383 0.405002 0.141494
H28   H     H_    0.745022 0.995497 0.223472 0.218752
H29   H     H_    0.694382 0.992620 0.323705 0.226101
H30   H     H_    0.913384 0.100506 0.383798 0.268255
H31   H     H_    0.867580 0.178049 0.286535 0.252646
H32   H     H_    0.960979 0.106167 0.281234 0.248978
H33   H     H_    0.322376 0.503751 0.952392 0.156862
H34   H     H_    0.124282 0.684011 0.064079 0.140241
H35   H     H_    0.244789 0.488542 0.039164 0.131119
H36   H     H_    0.472610 0.696038 0.972959 0.219958
H37   H     H_    0.393468 0.704676 0.053088 0.216920
H38   H     H_    0.429487 0.543814 0.151126 0.255647
H39   H     H_    0.570280 0.661588 0.121923 0.272435
H40   H     H_    0.509122 0.534387 0.070174 0.246698
H41   H     H_    0.205881 0.782104 0.919282 0.219203
H42   H     H_    0.056937 0.732832 0.926289 0.177400
H43   H     H_    0.090668 0.900567 0.436000 0.144440
H44   H     H_    0.444551 0.234417 0.370701 0.143272
H45   H     H_    0.237035 0.098565 0.397462 0.134548
H46   H     H_    0.379807 0.793596 0.484605 0.217488
H47   H     H_    0.918236 0.112033 0.565642 0.176585
N1    N     N_R   0.246300 0.438200 0.549400 -0.187749
N2    N     N_R   0.754300 0.561180 0.451130 -0.224156
N3    N     N_3   0.121095 0.715108 0.904966 -0.588339
O1    O     O_R   0.972520 0.318130 0.524690 -0.582580
O2    O     O_3   0.682293 0.788315 0.309508 -0.614546
O3    O     O_3   0.229287 0.604436 0.926603 -0.610326
O4    O     O_R   0.806530 0.359650 0.491530 -0.608201
O5    O     O_R   0.083030 0.479240 0.637150 -0.573907
O6    O     O_R   0.917040 0.520750 0.603990 -0.589896
O7    O     O_R   0.193470 0.640350 0.508470 -0.601817
O8    O     O_R   0.027480 0.681870 0.475310 -0.585944
O9    O     O_R   0.082960 0.479250 0.396010 -0.576475
O10   O     O_R   0.916970 0.520760 0.362850 -0.582076
O11   O     O_3   0.552107 0.816163 0.566126 -0.638471

loop_
_geom_bond_atom_site_label_1
_geom_bond_atom_site_label_2
_ccdc_geom_bond_type
C4    O6    A    
C8    C13   A    
C27   C29   A    
C43   H30   S    
C47   H39   S    
C19   C20   A    
C42   H29   S    
C41   H27   S    
C16   O7    A    
C7    C8    A    
C46   H36   S    
Cu1   Cu2   S    
C4    O5    A    
C12   C23   S    
C26   C27   A    
C41   O2    S    
C31   N1    A    
C31   H5    S    
C38   C39   S    
C38   O11   S    
C19   N2    A    
C13   H4    S    
Cu1   O9    S    
C19   H9    S    
C41   C42   S    
C39   H21   S    
C24   C29   A    
C6    O11   S    
C45   N3    S    
C46   C47   S    
C3    H47   S    
C44   C46   S    
H42   N3    S    
C22   C25   A    
C18   C26   A    
C36   C48   T    
C15   C51   A    
C2    C16   S    
C9    C10   A    
C34   H17   S    
C24   N2    A    
Cu2   O8    S    
C51   H45   S    
C29   H11   S    
C21   C22   A    
C12   C32   S    
C43   H31   S    
C42   H28   S    
C44   H33   S    
C10   C51   A    
Cu2   O10   S    
C33   H13   S    
C38   H19   S    
Cu1   N1    S    
C43   H32   S    
C14   H46   S    
C28   O10   A    
C39   C40   S    
C25   C26   A    
C33   C37   S    
C4    C50   S    
C9    C14   A    
C37   C49   S    
Cu2   O4    S    
Cu1   O7    S    
Cu2   N2    S    
C23   C34   S    
C47   H40   S    
C34   C45   S    
C32   C37   S    
C2    C15   A    
C1    O1    A    
C28   C36   S    
C1    O4    A    
C18   H7    S    
H41   N3    S    
C23   C35   S    
C12   H23   S    
C40   H25   S    
C42   C43   S    
C37   C45   S    
C15   H43   S    
C45   O3    S    
C33   H14   S    
C20   O2    S    
Cu2   O6    S    
C25   C30   A    
C7    C9    A    
C38   H18   S    
Cu1   O1    S    
C23   C48   S    
C47   H38   S    
C5    H2    S    
C3    C5    A    
C41   H26   S    
C6    C7    A    
C46   H37   S    
C44   O3    S    
C1    C17   S    
C8    C17   A    
C40   H22   S    
C11   H44   S    
C27   H6    S    
C11   C13   A    
C5    C6    A    
C35   H15   S    
C30   N1    A    
C33   C35   S    
C32   H3    S    
C3    C17   A    
C22   C24   A    
C34   H34   S    
C39   H20   S    
C2    C14   A    
C21   H10   S    
C10   C11   A    
C20   C21   A    
C35   H16   S    
C49   C50   T    
C30   H8    S    
C40   H24   S    
Cu1   O5    S    
C18   C31   A    
C44   H35   S    
C28   O9    A    
C12   H1    S    
C16   O8    A    
C32   H12   S    
