data_mof_unit_48950.cif
_audit_creation_date              2012-12-10T17:33:42-0500
_audit_creation_method            fapswitch 2.2
_symmetry_space_group_name_H-M    P1
_symmetry_Int_Tables_number       1
_space_group_crystal_system       triclinic
_cell_length_a                    11.687621
_cell_length_b                    12.298921
_cell_length_c                    13.218503
_cell_angle_alpha                 116.261669
_cell_angle_beta                  77.983758
_cell_angle_gamma                 101.1255
_cell_volume                      1655.58531399

loop_
_atom_site_label
_atom_site_type_symbol
_atom_type_description
_atom_site_fract_x
_atom_site_fract_y
_atom_site_fract_z
_atom_type_partial_charge
C1    C     C_R   0.514651 0.854846 0.286308 0.779024
C2    C     C_R   0.485310 0.230693 0.835306 -0.071397
C3    C     C_R   0.641669 0.804980 0.097957 -0.005075
C4    C     C_R   0.721300 0.717537 0.032192 0.029640
C5    C     C_R   0.683662 0.595130 0.011056 -0.231129
C6    C     C_R   0.565101 0.558025 0.041044 0.022954
C7    C     C_R   0.498805 0.646257 0.130313 0.070894
C8    C     C_R   0.513217 0.434977 0.991417 0.059005
C9    C     C_R   0.416632 0.396805 0.057883 0.139944
C10   C     C_R   0.358646 0.483294 0.155275 -0.212968
C11   C     C_R   0.392968 0.606876 0.184717 -0.172632
C12   C     C_R   0.715804 0.999525 0.499712 0.802958
C13   C     C_R   0.542006 0.354048 0.874309 0.025690
C14   C     C_R   0.409797 0.190910 0.912695 -0.231465
C15   C     C_R   0.542444 0.771373 0.165303 -0.141814
C16   C     C_R   0.693109 0.346582 0.330632 -0.089948
C17   C     C_R   0.343175 0.759215 0.645392 0.078936
C18   C     C_R   0.309681 0.662445 0.676899 -0.249021
C19   C     C_R   0.369457 0.559235 0.621821 -0.199437
C20   C     C_R   0.464352 0.551485 0.533926 0.006706
C21   C     C_R   0.495644 0.653379 0.505258 0.286359
C22   C     C_R   0.529566 0.447407 0.474274 -0.030307
C23   C     C_R   0.490707 0.145903 0.713283 0.787823
C24   C     C_R   0.626313 0.447741 0.388362 0.076039
C25   C     C_R   0.652892 0.548455 0.361453 -0.284131
C26   C     C_R   0.590367 0.648314 0.419034 -0.155584
C27   C     C_R   0.502337 0.342164 0.496259 -0.005944
C28   C     C_R   0.659152 0.246256 0.357622 0.056940
C29   C     C_R   0.284197 0.000402 0.500162 0.826305
C30   C     C_1   0.837384 0.999336 0.500022 -0.185520
C31   C     C_1   0.939979 0.999800 0.500134 0.002886
C32   C     C_1   0.059947 0.000506 0.500117 0.003182
C33   C     C_1   0.162560 0.000805 0.500085 -0.184438
C34   C     C_R   0.372731 0.273875 0.021780 -0.197317
Cu1   Cu    Cu3+1 0.526510 0.098270 0.475420 0.926568
Cu2   Cu    Cu3+1 0.473490 0.901730 0.524580 0.928106
H1    H     H_    0.368612 0.097475 0.885158 0.163751
H2    H     H_    0.721922 0.552358 0.294441 0.140581
H3    H     H_    0.430479 0.333713 0.559041 0.130243
H4    H     H_    0.296461 0.839081 0.688604 0.131435
H5    H     H_    0.339743 0.487671 0.650441 0.139744
H6    H     H_    0.237229 0.667467 0.744310 0.167391
H7    H     H_    0.620726 0.720109 0.392560 0.205336
H8    H     H_    0.280677 0.455637 0.203011 0.149956
H9    H     H_    0.303716 0.243111 0.075265 0.150116
H10   H     H_    0.744115 0.527687 0.963774 0.191342
H11   H     H_    0.336970 0.670944 0.251472 0.160315
H12   H     H_    0.707885 0.167777 0.316142 0.166946
N1    N     N_R   0.566700 0.246290 0.438210 -0.204348
N2    N     N_R   0.434010 0.754320 0.561170 -0.208198
O1    O     O_R   0.533340 0.972510 0.318140 -0.588668
O2    O     O_R   0.488570 0.806530 0.359650 -0.597567
O3    O     O_R   0.685190 0.083000 0.479260 -0.576636
O4    O     O_R   0.640410 0.917020 0.520770 -0.592460
O5    O     O_R   0.511430 0.193470 0.640350 -0.586737
O6    O     O_R   0.466660 0.027490 0.681860 -0.588017
O7    O     O_R   0.359590 0.082980 0.479230 -0.569863
O8    O     O_R   0.314810 0.917000 0.520740 -0.579637
C35   C     C_2   0.800061 0.343446 0.245514 0.319546
H13   H     H_    0.845378 0.425265 0.237583 0.083287
O9    O     O_2   0.841378 0.247696 0.183562 -0.577096
C36   C     C_3   0.615720 0.403382 0.789146 -0.387618
C37   C     C_3   0.732871 0.347617 0.735951 -0.313040
C38   C     C_3   0.803122 0.397211 0.651242 -0.764076
H14   H     H_    0.751512 0.376105 0.581844 0.254484
H15   H     H_    0.825436 0.497618 0.694959 0.266507
H16   H     H_    0.886111 0.354203 0.613174 0.239471
H17   H     H_    0.787215 0.367822 0.802967 0.211466
H18   H     H_    0.717244 0.246986 0.691384 0.221530
H19   H     H_    0.563752 0.392229 0.723702 0.215880
H20   H     H_    0.633264 0.503417 0.824185 0.196223
C39   C     C_3   0.658611 0.927848 0.091317 -0.400577
C40   C     C_3   0.652500 0.911506 0.970134 -0.370556
C41   C     C_3   0.660812 0.034381 0.964768 -0.785300
H21   H     H_    0.588191 0.086709 0.023854 0.255856
H22   H     H_    0.746653 0.088510 0.987758 0.286555
H23   H     H_    0.653813 0.019240 0.876865 0.238510
H24   H     H_    0.724980 0.861280 0.908657 0.220302
H25   H     H_    0.567593 0.857636 0.942911 0.228710
H26   H     H_    0.587467 0.983887 0.146383 0.237531
H27   H     H_    0.743219 0.980183 0.120251 0.206830
C42   C     C_2   0.842655 0.751870 0.985280 0.323815
H28   H     H_    0.877077 0.846836 0.008325 0.087565
O10   O     O_2   0.906486 0.674034 0.920303 -0.562663

loop_
_geom_bond_atom_site_label_1
_geom_bond_atom_site_label_2
_ccdc_geom_bond_type
C16   C28   A    
C21   C26   A    
C8    C13   A    
Cu1   O3    S    
C40   C41   S    
C11   H11   S    
C19   C20   A    
C3    C15   A    
C23   O6    A    
C7    C11   A    
C41   H22   S    
Cu2   O8    S    
C18   H6    S    
C5    C6    A    
C29   C33   S    
C36   H19   S    
C18   C19   A    
C2    C13   A    
C13   C36   S    
C37   H18   S    
C27   H3    S    
C8    C9    A    
C41   H23   S    
Cu1   N1    S    
C40   H24   S    
C1    C15   S    
C9    C10   A    
C12   O3    A    
Cu2   O2    S    
C7    C15   A    
C35   H13   S    
C16   C24   A    
C21   N2    A    
C26   H7    S    
C35   O9    D    
C41   H21   S    
Cu1   O5    S    
C38   H16   S    
C24   C25   A    
C4    C5    A    
C6    C8    A    
C25   C26   A    
C10   H8    S    
C17   H4    S    
C38   H15   S    
C36   C37   S    
Cu2   O6    S    
C25   H2    S    
C28   N1    A    
C31   C32   S    
C17   C18   A    
C40   H25   S    
C34   H9    S    
C29   O8    A    
C1    O1    A    
C29   O7    A    
C42   O10   D    
C22   C27   A    
Cu1   O1    S    
C9    C34   A    
C22   C24   A    
C3    C4    A    
Cu2   N2    S    
C37   H17   S    
C28   H12   S    
C12   C30   S    
C39   H27   S    
C20   C22   A    
C39   C40   S    
C17   N2    A    
C14   C34   A    
C23   O5    A    
C6    C7    A    
C5    H10   S    
Cu1   O7    S    
C38   H14   S    
C3    C39   S    
C39   H26   S    
C32   C33   T    
C14   H1    S    
C30   C31   T    
C36   H20   S    
C2    C14   A    
C1    O2    A    
Cu2   O4    S    
C10   C11   A    
C37   C38   S    
C27   N1    A    
C4    C42   S    
C20   C21   A    
C42   H28   S    
C2    C23   S    
Cu1   Cu2   S    
C16   C35   S    
C12   O4    A    
C19   H5    S    
