data_mof_unit_58656.cif
_audit_creation_date              2012-10-26T20:02:41-0400
_audit_creation_method            fapswitch 2.2
_symmetry_space_group_name_H-M    P1
_symmetry_Int_Tables_number       1
_space_group_crystal_system       triclinic
_cell_length_a                    19.029417
_cell_length_b                    18.489939
_cell_length_c                    12.343437
_cell_angle_alpha                 89.894566
_cell_angle_beta                  129.105519
_cell_angle_gamma                 89.937034
_cell_volume                      3370.14185804

loop_
_atom_site_label
_atom_site_type_symbol
_atom_type_description
_atom_site_fract_x
_atom_site_fract_y
_atom_site_fract_z
_atom_type_partial_charge
C1    C     C_R   0.613110 0.898878 0.654223 0.548811
C2    C     C_R   0.672498 0.738932 0.041157 0.037587
C3    C     C_R   0.173054 0.760976 0.042020 0.037262
C4    C     C_R   0.155142 0.212315 0.001209 0.038992
C5    C     C_R   0.596874 0.228589 0.926401 -0.129712
C6    C     C_R   0.594586 0.768677 0.920659 -0.136024
C7    C     C_R   0.095310 0.730659 0.922771 -0.134049
C8    C     C_R   0.078722 0.246256 0.884503 -0.132413
C9    C     C_R   0.597860 0.201944 0.822659 -0.119181
C10   C     C_R   0.596794 0.796289 0.818552 -0.114369
C11   C     C_R   0.096989 0.703071 0.820230 -0.112653
C12   C     C_R   0.612995 0.101192 0.654123 0.539552
C13   C     C_R   0.085127 0.286495 0.796149 -0.110645
C14   C     C_R   0.319909 0.812930 0.153921 -0.086739
C15   C     C_R   0.315259 0.185984 0.149881 -0.094096
C16   C     C_R   0.820586 0.312373 0.154836 -0.087982
C17   C     C_R   0.820427 0.688044 0.155481 -0.087883
C18   C     C_R   0.241643 0.835588 0.246756 -0.130952
C19   C     C_R   0.225587 0.142061 0.212839 -0.125187
C20   C     C_R   0.743385 0.333747 0.249805 -0.139178
C21   C     C_R   0.740988 0.663889 0.245923 -0.131971
C22   C     C_R   0.683682 0.153836 0.750442 -0.011493
C23   C     C_R   0.112667 0.398338 0.653568 0.545112
C24   C     C_R   0.684160 0.846442 0.750863 -0.004292
C25   C     C_R   0.183650 0.653862 0.750336 -0.004317
C26   C     C_R   0.177938 0.339920 0.740202 -0.005476
C27   C     C_R   0.684415 0.000963 0.286179 -0.136345
C28   C     C_R   0.184411 0.500684 0.286192 -0.135865
C29   C     C_R   0.343686 0.999256 0.627491 0.053662
C30   C     C_R   0.843679 0.499915 0.627488 0.049221
C31   C     C_R   0.309416 0.997773 0.699293 -0.135344
C32   C     C_R   0.809380 0.499947 0.699283 -0.153669
C33   C     C_R   0.383975 0.098682 0.342001 0.541207
C34   C     C_R   0.112983 0.601198 0.654090 0.547458
C35   C     C_R   0.384600 0.901033 0.342990 0.549718
C36   C     C_R   0.884622 0.599022 0.343066 0.549068
C37   C     C_R   0.884846 0.400822 0.343332 0.548515
C38   C     C_R   0.368162 0.997209 0.844882 -0.085680
C39   C     C_R   0.868105 0.500063 0.844893 -0.128500
C40   C     C_R   0.462691 0.998587 0.921327 0.020827
C41   C     C_R   0.962645 0.500158 0.921321 -0.000259
C42   C     C_R   0.494752 0.999625 0.842834 0.175849
C43   C     C_R   0.994728 0.500132 0.842831 0.178400
C44   C     C_R   0.526460 0.999021 0.072040 0.018495
C45   C     C_R   0.253279 0.764259 0.056913 0.045336
C46   C     C_R   0.026415 0.500244 0.072025 -0.002330
C47   C     C_R   0.620360 0.000115 0.140011 0.036537
C48   C     C_R   0.120334 0.500566 0.140011 0.040000
C49   C     C_R   0.650128 0.000375 0.062056 -0.157132
C50   C     C_R   0.150101 0.500630 0.062058 -0.161888
C51   C     C_R   0.588954 0.000056 0.917314 -0.087058
C52   C     C_R   0.088929 0.500228 0.917315 -0.090068
C53   C     C_R   0.501833 0.998809 0.159593 0.098744
C54   C     C_R   0.001789 0.499979 0.159566 0.064258
C55   C     C_R   0.655821 0.000947 0.365655 0.049940
C56   C     C_R   0.238164 0.214228 0.023899 0.045417
C57   C     C_R   0.155828 0.500375 0.365673 0.055717
C58   C     C_R   0.671493 0.291342 0.144739 -0.126840
C59   C     C_R   0.668457 0.705613 0.139218 -0.124400
C60   C     C_R   0.169379 0.793805 0.140689 -0.122817
C61   C     C_R   0.149623 0.176565 0.096062 -0.115714
C62   C     C_R   0.315381 0.847758 0.249516 -0.007868
C63   C     C_R   0.308389 0.145812 0.238556 -0.014180
C64   C     C_R   0.816259 0.346957 0.250839 -0.005450
C65   C     C_R   0.815340 0.652439 0.249846 -0.008512
C66   C     C_R   0.763242 0.153394 0.766184 -0.171003
C67   C     C_R   0.754326 0.263261 0.058587 0.043456
C68   C     C_R   0.764610 0.848233 0.769182 -0.164477
C69   C     C_R   0.263571 0.652949 0.767105 -0.166351
C70   C     C_R   0.254902 0.334493 0.749178 -0.164318
C71   C     C_R   0.342647 0.681443 0.886289 -0.100964
C72   C     C_R   0.320542 0.282657 0.833777 -0.090744
C73   C     C_R   0.842434 0.181948 0.885040 -0.097710
C74   C     C_R   0.843881 0.820460 0.889761 -0.097816
C75   C     C_R   0.343390 0.712407 0.989817 0.221291
C76   C     C_R   0.314798 0.238576 0.919545 0.226724
C77   C     C_R   0.843692 0.212561 0.989299 0.225293
C78   C     C_R   0.753395 0.736476 0.057796 0.045550
C79   C     C_R   0.844178 0.789426 0.992967 0.223438
C80   C     C_R   0.760651 0.224394 0.965653 0.038470
C81   C     C_R   0.760448 0.776093 0.966339 0.039665
C82   C     C_R   0.260029 0.724869 0.964892 0.039959
C83   C     C_R   0.242104 0.248020 0.923993 0.042333
C84   C     C_R   0.680001 0.193750 0.844717 -0.009741
C85   C     C_R   0.679775 0.805834 0.843709 -0.006979
C86   C     C_R   0.179505 0.694289 0.843639 -0.006505
C87   C     C_R   0.167969 0.292486 0.820157 -0.005409
C88   C     C_R   0.674692 0.259065 0.045213 0.042331
Cl1   Cl    Cl    0.451991 0.718834 0.154934 -0.678706
Cl2   Cl    Cl    0.390235 0.164364 0.993335 -0.697842
Cl3   Cl    Cl    0.952683 0.219490 0.153638 -0.654866
Cl4   Cl    Cl    0.952189 0.784032 0.159421 -0.667114
Cu1   Cu    Cu3+1 0.526340 0.000000 0.421010 0.972804
Cu2   Cu    Cu3+1 0.026340 0.500000 0.421010 0.967967
Cu3   Cu    Cu3+1 0.473640 1.000000 0.578990 0.918591
Cu4   Cu    Cu3+1 0.973640 0.500000 0.578990 0.913258
H1    H     H_    0.236816 0.862474 0.319747 0.141915
H2    H     H_    0.931920 0.499747 0.116665 0.113085
H3    H     H_    0.297425 0.999446 0.514562 0.128962
H4    H     H_    0.797424 0.499836 0.514561 0.125410
H5    H     H_    0.337864 0.995900 0.894870 0.128847
H6    H     H_    0.837784 0.500110 0.894867 0.100834
H7    H     H_    0.236923 0.996948 0.641783 0.126161
H8    H     H_    0.736875 0.499890 0.641742 0.112954
H9    H     H_    0.619010 0.000106 0.868108 0.188978
H10   H     H_    0.118979 0.499919 0.868101 0.186034
H11   H     H_    0.533595 0.229673 0.909381 0.136261
H12   H     H_    0.219017 0.110831 0.280355 0.139957
H13   H     H_    0.530536 0.766306 0.901189 0.118409
H14   H     H_    0.031657 0.732426 0.904610 0.120033
H15   H     H_    0.014212 0.243430 0.863480 0.113670
H16   H     H_    0.611926 0.286394 0.137593 0.134495
H17   H     H_    0.607870 0.709129 0.129581 0.167095
H18   H     H_    0.109288 0.789658 0.132271 0.166515
H19   H     H_    0.086109 0.173875 0.078091 0.154377
H20   H     H_    0.372129 0.828669 0.148587 0.188981
H21   H     H_    0.382038 0.195343 0.182677 0.183954
H22   H     H_    0.872201 0.328672 0.148459 0.189487
H23   H     H_    0.738844 0.360276 0.323372 0.128496
H24   H     H_    0.873409 0.672993 0.151391 0.189708
H25   H     H_    0.766921 0.124179 0.693871 0.132206
H26   H     H_    0.768703 0.878085 0.697712 0.133492
H27   H     H_    0.267570 0.623378 0.695437 0.132233
H28   H     H_    0.263731 0.369653 0.688268 0.131567
H29   H     H_    0.405510 0.673494 0.903696 0.141245
H30   H     H_    0.376079 0.276200 0.831258 0.141935
H31   H     H_    0.905012 0.174356 0.901507 0.136903
H32   H     H_    0.907024 0.829108 0.908405 0.143454
H33   H     H_    0.533096 0.187596 0.725300 0.155056
H34   H     H_    0.735889 0.636384 0.318270 0.140811
H35   H     H_    0.532393 0.810501 0.720024 0.154856
H36   H     H_    0.032471 0.688461 0.722671 0.157022
H37   H     H_    0.023259 0.310640 0.706247 0.158597
H38   H     H_    0.705124 0.001697 0.478420 0.113954
H39   H     H_    0.205140 0.500472 0.478451 0.111781
H40   H     H_    0.721969 0.000935 0.113674 0.132822
H41   H     H_    0.221947 0.500822 0.113687 0.121290
H42   H     H_    0.756354 0.001760 0.338756 0.106945
H43   H     H_    0.256357 0.500964 0.338775 0.098340
H44   H     H_    0.431965 0.998067 0.116672 0.137628
N1    N     N_R   0.566260 0.000000 0.302220 -0.229631
N2    N     N_R   0.066260 0.500000 0.302220 -0.225795
N3    N     N_R   0.434410 0.000000 0.697680 -0.240396
N4    N     N_R   0.934410 0.500000 0.697680 -0.238309
O1    O     O_R   0.608610 0.924520 0.551740 -0.493401
O2    O     O_R   0.435880 0.924530 0.314850 -0.504308
O3    O     O_R   0.935880 0.575470 0.314850 -0.502624
O4    O     O_R   0.935880 0.424530 0.314850 -0.501673
O5    O     O_R   0.391380 0.075460 0.448260 -0.511493
O6    O     O_R   0.391380 0.924540 0.448260 -0.513892
O7    O     O_R   0.891380 0.575460 0.448260 -0.511350
O8    O     O_R   0.891380 0.424540 0.448260 -0.514073
O9    O     O_R   0.608610 0.075480 0.551740 -0.501495
O10   O     O_R   0.108610 0.424520 0.551740 -0.491276
O11   O     O_R   0.108610 0.575480 0.551740 -0.493245
O12   O     O_R   0.564110 0.924510 0.685150 -0.528350
O13   O     O_R   0.564110 0.075490 0.685150 -0.524965
O14   O     O_R   0.064110 0.424510 0.685150 -0.530277
O15   O     O_R   0.064110 0.575490 0.685150 -0.528283
O16   O     O_R   0.435880 0.075470 0.314850 -0.479658

loop_
_geom_bond_atom_site_label_1
_geom_bond_atom_site_label_2
_ccdc_geom_bond_type
Cu4   O14   S    
C10   C85   A    
Cu3   N3    S    
C8    C13   A    
C55   N1    A    
C30   H4    S    
Cu1   O16   S    
C53   H44   S    
C60   H18   S    
C45   C82   A    
C12   O9    A    
C4    C8    A    
C11   H36   S    
C50   H41   S    
C39   C41   A    
C28   C57   A    
C7    C11   A    
C67   C88   A    
C57   N2    A    
C39   H6    S    
C58   H16   S    
C38   C40   A    
C21   C59   A    
C38   H5    S    
C3    C7    A    
C27   C55   A    
C43   C52   A    
C23   C26   S    
C69   H27   S    
C11   C86   A    
C68   C74   A    
Cu4   O8    S    
C23   O14   A    
C12   C22   S    
C30   N4    A    
Cu3   O12   S    
C32   C39   A    
C69   C71   A    
C10   H35   S    
C22   C66   A    
C17   H24   S    
C5    C88   A    
C1    O1    A    
C44   C53   A    
C74   H32   S    
C19   C63   A    
C26   C87   A    
C49   C51   A    
C61   H19   S    
C50   C52   A    
C41   C46   A    
C32   H8    S    
Cu1   O1    S    
Cu3   O5    S    
C35   O6    A    
C12   O13   A    
C24   C85   A    
C44   C47   A    
C33   C63   S    
C42   C51   A    
C21   C65   A    
C19   H12   S    
C40   C42   A    
C52   H10   S    
Cu1   Cu3   S    
C4    C56   A    
C41   C43   A    
C13   C87   A    
C43   N4    A    
C2    C6    A    
C28   H43   S    
C34   O11   A    
C76   C83   A    
C14   C45   A    
Cu2   O4    S    
C46   C48   A    
C71   C75   A    
C27   H42   S    
C29   H3    S    
C16   C67   A    
C80   C84   A    
Cu2   N2    S    
C47   C49   A    
C8    H15   S    
C68   H26   S    
C79   C81   A    
C75   Cl1   S    
C2    C59   A    
C18   C62   A    
C73   H31   S    
C66   C73   A    
C4    C61   A    
C3    C45   A    
C15   H21   S    
C72   H30   S    
C35   O2    A    
C22   C84   A    
C20   C64   A    
C1    O12   A    
C29   N3    A    
C5    C9    A    
C2    C78   A    
C16   H22   S    
Cu4   N4    S    
C36   O3    A    
C51   H9    S    
C46   C54   A    
Cu2   O11   S    
C66   H25   S    
Cu1   O2    S    
C75   C82   A    
Cu3   O6    S    
Cu2   Cu4   S    
C79   Cl4   S    
C18   C60   A    
C18   H1    S    
C49   H40   S    
C74   C79   A    
C26   C70   A    
C6    H13   S    
C25   C86   A    
C25   C69   A    
C37   O8    A    
C20   C58   A    
C37   C64   S    
Cu1   N1    S    
C56   C83   A    
C5    H11   S    
C77   C80   A    
C27   C47   A    
Cu2   O3    S    
C77   Cl3   S    
C15   C63   A    
C54   N2    A    
Cu3   O13   S    
C13   H37   S    
C71   H29   S    
C67   C80   A    
C59   H17   S    
C58   C88   A    
C83   C87   A    
C6    C10   A    
C70   C72   A    
C33   O16   A    
C36   O7    A    
C9    H33   S    
C55   H38   S    
C25   C34   S    
C17   C65   A    
C7    H14   S    
C15   C56   A    
C36   C65   S    
C31   C38   A    
Cu1   O9    S    
C57   H39   S    
C29   C31   A    
C82   C86   A    
C3    C60   A    
C30   C32   A    
Cu2   O10   S    
Cu4   O7    S    
C78   C81   A    
C34   O15   A    
C19   C61   A    
C72   C76   A    
C14   H20   S    
C48   C50   A    
C17   C78   A    
C28   C48   A    
C35   C62   S    
C53   N1    A    
C37   O4    A    
C21   H34   S    
C24   C68   A    
C9    C84   A    
C70   H28   S    
C40   C44   A    
Cu4   O15   S    
C1    C24   S    
C23   O10   A    
C76   Cl2   S    
C42   N3    A    
C73   C77   A    
C54   H2    S    
C33   O5    A    
C16   C64   A    
C20   H23   S    
C81   C85   A    
C31   H7    S    
C14   C62   A    
