data_mof_unit_16140.cif
_audit_creation_date              2012-10-26T21:14:53-0400
_audit_creation_method            fapswitch 2.2
_symmetry_space_group_name_H-M    P1
_symmetry_Int_Tables_number       1
_space_group_crystal_system       triclinic
_cell_length_a                    15.07293
_cell_length_b                    10.860232
_cell_length_c                    13.675026
_cell_angle_alpha                 90.440479
_cell_angle_beta                  89.910591
_cell_angle_gamma                 89.878068
_cell_volume                      2238.46644403

loop_
_atom_site_label
_atom_site_type_symbol
_atom_type_description
_atom_site_fract_x
_atom_site_fract_y
_atom_site_fract_z
_atom_type_partial_charge
C1    C     C_R   0.497611 0.262075 0.499332 0.545102
C2    C     C_R   0.556805 0.884222 0.679633 0.010794
C3    C     C_R   0.492812 0.097960 0.234306 -0.121382
C4    C     C_R   0.507188 0.902038 0.765692 -0.121382
C5    C     C_R   0.464202 0.148904 0.146246 -0.165627
C6    C     C_R   0.535797 0.851094 0.853753 -0.165627
C7    C     C_R   0.386015 0.218027 0.143329 -0.066668
C8    C     C_R   0.613986 0.781973 0.856671 -0.066668
C9    C     C_R   0.478472 0.932255 0.416423 -0.147370
C10   C     C_R   0.521529 0.067745 0.583576 -0.147370
C11   C     C_R   0.504002 0.871781 0.501949 -0.002383
C12   C     C_R   0.502389 0.737925 0.500668 0.545103
C13   C     C_R   0.495999 0.128219 0.498051 -0.002383
C14   C     C_R   0.526554 0.940327 0.586783 -0.028747
C15   C     C_R   0.473447 0.059673 0.413217 -0.028747
C16   C     C_R   0.328465 0.500493 0.500102 0.549655
C17   C     C_R   0.671535 0.499507 0.499898 0.549655
C18   C     C_R   0.561886 0.432051 0.792748 0.059723
C19   C     C_R   0.438114 0.567948 0.207252 0.059724
C20   C     C_R   0.438030 0.567741 0.793768 0.043613
C21   C     C_R   0.561970 0.432259 0.206232 0.043613
C22   C     C_R   0.436385 0.569092 0.896883 -0.017902
C23   C     C_R   0.046000 0.448618 0.673199 -0.123838
C24   C     C_R   0.563615 0.430908 0.103117 -0.017901
C25   C     C_R   0.499942 0.499889 0.948165 0.044252
C26   C     C_R   0.500058 0.500111 0.051835 0.044252
C27   C     C_R   0.563445 0.430573 0.895829 -0.008221
C28   C     C_R   0.436555 0.569426 0.104171 -0.008220
C29   C     C_R   0.373289 0.638220 0.949676 -0.145422
C30   C     C_R   0.626711 0.361779 0.050324 -0.145421
C31   C     C_R   0.373363 0.638370 0.052428 -0.131709
C32   C     C_R   0.626637 0.361629 0.947572 -0.131710
C33   C     C_R   0.814716 0.524322 0.413224 -0.136907
C34   C     C_R   0.954000 0.551385 0.326801 -0.123839
C35   C     C_R   0.185283 0.475682 0.586777 -0.136908
C36   C     C_R   0.768316 0.498608 0.499646 -0.010884
C37   C     C_R   0.231684 0.501394 0.500354 -0.010885
C38   C     C_R   0.814521 0.472094 0.585875 -0.097656
C39   C     C_R   0.185479 0.527905 0.414124 -0.097656
C40   C     C_R   0.906930 0.472841 0.586737 0.026687
C41   C     C_R   0.093070 0.527159 0.413263 0.026686
C42   C     C_R   0.953501 0.499498 0.499875 0.060292
C43   C     C_R   0.046498 0.500503 0.500124 0.060292
C44   C     C_R   0.907161 0.525086 0.412750 0.011625
C45   C     C_R   0.335691 0.235307 0.228365 0.262970
C46   C     C_R   0.092839 0.474917 0.587250 0.011625
C47   C     C_R   0.953499 0.447541 0.672934 -0.100184
C48   C     C_R   0.046501 0.552460 0.327065 -0.100184
C49   C     C_R   0.664310 0.764694 0.771635 0.262969
C50   C     C_R   0.363789 0.183727 0.316647 -0.022103
C51   C     C_R   0.636213 0.816274 0.683353 -0.022104
C52   C     C_R   0.443195 0.115778 0.320366 0.010794
Cl1   Cl    Cl    0.237060 0.320841 0.223868 -0.656853
Cl2   Cl    Cl    0.762942 0.679162 0.776132 -0.656851
Cu1   Cu    Cu3+1 0.500010 0.499980 0.597420 0.949311
Cu2   Cu    Cu3+1 0.499990 0.500020 0.402580 0.949311
H1    H     H_    0.778976 0.544779 0.346505 0.128144
H2    H     H_    0.675972 0.307636 0.088485 0.111967
H3    H     H_    0.324036 0.692429 0.091398 0.115904
H4    H     H_    0.675964 0.307571 0.908602 0.115904
H5    H     H_    0.778611 0.450334 0.652275 0.160413
H6    H     H_    0.221389 0.549663 0.347724 0.160417
H7    H     H_    0.918381 0.427096 0.740072 0.141591
H8    H     H_    0.081619 0.572903 0.259927 0.141592
H9    H     H_    0.080901 0.428842 0.740517 0.120064
H10   H     H_    0.919099 0.571161 0.259483 0.120064
H11   H     H_    0.364630 0.258048 0.075011 0.145891
H12   H     H_    0.221023 0.455228 0.653496 0.128144
H13   H     H_    0.635371 0.741953 0.924988 0.145891
H14   H     H_    0.324332 0.196991 0.382192 0.131181
H15   H     H_    0.675670 0.803011 0.617808 0.131181
H16   H     H_    0.553829 0.045143 0.235624 0.118757
H17   H     H_    0.446171 0.954854 0.764374 0.118757
H18   H     H_    0.502925 0.135360 0.080295 0.121104
H19   H     H_    0.497074 0.864637 0.919703 0.121104
H20   H     H_    0.459788 0.879920 0.351798 0.134100
H21   H     H_    0.540214 0.120080 0.648202 0.134100
H22   H     H_    0.610038 0.378910 0.751382 0.123016
H23   H     H_    0.389962 0.621090 0.248618 0.123016
H24   H     H_    0.390138 0.621306 0.753202 0.126175
H25   H     H_    0.609862 0.378694 0.246798 0.126176
H26   H     H_    0.324028 0.692363 0.911515 0.111967
N1    N     N_R   0.499960 0.499900 0.743810 -0.238385
N2    N     N_R   0.500040 0.500100 0.256190 -0.238385
O1    O     O_R   0.500000 0.319630 0.582270 -0.515743
O2    O     O_R   0.500000 0.680370 0.417730 -0.515744
O3    O     O_R   0.499990 0.319660 0.417730 -0.493695
O4    O     O_R   0.500010 0.680340 0.582270 -0.493695
O5    O     O_R   0.370260 0.499960 0.582280 -0.515162
O6    O     O_R   0.629740 0.500040 0.417720 -0.515162
O7    O     O_R   0.370250 0.499990 0.417740 -0.495491
O8    O     O_R   0.629750 0.500010 0.582260 -0.495491

loop_
_geom_bond_atom_site_label_1
_geom_bond_atom_site_label_2
_ccdc_geom_bond_type
C1    O3    A    
C40   C47   A    
C38   C40   A    
Cu1   Cu2   S    
C22   C29   A    
C34   H10   S    
C6    H19   S    
C39   C41   A    
C8    H13   S    
C42   C44   A    
C7    C45   A    
C35   C37   A    
C24   C26   A    
C47   H7    S    
C11   C14   A    
C48   H8    S    
C49   Cl2   S    
C5    H18   S    
C33   C36   A    
C31   H3    S    
Cu1   O4    S    
Cu2   O7    S    
C49   C51   A    
C22   C25   A    
C50   C52   A    
C9    H20   S    
C16   C37   S    
C38   H5    S    
C40   C42   A    
C45   Cl1   S    
C16   O5    A    
C23   C46   A    
C17   O6    A    
C29   C31   A    
C41   C43   A    
C17   O8    A    
C51   H15   S    
C10   H21   S    
Cu2   N2    S    
C1    O1    A    
C23   C47   A    
C20   H24   S    
C34   C44   A    
C4    C6    A    
C10   C14   A    
C5    C7    A    
C12   O4    A    
Cu2   O3    S    
C6    C8    A    
C25   C26   A    
Cu1   O1    S    
C2    C4    A    
Cu1   O8    S    
Cu2   O2    S    
C21   N2    A    
C18   H22   S    
C18   N1    A    
C15   C52   S    
C19   H23   S    
C19   C28   A    
C9    C11   A    
C4    H17   S    
C17   C36   S    
C21   H25   S    
C13   C15   A    
C21   C24   A    
C1    C13   S    
C42   C43   A    
C32   H4    S    
Cu1   N1    S    
C19   N2    A    
C39   H6    S    
C33   H1    S    
C27   C32   A    
C33   C44   A    
C28   C31   A    
C18   C27   A    
C20   C22   A    
C3    C5    A    
C10   C13   A    
C3    C52   A    
C25   C27   A    
C26   C28   A    
C12   O2    A    
C23   H9    S    
C36   C38   A    
C3    H16   S    
C9    C15   A    
C29   H26   S    
Cu1   O5    S    
C30   C32   A    
C35   H12   S    
C30   H2    S    
Cu2   O6    S    
C41   C48   A    
C50   H14   S    
C2    C14   S    
C43   C46   A    
C24   C30   A    
C2    C51   A    
C7    H11   S    
C34   C48   A    
C16   O7    A    
C37   C39   A    
C20   N1    A    
C45   C50   A    
C35   C46   A    
C8    C49   A    
C11   C12   S    
