data_mof_unit_31628.cif
_audit_creation_date              2012-12-11T14:26:48-0500
_audit_creation_method            fapswitch 2.2
_symmetry_space_group_name_H-M    P1
_symmetry_Int_Tables_number       1
_space_group_crystal_system       triclinic
_cell_length_a                    15.00886
_cell_length_b                    14.919539
_cell_length_c                    14.838376
_cell_angle_alpha                 109.62549
_cell_angle_beta                  109.259759
_cell_angle_gamma                 109.342846
_cell_volume                      2563.6253929

loop_
_atom_site_label
_atom_site_type_symbol
_atom_type_description
_atom_site_fract_x
_atom_site_fract_y
_atom_site_fract_z
_atom_type_partial_charge
C1    C     C_R   0.948825 0.766610 0.044205 -0.211452
C2    C     C_R   0.205004 0.803010 0.297760 -0.128644
C3    C     C_R   0.975960 0.408425 0.221453 -0.062094
C4    C     C_R   0.778806 0.241899 0.685165 -0.139412
C5    C     C_R   0.313773 0.591653 0.066444 -0.101578
C6    C     C_R   0.056487 0.500054 0.323500 0.175537
C7    C     C_R   0.325009 0.499705 0.050476 0.025501
C8    C     C_R   0.296526 0.866515 0.298705 0.109127
C9    C     C_R   0.929927 0.131941 0.927490 0.160035
C10   C     C_3   0.538246 0.504631 0.968254 -0.390474
C11   C     C_3   0.431596 0.497036 0.959539 -0.462224
C12   C     C_R   0.676331 0.211748 0.673747 0.134051
C13   C     C_3   0.530182 0.395579 0.067617 -0.396299
C14   C     C_3   0.633923 0.601044 0.178244 -0.536970
C15   C     C_3   0.602878 0.500637 0.071436 0.319790
C16   C     C_R   0.078875 0.588969 0.782772 -0.105579
C17   C     C_3   0.426228 0.499519 0.063218 0.180200
C18   C     C_3   0.425546 0.394179 0.061731 -0.402204
C19   C     C_3   0.530442 0.607174 0.166743 0.460287
C20   C     C_2   0.377788 0.037704 0.467586 -0.109028
C21   C     C_2   0.371186 0.983552 0.371094 -0.142253
C22   C     C_2   0.480439 0.132678 0.562581 -0.102651
C23   C     C_R   0.038782 0.497127 0.684640 0.149718
C24   C     C_2   0.576004 0.147050 0.569251 -0.184639
C25   C     C_2   0.084382 0.425887 0.542259 -0.240719
C26   C     C_2   0.060233 0.498111 0.596514 -0.270600
C27   C     C_2   0.093108 0.419412 0.444206 0.616419
C28   C     C_R   0.700747 0.409234 0.004341 -0.158875
C29   C     C_2   0.112883 0.506512 0.428933 -0.376821
C30   C     C_2   0.920537 0.958503 0.834054 -0.100177
C31   C     C_2   0.881622 0.014572 0.883634 -0.220552
C32   C     C_2   0.927535 0.871077 0.853813 -0.070200
C33   C     C_2   0.947610 0.879501 0.952273 -0.094519
C34   C     C_R   0.699050 0.500522 0.066532 0.039970
C35   C     C_R   0.990552 0.407113 0.693707 -0.133063
C36   C     C_R   0.789932 0.591422 0.094241 -0.137818
C37   C     C_R   0.686862 0.244340 0.777547 -0.123639
C38   C     C_R   0.049877 0.775417 0.961130 0.520379
C39   C     C_R   0.979300 0.808296 0.982672 -0.047618
C40   C     C_3   0.506560 0.571989 0.304906 0.290515
C41   C     C_3   0.542289 0.634048 0.426545 -0.851650
C42   C     C_R   0.068277 0.591290 0.312517 -0.153304
C43   C     C_R   0.223012 0.408016 0.974893 -0.124237
C44   C     C_R   0.297001 0.802682 0.207392 -0.081313
C45   C     C_R   0.904603 0.196584 0.992988 -0.069039
C46   C     C_R   0.995480 0.195883 0.901467 -0.111193
H1    H     H_    0.899636 0.781771 0.080009 0.136470
H2    H     H_    0.587614 0.582503 0.973187 0.163966
H3    H     H_    0.425549 0.566183 0.950209 0.167745
H4    H     H_    0.798434 0.225794 0.619780 0.106429
H5    H     H_    0.362208 0.420020 0.883301 0.191476
H6    H     H_    0.506131 0.320447 0.993757 0.162448
H7    H     H_    0.356189 0.319865 0.983470 0.173728
H8    H     H_    0.673931 0.594388 0.251455 0.175529
H9    H     H_    0.693190 0.679235 0.191645 0.145648
H10   H     H_    0.536697 0.673244 0.145802 0.069992
H11   H     H_    0.575236 0.392058 0.141613 0.161499
H12   H     H_    0.201452 0.322803 0.938465 0.104024
H13   H     H_    0.413839 0.382271 0.127417 0.151247
H14   H     H_    0.314165 0.002073 0.484845 0.119257
H15   H     H_    0.137628 0.669856 0.808010 0.204827
H16   H     H_    0.431215 0.021311 0.350796 0.140715
H17   H     H_    0.477424 0.178066 0.634956 0.121770
H18   H     H_    0.581590 0.101287 0.499178 0.134127
H19   H     H_    0.088435 0.364400 0.564427 0.187063
H20   H     H_    0.053908 0.559859 0.576196 0.153132
H21   H     H_    0.151960 0.587492 0.499724 0.122680
H22   H     H_    0.967939 0.989592 0.799106 0.141367
H23   H     H_    0.348718 0.831765 0.175610 0.140469
H24   H     H_    0.829452 0.978940 0.912705 0.140295
H25   H     H_    0.932424 0.808951 0.794567 0.167477
H26   H     H_    0.647128 0.324540 0.975718 0.093768
H27   H     H_    0.945016 0.941814 0.013906 0.155439
H28   H     H_    0.964873 0.323239 0.638557 0.106750
H29   H     H_    0.818928 0.676489 0.148408 0.095006
H30   H     H_    0.623139 0.230944 0.798620 0.092532
H31   H     H_    0.123849 0.675991 0.376359 0.110416
H32   H     H_    0.550764 0.525736 0.296461 0.087418
H33   H     H_    0.417502 0.514897 0.260199 0.120029
H34   H     H_    0.842179 0.167714 0.013775 0.096430
H35   H     H_    0.498561 0.680275 0.438891 0.260427
H36   H     H_    0.523647 0.575411 0.456949 0.217955
H37   H     H_    0.631237 0.692457 0.474742 0.249821
H38   H     H_    0.141444 0.188543 0.374750 0.377789
H39   H     H_    0.184746 0.883557 0.826893 0.372775
H40   H     H_    0.015952 0.166959 0.838174 0.085845
H41   H     H_    0.170925 0.832027 0.347227 0.093876
H42   H     H_    0.942782 0.323546 0.199306 0.172301
H43   H     H_    0.377035 0.676599 0.114868 0.110436
H44   H     H_    0.520015 0.435777 0.891885 0.173592
N1    N     N_R   0.993980 0.704500 0.053430 -0.067388
N2    N     N_R   0.053690 0.556380 0.849240 -0.058854
N3    N     N_R   0.790390 0.443640 0.997160 -0.036680
N4    N     N_R   0.998260 0.443670 0.792970 -0.053798
N5    N     N_R   0.845830 0.556350 0.053430 -0.034023
N6    N     N_R   0.792820 0.295510 0.849240 -0.049198
N7    N     N_R   0.051260 0.704510 0.997160 -0.102219
N8    N     N_R   0.001740 0.556330 0.207030 -0.045674
N9    N     N_R   0.154170 0.443650 0.946570 -0.044476
N10   N     N_R   0.207180 0.704490 0.150760 -0.044453
N11   N     N_R   0.948740 0.295490 0.002840 -0.048611
N12   N     N_R   0.006020 0.295500 0.946570 -0.045567
N13   N     N_R   0.149890 0.704480 0.207030 -0.044885
N14   N     N_R   0.946310 0.443620 0.150760 -0.062936
N15   N     N_R   0.209610 0.556360 0.002840 -0.040779
N16   N     N_R   0.850110 0.295520 0.792970 -0.046829
Ni1   Ni    Ni4+2 0.997880 0.629240 0.129060 0.213411
Ni2   Ni    Ni4+2 0.002120 0.370760 0.870940 0.209083
Ni3   Ni    Ni4+2 0.129260 0.629260 0.000000 0.283133
Ni4   Ni    Ni4+2 0.870740 0.370740 0.000000 0.212523
O1    O     O_3   0.528909 0.647771 0.267609 -0.635540
O2    O     O_2   0.963630 0.208131 0.287014 -0.336168
O3    O     O_2   0.122836 0.314395 0.278508 -0.295564
O4    O     O_3   0.153795 0.258389 0.429259 -0.542509
O5    O     O_2   0.198425 0.976753 0.026815 -0.271453
O6    O     O_2   0.251816 0.835844 0.992078 -0.352893
O7    O     O_3   0.119506 0.833220 0.823548 -0.603629
S1    S     S_3+6 0.080895 0.297065 0.353802 -0.063292
S2    S     S_3+6 0.159760 0.858163 0.953632 -0.087405

loop_
_geom_bond_atom_site_label_1
_geom_bond_atom_site_label_2
_ccdc_geom_bond_type
C19   H10   S    
C3    N14   A    
N14   Ni4   S    
C35   H28   S    
C9    C45   A    
N11   N12   A    
C27   C29   D    
C3    C6    A    
C5    N15   A    
N9    Ni2   S    
C46   N12   A    
N4    Ni2   S    
C33   C39   S    
N16   Ni2   S    
C13   C18   S    
C43   N9    A    
C10   C15   S    
O7    S2    S    
C30   C31   D    
N2    Ni3   S    
C27   S1    S    
C13   H11   S    
C41   H37   S    
C23   C26   S    
C12   C37   A    
N15   Ni3   S    
C43   H12   S    
C22   H17   S    
C29   H21   S    
C31   H24   S    
C7    C17   S    
N12   Ni2   S    
C32   H25   S    
C7    C43   A    
C4    C12   A    
C15   C34   S    
C34   C36   A    
C18   H7    S    
N3    Ni4   S    
C14   H9    S    
C28   C34   A    
C9    C46   A    
N3    N5    A    
C28   H26   S    
C38   N7    A    
C8    C21   S    
C40   O1    S    
N9    N15   A    
C26   H20   S    
N1    Ni1   S    
C2    H41   S    
C25   H19   S    
C5    C7    A    
C9    C31   S    
C1    H1    S    
C25   C26   D    
C4    N16   A    
N10   N13   A    
N8    Ni1   S    
C37   N6    A    
C4    H4    S    
C28   N3    A    
C11   H3    S    
C36   H29   S    
C13   H6    S    
N7    Ni3   S    
C13   C15   S    
C41   H35   S    
N2    N4    A    
C17   C18   S    
C40   H33   S    
C44   H23   S    
N1    N7    A    
H39   O7    S    
C21   H16   S    
O4    S1    S    
N5    Ni1   S    
C38   S2    S    
C33   H27   S    
C40   C41   S    
C14   H8    S    
C37   H30   S    
C20   C22   S    
C16   N2    A    
C16   C23   A    
O5    S2    D    
C45   N11   A    
C10   H2    S    
C22   C24   D    
C20   H14   S    
C16   H15   S    
C35   N4    A    
N6    N16   A    
C11   C17   S    
C30   C32   S    
H38   O4    S    
C3    H42   S    
C14   C19   S    
C2    C8    A    
C8    C44   A    
C19   O1    S    
C25   C27   S    
C12   C24   S    
C23   C35   A    
O6    S2    D    
C32   C33   D    
C42   N8    A    
N11   Ni4   S    
O2    S1    D    
C44   N10   A    
C36   N5    A    
C38   C39   A    
N6    Ni4   S    
C2    N13   A    
N8    N14   A    
C41   H36   S    
C17   C19   S    
C24   H18   S    
C45   H34   S    
C40   H32   S    
C5    H43   S    
C11   H5    S    
C10   C11   S    
C1    C39   A    
O3    S1    D    
C18   H13   S    
N10   Ni3   S    
C6    C29   S    
C20   C21   D    
C10   H44   S    
C42   H31   S    
C1    N1    A    
C6    C42   A    
C14   C15   S    
N13   Ni1   S    
C30   H22   S    
C46   H40   S    
