data_mof_unit_65684.cif
_audit_creation_date              2012-12-10T21:38:04-0500
_audit_creation_method            fapswitch 2.2
_symmetry_space_group_name_H-M    P1
_symmetry_Int_Tables_number       1
_space_group_crystal_system       triclinic
_cell_length_a                    16.116307
_cell_length_b                    16.68631
_cell_length_c                    16.822729
_cell_angle_alpha                 89.816187
_cell_angle_beta                  93.085974
_cell_angle_gamma                 89.181544
_cell_volume                      4516.93972034

loop_
_atom_site_label
_atom_site_type_symbol
_atom_type_description
_atom_site_fract_x
_atom_site_fract_y
_atom_site_fract_z
_atom_type_partial_charge
C1    C     C_R   0.509531 0.347161 0.496005 0.955089
C2    C     C_R   0.490417 0.653769 0.501085 0.927803
C3    C     C_R   0.513511 0.262122 0.480578 -0.177862
C4    C     C_R   0.486844 0.740320 0.487234 -0.188607
C5    C     C_R   0.464425 0.227386 0.417952 0.141357
C6    C     C_R   0.561126 0.783944 0.483819 0.140835
C7    C     C_R   0.478097 0.146525 0.398790 0.118080
C8    C     C_R   0.559437 0.857208 0.443801 0.131955
C9    C     C_R   0.533651 0.099902 0.448962 0.163238
C10   C     C_R   0.482079 0.897227 0.428197 0.168233
C11   C     C_R   0.583135 0.136415 0.508981 0.177663
C12   C     C_R   0.408096 0.855603 0.436131 0.176563
C13   C     C_R   0.574033 0.217245 0.523565 -0.307500
C14   C     C_R   0.410793 0.776621 0.462652 -0.264425
C15   C     C_R   0.246548 0.553310 0.469557 -0.100780
C16   C     C_R   0.751090 0.456135 0.543761 -0.056598
C17   C     C_R   0.160751 0.566364 0.468241 0.019409
C18   C     C_R   0.836528 0.441990 0.550435 0.018249
C19   C     C_R   0.109995 0.513126 0.507257 0.090650
C20   C     C_R   0.889422 0.485254 0.503413 0.125634
C21   C     C_R   0.149468 0.448583 0.550884 0.327156
C22   C     C_R   0.852591 0.538048 0.444602 0.372403
C23   C     C_R   0.512491 0.501624 0.653379 0.945569
C24   C     C_R   0.487954 0.499957 0.347630 1.015103
C25   C     C_R   0.236674 0.436814 0.548705 0.187964
C26   C     C_R   0.764661 0.550489 0.440108 0.153264
C27   C     C_R   0.525524 0.490405 0.740035 -0.342205
C28   C     C_R   0.479416 0.492486 0.262158 -0.263101
C29   C     C_R   0.465090 0.450357 0.782209 0.426034
C30   C     C_R   0.511211 0.423161 0.227516 0.371001
C31   C     C_R   0.486785 0.417542 0.856796 0.125610
C32   C     C_R   0.500654 0.413028 0.145352 0.115254
C33   C     C_R   0.563428 0.436601 0.896624 -0.065472
C34   C     C_R   0.472731 0.479020 0.097331 -0.144593
C35   C     C_R   0.625333 0.472750 0.853300 0.114460
C36   C     C_R   0.426221 0.540695 0.133320 0.200459
C37   C     C_R   0.604504 0.505292 0.777745 0.097622
C38   C     C_R   0.433225 0.549458 0.216307 0.043304
C39   C     C_2   0.564472 0.446439 0.984656 0.410739
C40   C     C_2   0.499619 0.488699 0.014120 0.336146
H1    H     H_    0.711499 0.422390 0.580989 0.199463
H2    H     H_    0.284031 0.594642 0.438085 0.205255
H3    H     H_    0.612983 0.244859 0.570046 0.197800
H4    H     H_    0.353307 0.743966 0.464351 0.205290
N1    N     N_2   0.539152 0.015791 0.446227 -0.115864
N2    N     N_2   0.476149 0.981369 0.418676 -0.106501
N3    N     N_R   0.283770 0.490310 0.509640 -0.154690
N4    N     N_R   0.716230 0.509690 0.490360 -0.139586
N5    N     N_2   0.021841 0.528370 0.502018 -0.069379
N6    N     N_2   0.977206 0.468904 0.512030 -0.082064
O1    O     O_R   0.577220 0.387330 0.496550 -0.651603
O2    O     O_R   0.422780 0.612670 0.503450 -0.646610
O3    O     O_R   0.438350 0.381110 0.502740 -0.565943
O4    O     O_R   0.561650 0.618890 0.497260 -0.563019
O5    O     O_R   0.577640 0.503470 0.612340 -0.596495
O6    O     O_R   0.422360 0.496530 0.387660 -0.591722
O7    O     O_R   0.438770 0.497250 0.618530 -0.589333
O8    O     O_R   0.561230 0.502750 0.381470 -0.609900
Zn1   Zn    Zn3+2 0.592720 0.504150 0.495870 1.001846
Zn2   Zn    Zn3+2 0.407280 0.495850 0.504130 1.005500
O9    O     O_3   0.385193 0.439133 0.749914 -0.588932
C41   C     C_3   0.338289 0.511760 0.752361 0.145612
H5    H     H_    0.295455 0.513948 0.698454 0.161711
H6    H     H_    0.376547 0.566743 0.749881 0.105622
C42   C     C_3   0.285988 0.513983 0.825550 -0.371344
H7    H     H_    0.246188 0.460249 0.825798 0.245052
H8    H     H_    0.327264 0.512948 0.880317 0.292216
C43   C     C_3   0.231426 0.589427 0.826392 -0.905739
H9    H     H_    0.270527 0.643719 0.827982 0.271632
H10   H     H_    0.194350 0.588998 0.880137 0.292444
H11   H     H_    0.188175 0.592007 0.772786 0.253013
O10   O     O_3   0.545454 0.362208 0.275505 -0.612382
C44   C     C_3   0.632845 0.363370 0.272355 0.082724
H12   H     H_    0.657601 0.423474 0.288888 0.147192
H13   H     H_    0.651500 0.347803 0.211683 0.170170
C45   C     C_3   0.671471 0.300826 0.330155 -0.296821
H14   H     H_    0.650255 0.312071 0.390608 0.248738
H15   H     H_    0.651126 0.240053 0.311379 0.245141
C46   C     C_3   0.766074 0.303926 0.333542 -0.938673
H16   H     H_    0.789590 0.292533 0.273696 0.270270
H17   H     H_    0.792267 0.257426 0.375466 0.295387
H18   H     H_    0.787073 0.363574 0.354997 0.250091
I1    I     I_    0.880766 0.351951 0.631148 -0.280103
I2    I     I_    0.111277 0.669282 0.407388 -0.207205
O11   O     O_3   0.105207 0.398597 0.598150 -0.584935
C47   C     C_3   0.093746 0.436633 0.672055 0.120046
H19   H     H_    0.033779 0.470511 0.668103 0.188717
H20   H     H_    0.143997 0.479436 0.689728 0.091981
C48   C     C_3   0.092095 0.373039 0.737658 -0.293087
H21   H     H_    0.052557 0.322331 0.717333 0.274938
H22   H     H_    0.156112 0.349150 0.750777 0.236732
C49   C     C_3   0.058510 0.407524 0.813707 -0.878700
H23   H     H_    0.095752 0.459505 0.834698 0.262319
H24   H     H_    0.992691 0.427103 0.802873 0.293037
H25   H     H_    0.061607 0.360869 0.861011 0.283093
O12   O     O_3   0.902519 0.578642 0.394060 -0.569407
C50   C     C_3   0.898252 0.543607 0.317293 0.122237
H26   H     H_    0.895070 0.593924 0.273835 0.176055
H27   H     H_    0.841325 0.507680 0.303559 0.111958
C51   C     C_3   0.977185 0.494061 0.302764 -0.347279
H28   H     H_    0.029732 0.513674 0.342830 0.271881
H29   H     H_    0.995491 0.504273 0.240826 0.198987
C52   C     C_3   0.964534 0.404332 0.313739 -0.842627
H30   H     H_    0.943344 0.391078 0.373904 0.277549
H31   H     H_    0.024113 0.371714 0.306241 0.279229
H32   H     H_    0.917835 0.382472 0.268239 0.250807
I3    I     I_    0.292113 0.335279 0.607133 -0.160661
I4    I     I_    0.707502 0.630220 0.354510 -0.278732
I5    I     I_    0.379867 0.651469 0.272944 -0.264239
I6    I     I_    0.688515 0.588824 0.728603 -0.247539
O13   O     O_3   0.458041 0.544041 0.964088 -0.651370
C53   C     C_3   0.507029 0.613646 0.958883 0.062158
H33   H     H_    0.571843 0.599289 0.943511 0.124087
H34   H     H_    0.509341 0.646034 0.016698 0.173564
C54   C     C_3   0.468635 0.668653 0.893741 -0.324296
H35   H     H_    0.468068 0.636831 0.835919 0.210692
H36   H     H_    0.403611 0.684259 0.907027 0.252230
C55   C     C_3   0.517984 0.745460 0.886812 -0.854617
H37   H     H_    0.518817 0.779126 0.943704 0.274932
H38   H     H_    0.488559 0.783911 0.838902 0.271785
H39   H     H_    0.582816 0.731179 0.871729 0.277751
O14   O     O_3   0.631630 0.417403 0.032697 -0.610710
C56   C     C_3   0.670803 0.481304 0.075294 0.072833
H40   H     H_    0.635655 0.498913 0.127503 0.103808
H41   H     H_    0.675220 0.535526 0.036927 0.148022
C57   C     C_3   0.758386 0.455113 0.106027 -0.274056
H42   H     H_    0.755263 0.420171 0.161885 0.179590
H43   H     H_    0.787663 0.415774 0.062098 0.273810
C58   C     C_3   0.813690 0.527279 0.122121 -0.935309
H44   H     H_    0.821069 0.561654 0.066350 0.294895
H45   H     H_    0.876064 0.506335 0.145031 0.259760
H46   H     H_    0.786115 0.567157 0.166706 0.262210
I7    I     I_    0.752993 0.468360 0.893911 -0.287504
I8    I     I_    0.330606 0.608932 0.068673 -0.246490
I9    I     I_    0.513112 0.293301 0.101697 -0.146373
I10   I     I_    0.399215 0.340976 0.908291 -0.200924
I11   I     I_    0.673393 0.750298 0.550952 -0.152364
I12   I     I_    0.370495 0.296004 0.351518 -0.162497
I13   I     I_    0.672458 0.899798 0.397232 -0.149561
I14   I     I_    0.424931 0.100343 0.288596 -0.142081
I15   I     I_    0.670816 0.070244 0.582434 -0.200109
I16   I     I_    0.290529 0.910553 0.409586 -0.170188

loop_
_geom_bond_atom_site_label_1
_geom_bond_atom_site_label_2
_ccdc_geom_bond_type
C9    N1    S    
C57   H42   S    
O5    Zn1   S    
C27   C29   A    
C44   H12   S    
O13   C53   S    
C45   C46   S    
C15   N3    A    
C35   I7    S    
C53   H34   S    
C50   H26   S    
C5    I12   S    
O11   C47   S    
C33   C39   S    
C39   O14   S    
C8    I13   S    
C34   C40   S    
C35   C37   A    
C45   H15   S    
C7    I14   S    
C47   H20   S    
C56   H41   S    
C54   H35   S    
C15   C17   A    
C1    O3    A    
C55   H37   S    
C49   H23   S    
C20   N6    S    
O2    Zn2   S    
C17   C19   A    
N3    Zn2   S    
C43   H9    S    
C42   H8    S    
C10   N2    S    
C41   H6    S    
C31   C33   A    
C23   C27   S    
C48   H22   S    
C25   N3    A    
C18   C20   A    
C3    C13   A    
C26   N4    A    
C58   H46   S    
C54   C55   S    
C44   H13   S    
C16   N4    A    
C10   C12   A    
C51   H29   S    
C53   H33   S    
C50   H27   S    
O3    Zn2   S    
C40   O13   S    
C21   O11   S    
O4    Zn1   S    
C29   O9    S    
C56   H40   S    
C45   H14   S    
C4    C6    A    
C2    O4    A    
C26   I4    S    
C39   C40   D    
C5    C7    A    
C47   H19   S    
C31   I10   S    
C56   C57   S    
C6    C8    A    
C57   C58   S    
C54   H36   S    
O8    Zn1   S    
N1    N2    D    
C49   H25   S    
O6    Zn2   S    
C48   C49   S    
C55   H39   S    
C32   C34   A    
C2    C4    S    
C41   H5    S    
C32   I9    S    
C1    O1    A    
C19   N5    S    
C28   C38   A    
C42   C43   S    
O12   C50   S    
C49   H24   S    
C18   I1    S    
C52   H31   S    
C16   C18   A    
C38   I5    S    
C11   I15   S    
C37   I6    S    
C2    O2    A    
C8    C10   A    
C12   C14   A    
C42   H7    S    
C9    C11   A    
C44   C45   S    
O1    Zn1   S    
C13   H3    S    
C50   C51   S    
C25   I3    S    
N4    Zn1   S    
C14   H4    S    
C58   H44   S    
C23   O7    A    
C21   C25   A    
C57   H43   S    
C41   C42   S    
C19   C21   A    
C22   O12   S    
C24   C28   S    
C15   H2    S    
C20   C22   A    
O10   C44   S    
C3    C5    A    
C47   C48   S    
C36   I8    S    
C46   H18   S    
C30   O10   S    
C23   O5    A    
C24   O6    A    
C46   H17   S    
C17   I2    S    
C6    I11   S    
C28   C30   A    
C48   H21   S    
C29   C31   A    
C30   C32   A    
C11   C13   A    
C27   C37   A    
C43   H11   S    
C36   C38   A    
C51   H28   S    
C33   C35   A    
C12   I16   S    
C52   H32   S    
C34   C36   A    
C51   C52   S    
C4    C14   A    
O9    C41   S    
C55   H38   S    
C46   H16   S    
C7    C9    A    
O7    Zn2   S    
C24   O8    A    
N5    N6    D    
C22   C26   A    
C52   H30   S    
C43   H10   S    
C1    C3    S    
O14   C56   S    
C16   H1    S    
C53   C54   S    
C58   H45   S    
