data_mof_unit_27482.cif
_audit_creation_date              2012-10-26T21:05:22-0400
_audit_creation_method            fapswitch 2.2
_symmetry_space_group_name_H-M    P1
_symmetry_Int_Tables_number       1
_space_group_crystal_system       triclinic
_cell_length_a                    9.615905
_cell_length_b                    10.785696
_cell_length_c                    13.866173
_cell_angle_alpha                 92.570225
_cell_angle_beta                  84.809576
_cell_angle_gamma                 90.232934
_cell_volume                      1430.78166386

loop_
_atom_site_label
_atom_site_type_symbol
_atom_type_description
_atom_site_fract_x
_atom_site_fract_y
_atom_site_fract_z
_atom_type_partial_charge
C1    C     C_R   0.500030 0.737253 0.501950 0.545385
C2    C     C_R   0.579608 0.934012 0.432913 -0.032697
C3    C     C_R   0.578488 0.062299 0.434505 -0.155453
C4    C     C_R   0.477302 0.500174 0.682813 0.521217
C5    C     C_R   0.498400 0.129703 0.507410 -0.005263
C6    C     C_R   0.872106 0.333920 0.372187 -0.081830
C7    C     C_R   0.951766 0.251769 0.310378 -0.165743
C8    C     C_R   0.094993 0.251191 0.310759 -0.161883
C9    C     C_R   0.159452 0.332850 0.372878 -0.068261
C10   C     C_R   0.082388 0.417523 0.437920 0.140565
C11   C     C_R   0.933052 0.417867 0.437692 0.115799
C12   C     C_1   0.464027 0.499810 0.786025 -0.033739
C13   C     C_R   0.918243 0.578749 0.560007 0.373399
C14   C     C_R   0.067241 0.579492 0.558233 0.006362
C15   C     C_R   0.499446 0.263031 0.502363 0.519743
C16   C     C_R   0.522794 0.499928 0.317169 0.543459
C17   C     C_1   0.537363 0.500495 0.213935 -0.043491
C18   C     C_2   0.566991 0.501992 0.022053 0.276742
C19   C     C_2   0.449753 0.499466 0.976701 -0.077515
C20   C     C_1   0.455562 0.499666 0.872924 -0.013397
C21   C     C_1   0.551059 0.501162 0.127002 -0.081851
C22   C     C_3   0.810712 0.503668 0.023598 -0.001486
C23   C     C_R   0.349211 0.878440 0.660892 -0.106499
C24   C     C_3   0.945764 0.506350 0.957446 -0.382998
C25   C     C_1   0.659452 0.868118 0.353283 0.218358
C26   C     C_3   0.853847 0.653599 0.715121 -0.010579
C27   C     C_3   0.751176 0.740108 0.774595 -0.338927
C28   C     C_R   0.274160 0.946628 0.735879 -0.121190
C29   C     C_R   0.272293 0.075526 0.735831 -0.117707
C30   C     C_R   0.345635 0.136987 0.660865 -0.095231
C31   C     C_R   0.420874 0.069691 0.583259 0.027236
C32   C     C_R   0.422429 0.938636 0.582972 0.015783
C33   C     C_R   0.500375 0.871667 0.506165 -0.005089
Cu1   Cu    Cu3+1 0.359340 0.500010 0.500010 0.914225
Cu2   Cu    Cu3+1 0.640660 0.499990 0.499990 0.999119
H1    H     H_    0.347757 0.496726 0.017396 0.071798
H2    H     H_    0.344197 0.237257 0.665369 0.139742
H3    H     H_    0.637995 0.110314 0.377225 0.106026
H4    H     H_    0.809714 0.417135 0.064587 0.137383
H5    H     H_    0.809141 0.586460 0.074655 0.155320
H6    H     H_    0.952239 0.593478 0.917570 0.139945
H7    H     H_    0.036619 0.501833 0.001246 0.101252
H8    H     H_    0.949856 0.425810 0.904459 0.156607
H9    H     H_    0.960589 0.679637 0.733467 0.090661
H10   H     H_    0.830795 0.556617 0.736260 0.159976
H11   H     H_    0.642971 0.719950 0.756674 0.165506
H12   H     H_    0.763473 0.327749 0.364851 0.174253
H13   H     H_    0.757548 0.727473 0.853097 0.132912
H14   H     H_    0.776385 0.838090 0.758660 0.150418
H15   H     H_    0.901721 0.188535 0.261383 0.120048
H16   H     H_    0.157048 0.187535 0.262015 0.121004
H17   H     H_    0.269923 0.325918 0.365948 0.181421
H18   H     H_    0.118548 0.646549 0.603259 0.116714
H19   H     H_    0.350653 0.778718 0.665758 0.120929
H20   H     H_    0.218424 0.899242 0.794803 0.106757
H21   H     H_    0.215110 0.128232 0.794720 0.110752
N1    N     N_R   0.852210 0.498790 0.499090 -0.230452
N2    N     N_R   0.148080 0.498710 0.499060 -0.270445
N3    N     N_1   0.723244 0.815339 0.289614 -0.301676
O1    O     O_R   0.381190 0.680360 0.500010 -0.507020
O2    O     O_3   0.839237 0.667161 0.615661 -0.523721
O3    O     O_R   0.618760 0.680340 0.500000 -0.432246
O4    O     O_R   0.364420 0.499990 0.637850 -0.519452
O5    O     O_R   0.601990 0.499960 0.637840 -0.464577
O6    O     O_R   0.381240 0.319660 0.500000 -0.526444
O7    O     O_R   0.618810 0.319640 0.499990 -0.521947
O8    O     O_R   0.398010 0.500040 0.362160 -0.509793
O9    O     O_R   0.635580 0.500010 0.362150 -0.510106
O10   O     O_3   0.696098 0.505928 0.966735 -0.558108

loop_
_geom_bond_atom_site_label_1
_geom_bond_atom_site_label_2
_ccdc_geom_bond_type
C27   H13   S    
Cu1   O8    S    
Cu2   O7    S    
C29   C30   A    
C16   O9    A    
C29   H21   S    
C13   C14   A    
C4    C12   S    
C18   C21   S    
C24   H7    S    
C9    C10   A    
C4    O5    A    
C22   O10   S    
C19   C20   S    
C8    H16   S    
Cu2   N1    S    
C22   H5    S    
C23   C32   A    
C12   C20   T    
C18   O10   S    
C2    C3    A    
C26   H9    S    
C7    C8    A    
C16   O8    A    
C30   H2    S    
C23   C28   A    
C1    O3    A    
Cu1   O1    S    
C24   H6    S    
C4    O4    A    
C26   C27   S    
Cu2   O5    S    
C9    H17   S    
Cu2   O9    S    
C22   H4    S    
C27   H11   S    
C28   C29   A    
C10   N2    A    
C26   O2    S    
Cu1   Cu2   S    
Cu2   O3    S    
C19   H1    S    
Cu1   O6    S    
C30   C31   A    
C14   N2    A    
C22   C24   S    
C5    C15   S    
C13   N1    A    
C10   C11   A    
C1    C33   S    
C15   O6    A    
C16   C17   S    
C27   H14   S    
C2    C25   S    
C14   H18   S    
C13   O2    S    
C7    H15   S    
C23   H19   S    
C18   C19   D    
C6    H12   S    
C1    O1    A    
C6    C11   A    
Cu1   N2    S    
C24   H8    S    
Cu1   O4    S    
C32   C33   A    
C25   N3    T    
C26   H10   S    
C5    C31   A    
C11   N1    A    
C15   O7    A    
C28   H20   S    
C17   C21   T    
C6    C7    A    
C31   C32   A    
C3    H3    S    
C2    C33   A    
C8    C9    A    
C3    C5    A    
