data_mof_unit_45362.cif
_audit_creation_date              2012-12-11T14:15:34-0500
_audit_creation_method            fapswitch 2.2
_symmetry_space_group_name_H-M    P1
_symmetry_Int_Tables_number       1
_space_group_crystal_system       triclinic
_cell_length_a                    11.194488
_cell_length_b                    12.765711
_cell_length_c                    23.617291
_cell_angle_alpha                 90.977114
_cell_angle_beta                  97.184099
_cell_angle_gamma                 68.579338
_cell_volume                      3115.7465919

loop_
_atom_site_label
_atom_site_type_symbol
_atom_type_description
_atom_site_fract_x
_atom_site_fract_y
_atom_site_fract_z
_atom_type_partial_charge
C1    C     C_R   0.149508 0.616377 0.429113 0.536196
C2    C     C_R   0.745700 0.530135 0.307217 -0.173158
C3    C     C_R   0.681828 0.732852 0.318138 0.268242
C4    C     C_R   0.688999 0.745676 0.259242 0.050719
C5    C     C_R   0.713303 0.648809 0.225132 -0.023614
C6    C     C_R   0.703987 0.658303 0.166411 -0.157401
C7    C     C_R   0.667605 0.856777 0.172816 0.251041
C8    C     C_R   0.676286 0.848881 0.232634 0.324717
C9    C     C_1   0.243780 0.153440 0.124847 0.003671
C10   C     C_2   0.222208 0.200011 0.233946 0.175140
C11   C     C_2   0.129862 0.179882 0.259646 0.167266
C12   C     C_R   0.753225 0.601588 0.403226 0.570483
C13   C     C_1   0.120311 0.205790 0.319496 -0.005976
C14   C     C_1   0.230812 0.178265 0.173731 -0.014878
C15   C     C_1   0.111947 0.234570 0.368180 -0.009258
C16   C     C_1   0.171575 0.755708 0.125085 0.008209
C17   C     C_2   0.145268 0.717329 0.232155 0.240348
C18   C     C_2   0.243726 0.651290 0.270482 0.159132
C19   C     C_1   0.219870 0.641929 0.329167 0.044015
C20   C     C_1   0.160221 0.734920 0.173415 0.007259
C21   C     C_1   0.193576 0.631673 0.376337 0.016855
C22   C     C_1   0.594455 0.767122 0.859456 0.072031
C23   C     C_R   0.100696 0.282124 0.423566 0.550866
C24   C     C_2   0.588170 0.752648 0.747383 0.187693
C25   C     C_2   0.649864 0.653452 0.724008 0.276214
C26   C     C_1   0.663846 0.646300 0.664205 0.049430
C27   C     C_1   0.596304 0.759706 0.808771 0.082361
C28   C     C_1   0.691447 0.633714 0.616350 0.043528
C29   C     C_R   0.190683 0.191260 0.858785 -0.032614
C30   C     C_R   0.107351 0.241534 0.645674 0.053442
C31   C     C_R   0.012051 0.175143 0.718040 0.166830
C32   C     C_R   0.011840 0.202380 0.660593 0.110212
C33   C     C_R   0.198889 0.258344 0.689015 0.133426
C34   C     C_R   0.151605 0.617144 0.589745 0.551998
C35   C     C_R   0.176494 0.257164 0.746220 -0.009620
C36   C     C_R   0.093855 0.203173 0.760709 -0.006862
C37   C     C_R   0.101397 0.171367 0.817723 -0.144563
C38   C     C_R   0.248576 0.267282 0.846816 0.271633
C39   C     C_R   0.240672 0.301449 0.790348 0.278340
C40   C     C_R   0.139113 0.751379 0.850046 -0.003743
C41   C     C_R   0.185435 0.632838 0.649089 0.004015
C42   C     C_R   0.327410 0.656487 0.728660 -0.079440
C43   C     C_R   0.305559 0.636018 0.670954 -0.186189
C44   C     C_R   0.090998 0.644884 0.684723 0.288107
C45   C     C_R   0.746274 0.603514 0.564292 0.578373
C46   C     C_R   0.102372 0.688939 0.738269 0.055822
C47   C     C_R   0.225030 0.686710 0.761789 -0.008456
C48   C     C_R   0.243212 0.715101 0.817879 -0.143241
C49   C     C_R   0.013778 0.765117 0.825175 0.240700
C50   C     C_R   0.995013 0.737001 0.768242 0.285071
C51   C     C_R   0.266568 0.109510 0.069421 0.557436
C52   C     C_R   0.599403 0.776640 0.081493 0.561401
C53   C     C_R   0.190174 0.788552 0.069858 0.557024
C54   C     C_R   0.239433 0.117836 0.909363 0.560429
C55   C     C_R   0.570257 0.777354 0.917499 0.560170
C56   C     C_R   0.099475 0.283143 0.586960 0.609519
C57   C     C_R   0.165764 0.787656 0.906730 0.587640
C58   C     C_R   0.667312 0.763157 0.139755 -0.016675
C59   C     C_R   0.717321 0.624005 0.342000 0.024657
C60   C     C_R   0.740301 0.542813 0.249257 -0.133270
Cr1   Cr    Cr6+3 0.189770 0.415650 0.511620 1.024815
Cr2   Cr    Cr6+3 0.930400 0.667320 0.496770 1.127156
Cr3   Cr    Cr6+3 0.879870 0.417010 0.491650 1.028908
Cr4   Cr    Cr6+3 0.149500 0.973980 0.985330 1.090539
Cr5   Cr    Cr6+3 0.457000 0.976510 0.994660 1.147991
Cr6   Cr    Cr6+3 0.411170 0.724270 0.995270 1.084508
H1    H     H_    0.712911 0.584789 0.140961 0.153967
H2    H     H_    0.048370 0.120908 0.829500 0.189268
H3    H     H_    0.338331 0.712306 0.836075 0.144107
H4    H     H_    0.422024 0.651758 0.747225 0.144870
H5    H     H_    0.381653 0.620366 0.644135 0.105591
H6    H     H_    0.760206 0.468818 0.223360 0.132845
H7    H     H_    0.775467 0.445356 0.324935 0.143498
O1    O     O_R   0.196340 0.303200 0.448500 -0.498862
O2    O     O_R   0.811960 0.658090 0.547150 -0.446724
O3    O     O_R   0.757930 0.506140 0.547110 -0.537005
O4    O     O_R   0.988670 0.321620 0.556040 -0.469694
O5    O     O_3   0.000020 0.499990 0.500010 -0.261531
O6    O     O_R   0.113660 0.883270 0.047820 -0.478571
O7    O     O_R   0.186930 0.068530 0.043990 -0.501638
O8    O     O_R   0.377770 0.089040 0.054220 -0.450639
O9    O     O_R   0.562800 0.872960 0.056970 -0.440136
O10   O     O_R   0.555390 0.700940 0.062700 -0.518535
O11   O     O_R   0.295020 0.731920 0.049950 -0.495970
O12   O     O_R   0.199310 0.519670 0.454880 -0.513925
O13   O     O_R   0.094290 0.884230 0.921550 -0.465245
O14   O     O_R   0.168980 0.069410 0.926940 -0.514131
O15   O     O_R   0.358400 0.089990 0.927950 -0.461515
O16   O     O_R   0.544850 0.873850 0.939920 -0.481278
O17   O     O_R   0.536020 0.701900 0.936430 -0.498003
O18   O     O_R   0.277070 0.732810 0.932890 -0.493859
O19   O     O_3   0.339220 0.891590 0.991750 -0.302588
O20   O     O_R   0.045660 0.691380 0.441680 -0.475055
O21   O     O_R   0.811930 0.659460 0.430950 -0.447981
O22   O     O_R   0.757900 0.507620 0.421760 -0.543726
O23   O     O_R   0.988630 0.322990 0.439840 -0.504142
O24   O     O_R   0.196380 0.301720 0.573850 -0.505335
O25   O     O_R   0.199350 0.518300 0.571080 -0.521026
O26   O     O_R   0.045700 0.689900 0.567030 -0.479249
Cl1   Cl    Cl    0.992302 0.793995 0.252723 -0.579292
Cl2   Cl    Cl    0.739295 0.530733 0.766479 -0.517935
N1    N     N_2   0.506944 0.848805 0.712428 -0.542917
H8    H     H_    0.484596 0.840006 0.669353 0.247105
C61   C     C_3   0.499668 0.959777 0.730030 -0.255224
H9    H     H_    0.398027 0.010840 0.735721 0.128765
H10   H     H_    0.562594 0.957842 0.770570 0.201128
H11   H     H_    0.531448 0.999822 0.696495 0.172573
Cl3   Cl    Cl    0.331379 0.319200 0.902506 -0.458191
N2    N     N_2   0.926026 0.124668 0.733639 -0.504120
H12   H     H_    0.833712 0.155822 0.712185 0.277664
C62   C     C_3   0.979533 0.003189 0.738261 -0.297994
H13   H     H_    0.985416 0.966546 0.695259 0.154431
H14   H     H_    0.915546 0.974783 0.760954 0.218259
H15   H     H_    0.077540 0.972255 0.763136 0.134330
Cl4   Cl    Cl    0.298310 0.408950 0.778042 -0.551415
N3    N     N_2   0.923395 0.181095 0.617267 -0.515081
H16   H     H_    0.925658 0.099656 0.616993 0.255297
C63   C     C_3   0.793689 0.265824 0.608689 -0.241712
H17   H     H_    0.788023 0.344434 0.631247 0.195653
H18   H     H_    0.723720 0.233195 0.624060 0.104107
H19   H     H_    0.764448 0.286435 0.562366 0.174347
N4    N     N_2   0.328821 0.237232 0.677637 -0.507837
H20   H     H_    0.398505 0.185514 0.707993 0.241937
C64   C     C_3   0.363667 0.329830 0.660826 -0.188766
H21   H     H_    0.444896 0.336239 0.691126 0.166818
H22   H     H_    0.280326 0.409877 0.659841 0.227399
H23   H     H_    0.398903 0.314443 0.618474 0.156174
Cl5   Cl    Cl    0.658783 0.984414 0.140709 -0.513239
Cl6   Cl    Cl    0.880379 0.820232 0.864077 -0.524626
Cl7   Cl    Cl    0.838420 0.792520 0.730628 -0.572347
Cl8   Cl    Cl    0.983904 0.572610 0.668945 -0.516096
Cl9   Cl    Cl    0.683745 0.966589 0.271744 -0.463528
Cl10  Cl    Cl    0.611334 0.847530 0.361870 -0.500386
N5    N     N_2   0.038401 0.139231 0.227718 -0.537294
H24   H     H_    0.071307 0.087402 0.194555 0.268223
C65   C     C_3   0.952473 0.106895 0.258477 -0.227270
H25   H     H_    0.885991 0.080400 0.227798 0.229837
H26   H     H_    0.892764 0.179363 0.281979 0.149873
H27   H     H_    0.009305 0.035322 0.288747 0.202083
N6    N     N_2   0.317077 0.235310 0.266790 -0.499920
H28   H     H_    0.282934 0.296310 0.296146 0.247758
C66   C     C_3   0.421355 0.244566 0.239071 -0.241860
H29   H     H_    0.496364 0.254642 0.271749 0.162817
H30   H     H_    0.383757 0.318522 0.208889 0.136336
H31   H     H_    0.468334 0.166854 0.215904 0.236300
N7    N     N_2   0.368212 0.588362 0.253525 -0.529620
H32   H     H_    0.369742 0.568592 0.211034 0.250135
C67   C     C_3   0.457451 0.500009 0.292398 -0.298002
H33   H     H_    0.544011 0.451328 0.271746 0.142969
H34   H     H_    0.410762 0.441625 0.304004 0.139865
H35   H     H_    0.488596 0.537140 0.331720 0.178081

loop_
_geom_bond_atom_site_label_1
_geom_bond_atom_site_label_2
_ccdc_geom_bond_type
Cr5   O19   S    
C54   O15   A    
C1    C21   S    
C41   C43   A    
C6    C58   A    
C35   C36   A    
C9    C51   S    
C67   H35   S    
C48   H3    S    
C4    C8    A    
C61   H10   S    
C7    C8    A    
Cr6   O17   S    
N3    H16   S    
C44   Cl8   S    
Cr5   O16   S    
C57   O13   A    
C53   O11   A    
C36   C37   A    
C53   O6    A    
C67   H34   S    
C55   O17   A    
N2    C62   S    
C5    C6    A    
Cr1   O12   S    
C2    C60   A    
Cr3   O3    S    
C60   H6    S    
C40   C49   A    
C37   H2    S    
Cr3   O22   S    
C42   H4    S    
C17   C20   S    
C23   O23   A    
C18   C19   S    
C63   H17   S    
C50   Cl7   S    
C34   O25   A    
Cr6   O10   S    
C51   O7    A    
C12   C59   S    
C62   H13   S    
C29   C38   A    
C8    Cl9   S    
C24   C27   S    
C12   O22   A    
C52   O9    A    
C7    Cl5   S    
C57   O18   A    
C51   O8    A    
C7    C58   A    
C30   C33   A    
C15   C23   S    
Cr4   O7    S    
C66   H31   S    
C12   O21   A    
C34   C41   S    
C10   N6    S    
C56   O24   A    
C65   H27   S    
Cr4   O13   S    
C61   H9    S    
C44   C46   A    
C17   C18   D    
N7    C67   S    
C1    O12   A    
C38   C39   A    
C28   C45   S    
C24   C25   D    
C65   H26   S    
C10   C14   S    
C11   N5    S    
C2    C59   A    
C65   H25   S    
Cr6   O19   S    
C25   C26   S    
C49   Cl6   S    
Cr3   O23   S    
C32   N3    S    
C56   O4    A    
C3    Cl10  S    
C63   H19   S    
C52   O10   A    
C35   C39   A    
C9    C14   T    
Cr5   O8    S    
C47   C48   A    
Cr1   O5    S    
C16   C20   T    
C41   C44   A    
C34   O26   A    
C31   N2    S    
C62   H14   S    
C67   H33   S    
N1    C61   S    
C22   C55   S    
C2    H7    S    
C52   C58   S    
C64   H23   S    
C6    H1    S    
C39   Cl4   S    
C22   C27   T    
Cr2   O21   S    
C33   N4    S    
Cr4   O6    S    
C66   H30   S    
Cr2   O2    S    
C42   C43   A    
Cr4   O19   S    
C23   O1    A    
N4    C64   S    
C3    C4    A    
Cr5   O15   S    
C64   H22   S    
N7    H32   S    
Cr3   O4    S    
C40   C48   A    
C46   C47   A    
C43   H5    S    
C40   C57   S    
Cr4   O14   S    
C5    C60   A    
C19   C21   T    
C31   C36   A    
Cr2   O5    S    
C31   C32   A    
Cr1   O24   S    
N6    C66   S    
C4    C5    A    
C18   N7    S    
N5    C65   S    
Cr6   O18   S    
Cr1   O1    S    
C46   C50   A    
N5    H24   S    
C26   C28   T    
C45   O2    A    
C13   C15   T    
C55   O16   A    
N2    H12   S    
C30   C32   A    
C11   C13   S    
Cr1   O25   S    
C25   Cl2   S    
Cr5   O9    S    
C54   O14   A    
C30   C56   S    
N6    H28   S    
C45   O3    A    
C33   C35   A    
N3    C63   S    
C62   H15   S    
C24   N1    S    
C42   C47   A    
C38   Cl3   S    
N1    H8    S    
C17   Cl1   S    
C63   H18   S    
C10   C11   D    
Cr6   O11   S    
Cr2   O26   S    
C1    O20   A    
C49   C50   A    
C29   C54   S    
Cr2   O20   S    
C29   C37   A    
C66   H29   S    
N4    H20   S    
C61   H11   S    
C64   H21   S    
C16   C53   S    
Cr3   O5    S    
C3    C59   A    
