data_mof_unit_24748.cif
_audit_creation_date              2012-12-10T18:12:43-0500
_audit_creation_method            fapswitch 2.2
_symmetry_space_group_name_H-M    P1
_symmetry_Int_Tables_number       1
_space_group_crystal_system       triclinic
_cell_length_a                    12.712152
_cell_length_b                    13.076527
_cell_length_c                    15.701252
_cell_angle_alpha                 92.065444
_cell_angle_beta                  102.899777
_cell_angle_gamma                 81.913023
_cell_volume                      2518.83079563

loop_
_atom_site_label
_atom_site_type_symbol
_atom_type_description
_atom_site_fract_x
_atom_site_fract_y
_atom_site_fract_z
_atom_type_partial_charge
C1    C     C_R   0.439000 0.691373 0.494003 0.868335
C2    C     C_R   0.597410 0.200156 0.528925 -0.116393
C3    C     C_R   0.297819 0.838414 0.440160 -0.305578
C4    C     C_R   0.501429 0.500501 0.661820 0.870444
C5    C     C_R   0.267085 0.944309 0.426138 0.586768
C6    C     C_R   0.343437 0.011459 0.456622 -0.251387
C7    C     C_R   0.447405 0.974886 0.508827 0.042260
C8    C     C_R   0.468072 0.871790 0.536566 0.004580
C9    C     C_R   0.531551 0.037080 0.534445 -0.023174
C10   C     C_R   0.626832 0.002267 0.598944 -0.097238
C11   C     C_R   0.635867 0.905057 0.636846 0.614995
C12   C     C_3   0.504368 0.500375 0.917962 0.075851
C13   C     C_R   0.557370 0.840904 0.605778 -0.299525
C14   C     C_R   0.523765 0.132508 0.495780 -0.215451
C15   C     C_R   0.692041 0.166996 0.591285 -0.307864
C16   C     C_R   0.560963 0.308780 0.510450 0.931448
C17   C     C_R   0.399418 0.801726 0.493309 -0.145094
C18   C     C_R   0.092854 0.341772 0.380368 -0.250303
C19   C     C_R   0.799435 0.631136 0.603261 0.044649
C20   C     C_R   0.902380 0.661613 0.624000 -0.209324
C21   C     C_R   0.983450 0.612602 0.584287 -0.161713
C22   C     C_R   0.962209 0.531645 0.523485 -0.051813
C23   C     C_3   0.455360 0.417137 0.016025 -0.231677
C24   C     C_R   0.855341 0.503135 0.503813 0.085906
C25   C     C_R   0.042852 0.477805 0.481821 -0.013170
C26   C     C_R   0.015878 0.396728 0.421857 0.071012
C27   C     C_R   0.912346 0.370166 0.403588 -0.334004
C28   C     C_R   0.498528 0.499655 0.338174 0.934637
C29   C     C_R   0.833672 0.421361 0.443121 0.609473
C30   C     C_R   0.150266 0.499992 0.497075 -0.004860
C31   C     C_R   0.196974 0.367396 0.398501 0.026851
C32   C     C_3   0.440995 0.587489 0.019634 -0.237049
C33   C     C_3   0.546348 0.582143 0.984515 -0.234923
C34   C     C_3   0.497482 0.499120 0.082356 0.103538
C35   C     C_1   0.504663 0.500988 0.751516 -0.144002
C36   C     C_1   0.495609 0.498892 0.248518 -0.161554
C37   C     C_3   0.400707 0.505411 0.952242 0.702448
C38   C     C_3   0.084843 0.973680 0.418485 -0.323864
C39   C     C_3   0.888187 0.002481 0.643774 -0.235713
C40   C     C_3   0.560678 0.412225 0.980909 -0.232660
C41   C     C_3   0.602820 0.493983 0.049149 -0.110572
C42   C     C_1   0.505581 0.500934 0.827135 0.007860
C43   C     C_1   0.495350 0.498724 0.173007 -0.020615
C44   C     C_R   0.709609 0.066438 0.624115 0.561295
F1    F     F_    0.738394 0.385472 0.418938 -0.651931
F2    F     F_    0.296930 0.511349 0.900000 -0.656638
F3    F     F_    0.720964 0.870437 0.702797 -0.647380
H1    H     H_    0.583938 0.649169 0.969731 0.173966
H2    H     H_    0.736766 0.668386 0.634635 0.162667
H3    H     H_    0.391045 0.658509 0.036942 0.164421
H4    H     H_    0.061782 0.639416 0.602800 0.142658
H5    H     H_    0.919397 0.723162 0.670920 0.190730
H6    H     H_    0.686012 0.489210 0.091333 0.156265
H7    H     H_    0.609978 0.341004 0.963190 0.172566
H8    H     H_    0.417080 0.350391 0.030411 0.163171
H9    H     H_    0.749843 0.219884 0.617340 0.183153
H10   H     H_    0.099754 0.013716 0.483051 0.156606
H11   H     H_    0.075675 0.891509 0.426760 0.162112
H12   H     H_    0.457586 0.158468 0.441727 0.155930
H13   H     H_    0.006446 0.011774 0.379134 0.201072
H14   H     H_    0.868654 0.937414 0.597821 0.150545
H15   H     H_    0.962324 0.973977 0.693506 0.198385
H16   H     H_    0.907604 0.067448 0.608710 0.135734
H17   H     H_    0.243693 0.785138 0.407456 0.177249
H18   H     H_    0.317575 0.092123 0.441178 0.151737
H19   H     H_    0.566192 0.766899 0.637100 0.173672
H20   H     H_    0.258417 0.325823 0.367661 0.131294
H21   H     H_    0.891501 0.308060 0.357871 0.186419
H22   H     H_    0.072732 0.279535 0.334743 0.160741
H23   H     H_    0.179639 0.559679 0.541348 0.123899
N1    N     N_R   0.222180 0.444680 0.455580 -0.109151
N2    N     N_R   0.776980 0.554790 0.543960 -0.122985
O1    O     O_R   0.366730 0.627160 0.478790 -0.622394
O2    O     O_3   0.802868 0.035270 0.686676 -0.542682
O3    O     O_R   0.544830 0.662520 0.507160 -0.623362
O4    O     O_R   0.410960 0.482330 0.609040 -0.601096
O5    O     O_R   0.589060 0.517690 0.637410 -0.628589
O6    O     O_R   0.455170 0.337480 0.492840 -0.631969
O7    O     O_R   0.633270 0.372840 0.521210 -0.540380
O8    O     O_R   0.410940 0.482310 0.362590 -0.625907
O9    O     O_R   0.589040 0.517670 0.390960 -0.538191
O10   O     O_3   0.167706 0.982178 0.373581 -0.601690
Zn1   Zn    Zn3+2 0.381080 0.476390 0.481050 0.951613
Zn2   Zn    Zn3+2 0.618920 0.523610 0.518950 0.994910

loop_
_geom_bond_atom_site_label_1
_geom_bond_atom_site_label_2
_ccdc_geom_bond_type
C8    C13   A    
C27   C29   A    
C11   F3    S    
C19   C20   A    
C18   C26   A    
C30   N1    A    
C7    C8    A    
C3    H17   S    
C31   H20   S    
C14   H12   S    
C26   C27   A    
C15   C44   A    
C5    C6    A    
O3    Zn2   S    
C23   C40   S    
C39   O2    S    
C12   C37   S    
C35   C42   T    
C24   C29   A    
C12   C42   S    
C27   H21   S    
C38   H11   S    
O6    Zn1   S    
C6    H18   S    
C22   C25   A    
C2    C16   S    
C9    C10   A    
C18   H22   S    
C31   N1    A    
C4    C35   S    
C21   C22   A    
C38   O10   S    
C19   N2    A    
C34   C41   S    
O8    Zn1   S    
C2    C14   A    
O4    Zn1   S    
C30   H23   S    
N1    Zn1   S    
C13   H19   S    
C39   H14   S    
C10   C44   A    
C1    O3    A    
O5    Zn2   S    
C25   C26   A    
C23   C37   S    
C29   F1    S    
C32   C34   S    
C12   C40   S    
C9    C14   A    
C38   H10   S    
C19   H2    S    
C23   C34   S    
C41   H6    S    
C32   C37   S    
C44   O2    S    
C2    C15   A    
C32   H3    S    
N2    Zn2   S    
C38   H13   S    
C40   C41   S    
C40   H7    S    
C22   C24   A    
C21   H4    S    
O9    Zn2   S    
C24   N2    A    
C25   C30   A    
C7    C9    A    
C39   H15   S    
C28   O9    A    
C34   C43   S    
C3    C5    A    
C23   H8    S    
C6    C7    A    
C39   H16   S    
C1    C17   S    
C8    C17   A    
C16   O7    A    
C1    O1    A    
C15   H9    S    
C12   C33   S    
C33   C41   S    
C4    O5    A    
C20   H5    S    
C32   C33   S    
C5    O10   S    
C11   C13   A    
O7    Zn2   S    
C3    C17   A    
C16   O6    A    
C28   O8    A    
C4    O4    A    
C10   C11   A    
C20   C21   A    
C28   C36   S    
C33   H1    S    
C36   C43   T    
C18   C31   A    
C37   F2    S    
O1    Zn1   S    
