data_mof_unit_61046.cif
_audit_creation_date              2012-12-10T16:42:43-0500
_audit_creation_method            fapswitch 2.2
_symmetry_space_group_name_H-M    P1
_symmetry_Int_Tables_number       1
_space_group_crystal_system       triclinic
_cell_length_a                    19.062407
_cell_length_b                    18.911955
_cell_length_c                    18.9917
_cell_angle_alpha                 109.248216
_cell_angle_beta                  109.803999
_cell_angle_gamma                 109.474715
_cell_volume                      5263.07774074

loop_
_atom_site_label
_atom_site_type_symbol
_atom_type_description
_atom_site_fract_x
_atom_site_fract_y
_atom_site_fract_z
_atom_type_partial_charge
C1    C     C_R   0.384519 0.382074 0.501593 0.837920
C2    C     C_R   0.757869 0.580124 0.754601 0.070930
C3    C     C_R   0.812695 0.500363 0.812423 -0.189484
C4    C     C_R   0.742902 0.420673 0.738950 0.071595
C5    C     C_R   0.674698 0.420670 0.678974 0.070281
C6    C     C_R   0.684303 0.500386 0.684968 -0.188778
C7    C     C_R   0.739103 0.340428 0.723663 -0.141187
C8    C     C_R   0.665494 0.262363 0.656562 -0.142756
C9    C     C_R   0.594434 0.262338 0.603446 -0.141067
C10   C     C_R   0.598560 0.340386 0.614213 -0.139970
C11   C     C_2   0.257147 0.250434 0.574213 -0.156973
C12   C     C_R   0.617937 0.500181 0.618133 0.787300
C13   C     C_2   0.180729 0.189669 0.502997 -0.312867
C14   C     C_2   0.317964 0.323304 0.574277 -0.154333
C15   C     C_2   0.322598 0.313041 0.503038 -0.320112
C16   C     C_2   0.174790 0.425459 0.180715 -0.154708
C17   C     C_2   0.184094 0.496953 0.175982 -0.313697
C18   C     C_2   0.248069 0.425461 0.241426 -0.154093
C19   C     C_2   0.309848 0.496857 0.317518 -0.311493
C20   C     C_2   0.744101 0.818783 0.495185 -0.152684
C21   C     C_2   0.819592 0.822883 0.509604 -0.314255
C22   C     C_2   0.683542 0.758152 0.507483 -0.159545
C23   C     C_R   0.615743 0.617466 0.498181 0.841012
C24   C     C_2   0.678129 0.681577 0.492242 -0.315554
C25   C     C_R   0.994093 0.381812 0.877187 0.783294
C26   C     C_R   0.878991 0.500173 0.878905 0.788652
C27   C     C_R   0.998151 0.617499 0.115660 0.841184
C28   C     C_R   0.115209 0.498322 0.113206 0.850416
C29   C     C_R   0.003434 0.120886 0.616980 0.827327
C30   C     C_R   0.117109 0.119313 0.501497 0.837327
C31   C     C_R   0.002120 0.884466 0.382825 0.848240
C32   C     C_R   0.882958 0.884598 0.502391 0.853803
C33   C     C_2   0.993503 0.252141 0.674257 -0.134455
C34   C     C_R   0.379979 0.498245 0.381827 0.848106
C35   C     C_2   0.014431 0.194394 0.685891 -0.262620
C36   C     C_2   0.005909 0.324130 0.748181 -0.157999
C37   C     C_2   0.983340 0.310930 0.804592 0.005537
C38   C     C_2   0.073622 0.816882 0.322869 -0.156008
C39   C     C_2   0.003039 0.822285 0.313680 -0.313121
C40   C     C_2   0.072574 0.756581 0.248914 -0.158524
C41   C     C_2   0.000479 0.681494 0.186240 -0.314589
C42   C     C_R   0.772644 0.660426 0.758673 -0.142397
C43   C     C_R   0.840090 0.738456 0.832133 -0.142451
C44   C     C_R   0.894107 0.738410 0.902772 -0.142698
C45   C     C_R   0.883778 0.660341 0.898360 -0.142430
C46   C     C_R   0.818546 0.580095 0.822353 0.070879
Cu1   Cu    Cu3+1 0.500390 0.438990 0.439360 0.947039
Cu2   Cu    Cu3+1 0.499610 0.561010 0.560640 0.945377
Cu3   Cu    Cu3+1 0.935830 0.439030 0.996840 0.943363
Cu4   Cu    Cu3+1 0.057850 0.561040 0.996790 0.943352
Cu5   Cu    Cu3+1 0.061410 0.000010 0.561410 0.949947
Cu6   Cu    Cu3+1 0.938590 0.999990 0.438590 0.951140
H1    H     H_    0.536291 0.201639 0.552886 0.134666
H2    H     H_    0.160518 0.195763 0.445541 0.154838
H3    H     H_    0.362328 0.384345 0.634554 0.164030
H4    H     H_    0.285066 0.249532 0.445526 0.153003
H5    H     H_    0.114185 0.364833 0.136187 0.159223
H6    H     H_    0.247102 0.554953 0.213687 0.152880
H7    H     H_    0.248313 0.364888 0.225492 0.159861
H8    H     H_    0.304537 0.554757 0.337586 0.153090
H9    H     H_    0.728358 0.863350 0.478565 0.163180
H10   H     H_    0.839579 0.785239 0.535555 0.153561
H11   H     H_    0.639749 0.774504 0.524178 0.161716
H12   H     H_    0.733205 0.664346 0.705371 0.149501
H13   H     H_    0.715126 0.661206 0.466308 0.156499
H14   H     H_    0.970577 0.248741 0.611864 0.155288
H15   H     H_    0.046929 0.204744 0.750742 0.173125
H16   H     H_    0.029966 0.387640 0.753780 0.139133
H17   H     H_    0.134073 0.860397 0.383769 0.161920
H18   H     H_    0.945387 0.785747 0.250455 0.154008
H19   H     H_    0.132714 0.771854 0.248748 0.160259
H20   H     H_    0.942823 0.661599 0.191336 0.155556
H21   H     H_    0.849681 0.799167 0.834645 0.135972
H22   H     H_    0.945006 0.799083 0.960804 0.135669
H23   H     H_    0.927111 0.664170 0.955513 0.149382
H24   H     H_    0.792755 0.336646 0.762477 0.142429
H25   H     H_    0.663200 0.201691 0.646589 0.133518
H26   H     H_    0.541119 0.336568 0.571624 0.146699
H27   H     H_    0.273407 0.249563 0.634434 0.163342
O1    O     O_R   0.411310 0.359450 0.448800 -0.598017
O2    O     O_R   0.048900 0.462510 0.908320 -0.586904
O3    O     O_R   0.855710 0.448510 0.907250 -0.586781
O4    O     O_R   0.958760 0.551540 0.907200 -0.588527
O5    O     O_R   0.944780 0.537560 0.085320 -0.581425
O6    O     O_R   0.047820 0.640590 0.085270 -0.589058
O7    O     O_R   0.034920 0.448530 0.086440 -0.578683
O8    O     O_R   0.137970 0.551560 0.086390 -0.586949
O9    O     O_R   0.051300 0.089020 0.640330 -0.593178
O10   O     O_R   0.947570 0.089010 0.536620 -0.581861
O11   O     O_R   0.140880 0.089030 0.551840 -0.584604
O12   O     O_R   0.410660 0.462490 0.551220 -0.575965
O13   O     O_R   0.037150 0.089020 0.448130 -0.590569
O14   O     O_R   0.052430 0.910990 0.463380 -0.579745
O15   O     O_R   0.948700 0.910980 0.359670 -0.587524
O16   O     O_R   0.962850 0.910980 0.551870 -0.585538
O17   O     O_R   0.859120 0.910970 0.448160 -0.579258
O18   O     O_R   0.589930 0.448490 0.538390 -0.586818
O19   O     O_R   0.589280 0.551530 0.640800 -0.589854
O20   O     O_R   0.589340 0.537510 0.448780 -0.582081
O21   O     O_R   0.588690 0.640550 0.551200 -0.589568
O22   O     O_R   0.410720 0.448470 0.359200 -0.579777
O23   O     O_R   0.410070 0.551510 0.461610 -0.587910
O24   O     O_R   0.945860 0.359480 0.908360 -0.599777
N1    N     N_3   0.937809 0.224276 0.788536 -0.579814
H28   H     H_    0.969944 0.222320 0.844112 0.214088
H29   H     H_    0.875779 0.209979 0.777173 0.230569

loop_
_geom_bond_atom_site_label_1
_geom_bond_atom_site_label_2
_ccdc_geom_bond_type
C43   H21   S    
C23   O20   A    
C26   O4    A    
Cu1   O22   S    
C40   H19   S    
C30   O11   A    
N1    H29   S    
C10   H26   S    
Cu6   O17   S    
C7    C8    A    
C45   C46   A    
C2    C46   A    
C34   O23   A    
Cu3   O5    S    
C36   C37   D    
Cu5   O11   S    
C6    C12   S    
C38   C39   D    
C11   C14   S    
C33   C36   S    
Cu1   O20   S    
C8    C9    A    
C18   C19   D    
C20   H9    S    
C27   O6    A    
C29   O9    A    
Cu4   O6    S    
C25   C37   S    
C22   H11   S    
C16   C17   D    
Cu2   O12   S    
Cu4   O4    S    
C23   C24   S    
Cu6   O15   S    
C1    C15   S    
C9    C10   A    
C12   O19   A    
C17   H6    S    
C14   H3    S    
C38   H17   S    
C26   O3    A    
C25   O2    A    
Cu6   O10   S    
C2    C6    A    
Cu1   O1    S    
C4    C7    A    
C29   O10   A    
N1    H28   S    
C33   H14   S    
Cu2   O21   S    
C21   C32   S    
C34   O22   A    
Cu5   Cu6   S    
C13   C30   S    
C30   O13   A    
C25   O24   A    
C31   O14   A    
Cu3   O3    S    
C43   C44   A    
C27   C41   S    
Cu1   Cu2   S    
C35   H15   S    
Cu2   O23   S    
C28   O8    A    
C12   O18   A    
C44   H22   S    
C21   H10   S    
C11   H27   S    
C24   H13   S    
Cu5   O14   S    
C41   H20   S    
Cu4   O8    S    
C40   C41   D    
C32   O17   A    
C20   C22   S    
C28   O7    A    
C8    H25   S    
C22   C24   D    
Cu6   O13   S    
C9    H1    S    
C42   C43   A    
C3    C4    A    
C42   H12   S    
C44   C45   A    
C13   H2    S    
C27   O5    A    
C17   C28   S    
Cu3   O7    S    
C3    C26   S    
C4    C5    A    
C19   C34   S    
Cu5   O9    S    
Cu3   O24   S    
C37   N1    S    
C36   H16   S    
C7    H24   S    
C19   H8    S    
C31   O15   A    
Cu2   O19   S    
C29   C35   S    
C3    C46   A    
Cu1   O18   S    
C45   H23   S    
C15   H4    S    
C5    C10   A    
C38   C40   S    
C11   C13   D    
C5    C6    A    
C2    C42   A    
C33   C35   D    
C39   H18   S    
C31   C39   S    
C23   O21   A    
C16   H5    S    
C18   H7    S    
C32   O16   A    
C20   C21   D    
C16   C18   S    
Cu3   Cu4   S    
C1    O12   A    
C1    O1    A    
C14   C15   D    
Cu4   O2    S    
Cu5   O16   S    
