data_mof_unit_26648.cif
_audit_creation_date              2012-10-26T19:42:36-0400
_audit_creation_method            fapswitch 2.2
_symmetry_space_group_name_H-M    P1
_symmetry_Int_Tables_number       1
_space_group_crystal_system       triclinic
_cell_length_a                    19.341194
_cell_length_b                    10.780874
_cell_length_c                    9.598382
_cell_angle_alpha                 90.131053
_cell_angle_beta                  90.039395
_cell_angle_gamma                 92.74178
_cell_volume                      1999.10943091

loop_
_atom_site_label
_atom_site_type_symbol
_atom_type_description
_atom_site_fract_x
_atom_site_fract_y
_atom_site_fract_z
_atom_type_partial_charge
C1    C     C_R   0.497061 0.262542 0.499870 0.542674
C2    C     C_R   0.854168 0.513769 0.501895 0.034091
C3    C     C_R   0.389763 0.120517 0.655472 -0.114490
C4    C     C_R   0.367692 0.502220 0.499908 0.533297
C5    C     C_R   0.340732 0.051801 0.733278 -0.129633
C6    C     C_R   0.341575 0.922968 0.735875 -0.124374
C7    C     C_R   0.391278 0.862011 0.660242 -0.116613
C8    C     C_R   0.442200 0.929723 0.581848 0.019460
C9    C     C_R   0.441696 0.060922 0.580328 0.023621
C10   C     C_R   0.491703 0.128299 0.499315 0.000939
C11   C     C_R   0.538054 0.067058 0.415267 -0.150726
C12   C     C_R   0.292060 0.510631 0.499966 0.006142
C13   C     C_R   0.538149 0.939197 0.415611 -0.156935
C14   C     C_R   0.492118 0.870421 0.500503 -0.003511
C15   C     C_R   0.592214 0.665230 0.144485 -0.095804
C16   C     C_R   0.497341 0.737053 0.500206 0.514826
C17   C     C_R   0.637282 0.745969 0.072532 -0.176973
C18   C     C_R   0.637248 0.746034 0.928965 -0.166378
C19   C     C_R   0.592137 0.665370 0.856460 -0.084613
C20   C     C_R   0.545274 0.581299 0.925439 0.156082
C21   C     C_R   0.545288 0.581233 0.075022 0.155582
C22   C     C_R   0.456770 0.422894 0.073644 0.013293
C23   C     C_R   0.930422 0.516897 0.502624 0.344291
C24   C     C_R   0.456790 0.422913 0.925751 0.003868
C25   C     C_R   0.632491 0.501164 0.500042 0.536053
C26   C     C_R   0.253995 0.465974 0.615202 -0.185129
C27   C     C_R   0.182208 0.470327 0.616996 -0.137036
C28   C     C_R   0.146921 0.518682 0.503051 -0.014373
C29   C     C_R   0.184912 0.565153 0.388349 -0.094385
C30   C     C_R   0.257122 0.564541 0.387210 0.259259
C31   C     C_3   0.322985 0.731002 0.303564 0.034271
C32   C     C_3   0.277241 0.833123 0.251416 -0.280380
C33   C     C_3   0.310505 0.961820 0.280930 -0.475645
C34   C     C_R   0.070745 0.519452 0.503284 0.346497
C35   C     C_R   0.817037 0.498823 0.626922 -0.119364
C36   C     C_R   0.744941 0.494851 0.626266 -0.135594
C37   C     C_R   0.708594 0.504893 0.500452 0.010024
C38   C     C_R   0.745627 0.519947 0.375397 -0.138972
C39   C     C_R   0.817764 0.524692 0.376161 -0.118962
Cu1   Cu    Cu3+1 0.500000 0.499990 0.640660 0.910767
Cu2   Cu    Cu3+1 0.500000 0.500010 0.359340 0.930172
H1    H     H_    0.279706 0.425626 0.703348 0.130800
H2    H     H_    0.672475 0.809116 0.873012 0.126929
H3    H     H_    0.596438 0.673219 0.746646 0.184629
H4    H     H_    0.154332 0.433779 0.706900 0.151497
H5    H     H_    0.421358 0.359711 0.870357 0.108917
H6    H     H_    0.158824 0.603712 0.299663 0.147276
H7    H     H_    0.843599 0.490609 0.725578 0.138655
H8    H     H_    0.717750 0.483559 0.724380 0.135335
H9    H     H_    0.718967 0.528558 0.276874 0.131354
H10   H     H_    0.844909 0.536097 0.278056 0.138653
H11   H     H_    0.575629 0.118775 0.351624 0.133992
H12   H     H_    0.385316 0.220011 0.652586 0.125841
H13   H     H_    0.373414 0.739738 0.248194 0.181270
H14   H     H_    0.334703 0.745472 0.416379 0.109167
H15   H     H_    0.268974 0.822183 0.137329 0.174180
H16   H     H_    0.226097 0.824866 0.304105 0.165091
H17   H     H_    0.316260 0.976588 0.394982 0.167691
H18   H     H_    0.277176 0.033889 0.238685 0.154090
H19   H     H_    0.362222 0.972208 0.230809 0.155427
H20   H     H_    0.301339 0.098685 0.790281 0.112225
H21   H     H_    0.302857 0.869838 0.795026 0.120098
H22   H     H_    0.387937 0.761772 0.661591 0.144609
H23   H     H_    0.575737 0.893726 0.352006 0.116496
H24   H     H_    0.421344 0.359656 0.128623 0.124352
H25   H     H_    0.596651 0.672951 0.254301 0.178711
H26   H     H_    0.672528 0.808995 0.128939 0.120345
N1    N     N_R   0.035693 0.548409 0.386132 -0.230877
N2    N     N_R   0.966891 0.547014 0.385758 -0.229204
N3    N     N_R   0.965489 0.488479 0.619919 -0.229194
N4    N     N_R   0.034269 0.489562 0.620191 -0.225160
N5    N     N_R   0.500660 0.501210 0.147910 -0.244005
N6    N     N_R   0.500680 0.501290 0.852040 -0.243387
O1    O     O_R   0.499990 0.319640 0.618810 -0.497314
O2    O     O_R   0.500000 0.319660 0.381240 -0.500419
O3    O     O_R   0.400140 0.499970 0.618820 -0.525680
O4    O     O_R   0.400150 0.500000 0.381250 -0.457962
O5    O     O_R   0.500000 0.680340 0.618760 -0.522181
O6    O     O_R   0.500010 0.680360 0.381190 -0.530182
O7    O     O_R   0.599850 0.500000 0.618750 -0.517772
O8    O     O_R   0.599860 0.500030 0.381180 -0.519756
O9    O     O_3   0.292280 0.612210 0.272016 -0.559854

loop_
_geom_bond_atom_site_label_1
_geom_bond_atom_site_label_2
_ccdc_geom_bond_type
C2    C35   A    
C39   H10   S    
C33   H17   S    
C25   O7    A    
C11   C13   A    
C23   N2    A    
C35   C36   A    
C7    C8    A    
C26   C27   A    
C29   C30   A    
C31   O9    S    
C29   H6    S    
C1    O1    A    
C36   C37   A    
Cu2   O4    S    
C5    C6    A    
C24   N6    A    
Cu1   N6    S    
C18   C19   A    
C11   H11   S    
C25   C37   S    
C2    C39   A    
C19   C20   A    
C8    C9    A    
Cu1   O7    S    
N3    N4    A    
C14   C16   S    
C4    C12   S    
C9    C10   A    
C27   H4    S    
C28   C34   S    
C33   H18   S    
C13   C14   A    
C25   O8    A    
C23   N3    A    
C32   H16   S    
C35   H7    S    
C22   N5    A    
C17   H26   S    
C21   N5    A    
C1    O2    A    
C34   N1    A    
N1    N2    A    
C15   H25   S    
Cu1   O3    S    
C12   C26   A    
C30   O9    S    
C22   H24   S    
C37   C38   A    
C3    C9    A    
Cu2   O2    S    
C31   C32   S    
Cu2   O8    S    
C17   C18   A    
C5    H20   S    
C7    H22   S    
Cu2   N5    S    
Cu1   O5    S    
Cu1   Cu2   S    
C33   H19   S    
C22   C24   A    
C2    C23   S    
C19   H3    S    
C26   H1    S    
C15   C17   A    
C28   C29   A    
C8    C14   A    
C12   C30   A    
C1    C10   S    
C3    C5    A    
Cu2   O6    S    
C6    C7    A    
C38   H9    S    
C16   O6    A    
C24   H5    S    
C32   C33   S    
C6    H21   S    
C4    O4    A    
C18   H2    S    
C3    H12   S    
C38   C39   A    
C13   H23   S    
Cu1   O1    S    
C20   N6    A    
C16   O5    A    
C31   H13   S    
C4    O3    A    
C10   C11   A    
C15   C21   A    
C20   C21   A    
C27   C28   A    
C31   H14   S    
C34   N4    A    
C32   H15   S    
C36   H8    S    
