data_mof_unit_45448.cif
_audit_creation_date              2013-03-05T16:04:11-0500
_audit_creation_method            fapswitch 2.2
_symmetry_space_group_name_H-M    P1
_symmetry_Int_Tables_number       1
_space_group_crystal_system       triclinic
_cell_length_a                    19.505323
_cell_length_b                    6.929787
_cell_length_c                    17.677823
_cell_angle_alpha                 89.999976
_cell_angle_beta                  109.039113
_cell_angle_gamma                 90.000088
_cell_volume                      2258.75788943

loop_
_atom_site_label
_atom_site_type_symbol
_atom_site_description
_atom_site_fract_x
_atom_site_fract_y
_atom_site_fract_z
_atom_type_partial_charge
O1    O     O_R   0.561710 0.369960 0.440200 -0.590647
O2    O     O_R   0.061710 0.630040 0.940200 -0.590654
O3    O     O_R   0.412630 0.033330 0.406330 -0.575126
O4    O     O_R   0.912630 0.966670 0.906330 -0.575125
O5    O     O_R   0.438290 0.869790 0.559800 -0.546987
O6    O     O_R   0.938290 0.130210 0.059800 -0.546988
C1    C     C_R   0.384827 0.202803 0.383144 1.134127
C2    C     C_R   0.884827 0.797196 0.883144 1.134121
O7    O     O_R   0.559570 0.039810 0.430640 -0.597737
O8    O     O_R   0.059570 0.960190 0.930640 -0.597722
O9    O     O_R   0.586280 0.876320 0.584290 -0.603617
O10   O     O_R   0.086280 0.123680 0.084290 -0.603618
C3    C     C_R   0.579896 0.209520 0.414178 1.011023
C4    C     C_R   0.079897 0.790480 0.914179 1.011011
O11   O     O_R   0.413720 0.363440 0.415710 -0.595647
O12   O     O_R   0.913720 0.636560 0.915710 -0.595653
O13   O     O_3   0.508590 0.205630 0.550380 -0.243168
O14   O     O_3   0.008590 0.794370 0.050380 -0.243169
V1    V     V_3+5 0.498410 0.928130 0.490650 1.281220
V2    V     V_3+5 0.998410 0.071870 0.990650 1.281227
O15   O     O_R   0.587370 0.546990 0.593670 -0.602665
O16   O     O_R   0.087370 0.453010 0.093670 -0.602665
C5    C     C_R   0.614051 0.716853 0.618349 1.050691
C6    C     C_R   0.114051 0.283146 0.118349 1.050694
O17   O     O_R   0.440430 0.540520 0.569360 -0.571862
O18   O     O_R   0.940430 0.459480 0.069360 -0.571861
C7    C     C_R   0.418179 0.709907 0.583899 1.044183
C8    C     C_R   0.918179 0.290093 0.083899 1.044183
V3    V     V_3+5 0.501590 0.428960 0.509350 1.275787
V4    V     V_3+5 0.001590 0.571040 0.009350 1.275787
O19   O     O_3   0.491410 0.701330 0.449620 -0.270028
O20   O     O_3   0.991410 0.298670 0.949620 -0.270027
C9    C     C_R   0.276834 0.889739 0.675692 -0.216551
C10   C     C_R   0.776833 0.110257 0.175689 -0.216550
H1    H     H_    0.240746 0.011720 0.670297 0.193854
H2    H     H_    0.740745 0.988275 0.170294 0.193854
C11   C     C_R   0.321774 0.883036 0.627825 0.369509
C12   C     C_R   0.821773 0.116961 0.127823 0.369510
C13   C     C_R   0.369149 0.723470 0.633499 -0.296634
C14   C     C_R   0.869148 0.276528 0.133498 -0.296634
C15   C     C_R   0.368747 0.574037 0.687376 -0.101916
C16   C     C_R   0.868746 0.425961 0.187375 -0.101916
H3    H     H_    0.404695 0.451569 0.694212 0.190163
H4    H     H_    0.904694 0.548429 0.194211 0.190163
C17   C     C_R   0.322821 0.581520 0.734005 -0.043286
C18   C     C_R   0.822819 0.418477 0.234004 -0.043285
H5    H     H_    0.323788 0.464190 0.774828 0.135248
H6    H     H_    0.823785 0.535806 0.274826 0.135246
C19   C     C_R   0.276770 0.740113 0.728866 0.142277
C20   C     C_R   0.776768 0.259882 0.228863 0.142275
C21   C     C_R   0.176323 0.601503 0.771921 0.681743
C22   C     C_R   0.676319 0.398491 0.271915 0.681749
C23   C     C_R   0.125551 0.616186 0.813088 0.178865
C24   C     C_R   0.625547 0.383813 0.313082 0.178843
C25   C     C_R   0.127662 0.777647 0.863433 -0.354163
C26   C     C_R   0.627659 0.222353 0.363430 -0.354153
C27   C     C_R   0.178679 0.924205 0.868038 -0.095027
C28   C     C_R   0.678675 0.075793 0.368034 -0.095050
H7    H     H_    0.181728 0.048608 0.906104 0.157349
H8    H     H_    0.681724 0.951390 0.406100 0.157338
C29   C     C_R   0.227099 0.911212 0.824729 -0.162178
C30   C     C_R   0.727095 0.088784 0.324725 -0.162172
H9    H     H_    0.265406 0.027286 0.829090 0.163447
H10   H     H_    0.765402 0.972710 0.329086 0.163444
C31   C     C_R   0.227008 0.749119 0.777096 -0.145047
C32   C     C_R   0.727004 0.250876 0.277092 -0.145043
C33   C     C_R   0.807399 0.647725 0.753744 0.117903
C34   C     C_R   0.307399 0.352275 0.253744 0.117905
C35   C     C_R   0.816669 0.785749 0.814120 -0.478856
C36   C     C_R   0.316669 0.214251 0.314120 -0.478859
C37   C     C_R   0.757993 0.911348 0.807438 0.684272
C38   C     C_R   0.257993 0.088652 0.307438 0.684270
C39   C     C_R   0.689461 0.883525 0.746986 0.162664
C40   C     C_R   0.189461 0.116475 0.246986 0.162664
C41   C     C_R   0.681016 0.734853 0.688589 -0.395939
C42   C     C_R   0.181015 0.265147 0.188589 -0.395940
C43   C     C_R   0.742315 0.626452 0.691744 0.101532
C44   C     C_R   0.242314 0.373548 0.191744 0.101531
C45   C     C_3   0.751591 0.413162 0.688803 -0.462510
C46   C     C_3   0.251591 0.586838 0.188803 -0.462517
C47   C     C_3   0.822379 0.436015 0.757518 -0.316570
C48   C     C_3   0.322379 0.563986 0.257518 -0.316562
H11   H     H_    0.759533 0.366373 0.632085 0.177077
H12   H     H_    0.259533 0.633628 0.132085 0.177077
H13   H     H_    0.709578 0.331721 0.705141 0.244802
H14   H     H_    0.209578 0.668279 0.205142 0.244803
H15   H     H_    0.870518 0.399049 0.740092 0.225677
H16   H     H_    0.370518 0.600953 0.240092 0.225677
H17   H     H_    0.821044 0.369360 0.814223 0.235229
H18   H     H_    0.321044 0.630640 0.314223 0.235229
N1    N     N_R   0.627654 0.993329 0.750281 0.266390
O21   O     O_R   0.635869 0.166215 0.780623 -0.318023
O22   O     O_R   0.564410 0.911303 0.733456 -0.391029
N2    N     N_R   0.127654 0.006671 0.250281 0.266390
O23   O     O_R   0.064410 0.088697 0.233456 -0.391029
O24   O     O_R   0.135869 0.833785 0.280623 -0.318023
N3    N     N_R   0.315893 0.036188 0.571717 0.238699
O25   O     O_R   0.253401 0.070705 0.517887 -0.302138
O26   O     O_R   0.365444 0.169516 0.587787 -0.390392
N4    N     N_R   0.815893 0.963809 0.071716 0.238699
O27   O     O_R   0.753402 0.929291 0.017885 -0.302138
O28   O     O_R   0.865444 0.830482 0.087786 -0.390392
F1    F     F_    0.172991 0.449541 0.722255 -0.654597
F2    F     F_    0.672988 0.550449 0.222247 -0.654590
N5    N     N_R   0.069171 0.473919 0.798800 0.264693
O29   O     O_R   0.083208 0.292545 0.791811 -0.342287
O30   O     O_R   0.001986 0.528280 0.781579 -0.424055
N6    N     N_R   0.569167 0.526081 0.298793 0.264683
O31   O     O_R   0.583196 0.707443 0.291770 -0.342252
O32   O     O_R   0.501984 0.471722 0.281598 -0.424066
F3    F     F_    0.765196 0.047959 0.864582 -0.639732
F4    F     F_    0.265196 0.952041 0.364582 -0.639732

loop_
_geom_bond_atom_site_label_1
_geom_bond_atom_site_label_2
_geom_bond_distance
_ccdc_geom_bond_type
C28   C30   1.399298 A    
V4    O20   2.140112 S    
C38   F4    1.357879 S    
O13   V3    1.695664 S    
C40   N2    1.442780 S    
C33   C43   1.388101 A    
O4    C2    1.302428 A    
V1    O19   1.717639 S    
C1    C36   1.484676 S    
C11   N3    1.431466 S    
N3    O25   1.300679 A    
C13   C15   1.408680 A    
N5    O30   1.300622 A    
O9    V1    1.988875 S    
C2    C35   1.484675 S    
C19   C31   1.487578 S    
C12   C14   1.423445 A    
C42   C44   1.397672 A    
O3    C1    1.302428 A    
C16   C18   1.402297 A    
C44   C46   1.492054 S    
C27   H7    1.083252 S    
C8    C14   1.496439 S    
C21   F1    1.358970 S    
N6    O31   1.300774 A    
C35   C37   1.411789 A    
C21   C31   1.404693 A    
C17   H5    1.083208 S    
C29   H9    1.083362 S    
O7    C3    1.303936 A    
C30   H10   1.083361 S    
O13   V1    2.171531 S    
O5    C7    1.293045 A    
O7    V1    1.993271 S    
O6    C8    1.293043 A    
O8    V2    1.993272 S    
C37   F3    1.357878 S    
C46   H14   1.108095 S    
O3    V1    1.981328 S    
O14   V4    1.695666 S    
C15   H3    1.082228 S    
C10   H2    1.084123 S    
C46   H12   1.111651 S    
C3    C26   1.491962 S    
C47   H17   1.111713 S    
C1    O11   1.294800 A    
C4    C25   1.491960 S    
C2    O12   1.294800 A    
C34   C44   1.388102 A    
C39   C41   1.429457 A    
C16   H4    1.082228 S    
O1    V3    1.992953 S    
N3    O26   1.299743 A    
C22   C24   1.411000 A    
O11   V3    2.008198 S    
C18   H6    1.083208 S    
C23   C25   1.421903 A    
O17   V3    1.992948 S    
C24   C26   1.421911 A    
C10   C20   1.399813 A    
C30   C32   1.403490 A    
C39   N1    1.442780 S    
C38   C40   1.426207 A    
O8    C4    1.303936 A    
C7    C13   1.496439 S    
N1    O21   1.301018 A    
C37   C39   1.426206 A    
C6    C42   1.485015 S    
O15   V3    2.015735 S    
C9    C11   1.403735 A    
C33   C35   1.400283 A    
C29   C31   1.403493 A    
N1    O22   1.301515 A    
C41   C43   1.397673 A    
C17   C19   1.403451 A    
O10   V2    1.988873 S    
N4    O28   1.299742 A    
C43   C45   1.492054 S    
N2    O24   1.301017 A    
C20   C32   1.487578 S    
C47   H15   1.109462 S    
C40   C42   1.429456 A    
C12   N4    1.431465 S    
C33   C47   1.493155 S    
C25   C27   1.405514 A    
O16   C6    1.303324 A    
O1    C3    1.296161 A    
O12   V4    2.008199 S    
C45   H13   1.108095 S    
C22   C32   1.404692 A    
C45   C47   1.520801 S    
V2    O20   1.717639 S    
C18   C20   1.403450 A    
C22   F2    1.358970 S    
O16   V4    2.015737 S    
C10   C12   1.403734 A    
C5    C41   1.485016 S    
C14   C16   1.408678 A    
N6    O32   1.300614 A    
C27   C29   1.399300 A    
O5    V1    1.992017 S    
O17   C7    1.305774 A    
O6    V2    1.992020 S    
N5    O29   1.300791 A    
O10   C6    1.290088 A    
O18   C8    1.305774 A    
C48   H18   1.111713 S    
C24   N6    1.436634 S    
O2    V4    1.992951 S    
C34   C48   1.493156 S    
O15   C5    1.303323 A    
C11   C13   1.423444 A    
C45   H11   1.111652 S    
C48   H16   1.109463 S    
O9    C5    1.290088 A    
N4    O27   1.300679 A    
C9    H1    1.084122 S    
C46   C48   1.520801 S    
C26   C28   1.405517 A    
O14   V2    2.171530 S    
N2    O23   1.301516 A    
O2    C4    1.296161 A    
O4    V2    1.981327 S    
C23   N5    1.436621 S    
V3    O19   2.140112 S    
C9    C19   1.399814 A    
C34   C36   1.400284 A    
C15   C17   1.402295 A    
C36   C38   1.411788 A    
C21   C23   1.410994 A    
C28   H8    1.083251 S    
O18   V4    1.992949 S    
