data_mof_unit_31846.cif
_audit_creation_date              2012-12-11T14:04:18-0500
_audit_creation_method            fapswitch 2.2
_symmetry_space_group_name_H-M    P1
_symmetry_Int_Tables_number       1
_space_group_crystal_system       triclinic
_cell_length_a                    18.938062
_cell_length_b                    10.971048
_cell_length_c                    18.673633
_cell_angle_alpha                 90.596992
_cell_angle_beta                  90.009962
_cell_angle_gamma                 89.474847
_cell_volume                      3879.4543812

loop_
_atom_site_label
_atom_site_type_symbol
_atom_type_description
_atom_site_fract_x
_atom_site_fract_y
_atom_site_fract_z
_atom_type_partial_charge
C1    C     C_R   0.239865 0.466481 0.646805 0.563735
C2    C     C_R   0.994178 0.657732 0.574340 -0.033800
C3    C     C_R   0.507801 0.168627 0.424423 -0.041624
C4    C     C_R   0.494177 0.157732 0.574341 -0.033796
C5    C     C_R   0.995637 0.894141 0.433278 -0.068352
C6    C     C_R   0.964600 0.875628 0.578638 -0.084767
C7    C     C_R   0.495635 0.394140 0.433279 -0.068347
C8    C     C_R   0.464596 0.375625 0.578638 -0.084749
C9    C     C_R   0.974841 0.997227 0.472485 -0.126662
C10   C     C_R   0.957631 0.987305 0.544616 -0.131430
C11   C     C_R   0.474837 0.497225 0.472486 -0.126656
C12   C     C_R   0.773316 0.514885 0.362559 0.561778
C13   C     C_R   0.457626 0.487302 0.544616 -0.131428
C14   C     C_R   0.986042 0.770548 0.539994 0.006925
C15   C     C_R   0.996888 0.777747 0.465125 0.010821
C16   C     C_R   0.486040 0.270547 0.539995 0.006930
C17   C     C_R   0.496887 0.277746 0.465126 0.010822
C18   C     C_R   0.999387 0.549685 0.532094 0.019742
C19   C     C_R   0.020491 0.558433 0.460549 0.010085
C20   C     C_R   0.499385 0.049685 0.532095 0.019741
C21   C     C_R   0.520490 0.058431 0.460550 0.010087
C22   C     C_R   0.987024 0.432255 0.559955 -0.083680
C23   C     C_R   0.739878 0.966442 0.646835 0.563772
C24   C     C_R   0.046120 0.452791 0.424635 -0.066391
C25   C     C_R   0.487016 0.932256 0.559956 -0.083692
C26   C     C_R   0.546115 0.952787 0.424637 -0.066406
C27   C     C_R   0.007040 0.327893 0.521755 -0.152706
C28   C     C_R   0.038626 0.338228 0.454966 -0.130204
C29   C     C_R   0.507023 0.827892 0.521754 -0.152716
C30   C     C_R   0.538610 0.838224 0.454965 -0.130226
C31   C     C_2   0.221599 0.847736 0.935827 -0.104055
C32   C     C_2   0.742267 0.937769 0.086529 -0.101993
C33   C     C_2   0.721599 0.347736 0.935827 -0.104054
C34   C     C_R   0.273315 0.014883 0.362559 0.561773
C35   C     C_2   0.242267 0.437769 0.086529 -0.101993
C36   C     C_2   0.242239 0.884370 0.089540 -0.100340
C37   C     C_2   0.727468 0.989144 0.933733 -0.100163
C38   C     C_2   0.742239 0.384370 0.089540 -0.100339
C39   C     C_2   0.227468 0.489144 0.933733 -0.100168
C40   C     C_R   0.228794 0.879071 0.650151 0.576195
C41   C     C_R   0.772708 0.874651 0.352529 0.548711
C42   C     C_R   0.728794 0.379072 0.650151 0.576200
C43   C     C_R   0.272702 0.374662 0.352524 0.548703
C44   C     C_2   0.179651 0.897714 0.056457 -0.139678
C45   C     C_2   0.308493 0.894966 0.548528 -0.165930
C46   C     C_2   0.767314 0.055870 0.978116 -0.165541
C47   C     C_2   0.679651 0.397714 0.056457 -0.139678
C48   C     C_2   0.267314 0.555870 0.978116 -0.165542
C49   C     C_2   0.168024 0.859992 0.981944 -0.164649
C50   C     C_2   0.780491 0.021453 0.052342 -0.149964
C51   C     C_2   0.668024 0.359992 0.981944 -0.164649
C52   C     C_2   0.280491 0.521453 0.052342 -0.149963
C53   C     C_2   0.990406 0.664149 0.917926 -0.091382
C54   C     C_2   0.936155 0.653384 0.064481 -0.115743
C55   C     C_2   0.490406 0.164150 0.917926 -0.091380
C56   C     C_2   0.712121 0.839542 0.463576 -0.164136
C57   C     C_2   0.436155 0.153384 0.064481 -0.115742
C58   C     C_2   0.938314 0.556874 0.018828 0.073561
C59   C     C_2   0.946773 0.576970 0.941083 0.092608
C60   C     C_2   0.438314 0.056874 0.018828 0.073560
C61   C     C_2   0.446773 0.076970 0.941083 0.092608
C62   C     C_R   0.026595 0.654114 0.646444 0.540054
C63   C     C_R   0.973600 0.656173 0.353357 0.531924
C64   C     C_R   0.526595 0.154114 0.646445 0.540059
C65   C     C_R   0.473600 0.156173 0.353357 0.531928
C66   C     C_R   0.224249 0.518493 0.858536 0.543135
C67   C     C_2   0.808494 0.394969 0.548528 -0.165928
C68   C     C_R   0.759749 0.461150 0.150999 0.567431
C69   C     C_R   0.724249 0.018493 0.858536 0.543128
C70   C     C_R   0.259749 0.961150 0.150999 0.567431
C71   C     C_R   0.208282 0.825666 0.860566 0.551684
C72   C     C_R   0.771181 0.876672 0.148717 0.549337
C73   C     C_R   0.708282 0.325666 0.860566 0.551684
C74   C     C_R   0.271181 0.376672 0.148717 0.549333
C75   C     C_R   0.027162 0.653387 0.849739 0.554211
C76   C     C_R   0.933832 0.646453 0.142760 0.593926
C77   C     C_R   0.527162 0.153387 0.849739 0.554213
C78   C     C_2   0.212125 0.339549 0.463561 -0.164130
C79   C     C_R   0.433832 0.146453 0.142760 0.593927
C80   C     C_2   0.256787 0.943098 0.589016 -0.107042
C81   C     C_2   0.751018 0.914735 0.423390 -0.107551
C82   C     C_2   0.756788 0.443100 0.589017 -0.107047
C83   C     C_2   0.250991 0.414766 0.423374 -0.107560
C84   C     C_2   0.264539 0.975116 0.435695 -0.112449
C85   C     C_2   0.754852 0.905594 0.579456 -0.118637
C86   C     C_2   0.764540 0.475122 0.435696 -0.112436
C87   C     C_2   0.254837 0.405667 0.579421 -0.118658
C88   C     C_2   0.319509 0.937258 0.475223 -0.163855
C89   C     C_R   0.007802 0.668628 0.424422 -0.041628
C90   C     C_2   0.702157 0.861613 0.539767 -0.162518
C91   C     C_2   0.819510 0.437262 0.475224 -0.163855
C92   C     C_2   0.202161 0.361624 0.539748 -0.162542
Cr1   Cr    Cr6+3 0.113970 0.508630 0.747920 1.047046
Cr2   Cr    Cr6+3 0.887700 0.820070 0.250200 1.017044
Cr3   Cr    Cr6+3 0.612300 0.320070 0.749800 1.031046
Cr4   Cr    Cr6+3 0.387700 0.320070 0.250200 1.017046
Cr5   Cr    Cr6+3 0.886030 0.508630 0.252080 1.043819
Cr6   Cr    Cr6+3 0.613970 0.008630 0.747920 1.047036
Cr7   Cr    Cr6+3 0.386030 0.008630 0.252080 1.043819
Cr8   Cr    Cr6+3 0.269200 0.666740 0.749850 1.040621
Cr9   Cr    Cr6+3 0.730800 0.666740 0.250150 1.016797
Cr10  Cr    Cr6+3 0.769200 0.166740 0.749850 1.040616
Cr11  Cr    Cr6+3 0.230800 0.166740 0.250150 1.016794
Cr12  Cr    Cr6+3 0.112300 0.820070 0.749800 1.031039
H1    H     H_    0.371839 0.928520 0.451885 0.171145
H2    H     H_    0.697427 0.911598 0.951607 0.127309
H3    H     H_    0.783163 0.325105 0.067800 0.125924
H4    H     H_    0.197427 0.411598 0.951607 0.127310
H5    H     H_    0.276018 0.854022 0.953103 0.147256
H6    H     H_    0.692386 0.905182 0.065714 0.121128
H7    H     H_    0.776018 0.354022 0.953103 0.147256
H8    H     H_    0.192386 0.405182 0.065714 0.121128
H9    H     H_    0.932545 0.744819 0.042869 0.083801
H10   H     H_    0.011296 0.731946 0.954665 0.060636
H11   H     H_    0.432545 0.244819 0.042869 0.083801
H12   H     H_    0.650136 0.847166 0.562288 0.171997
H13   H     H_    0.511296 0.231946 0.954665 0.060636
H14   H     H_    0.339124 0.816832 0.566451 0.146763
H15   H     H_    0.687802 0.758601 0.440918 0.149073
H16   H     H_    0.839125 0.316835 0.566452 0.146768
H17   H     H_    0.187850 0.258566 0.440912 0.149086
H18   H     H_    0.211348 0.977837 0.457517 0.112263
H19   H     H_    0.807485 0.914593 0.557028 0.118539
H20   H     H_    0.711350 0.477845 0.457518 0.112267
H21   H     H_    0.307457 0.414737 0.556982 0.118557
H22   H     H_    0.228359 0.024359 0.572101 0.109604
H23   H     H_    0.871840 0.428522 0.451885 0.171138
H24   H     H_    0.774731 0.996189 0.446220 0.114156
H25   H     H_    0.728360 0.524361 0.572102 0.109610
H26   H     H_    0.274664 0.496257 0.446196 0.114130
H27   H     H_    0.971291 0.084684 0.446486 0.110789
H28   H     H_    0.939029 0.066086 0.574615 0.111705
H29   H     H_    0.471286 0.584682 0.446487 0.110785
H30   H     H_    0.439023 0.566082 0.574615 0.111699
H31   H     H_    0.011343 0.906861 0.378213 0.137511
H32   H     H_    0.950363 0.870842 0.634688 0.130309
H33   H     H_    0.511342 0.406861 0.378214 0.137510
H34   H     H_    0.150160 0.347078 0.562288 0.171965
H35   H     H_    0.450358 0.370839 0.634689 0.130318
H36   H     H_    0.069245 0.458521 0.371719 0.135181
H37   H     H_    0.961808 0.420585 0.611433 0.145206
H38   H     H_    0.569241 0.958514 0.371721 0.135185
H39   H     H_    0.461801 0.920590 0.611434 0.145210
H40   H     H_    0.999963 0.239418 0.545077 0.108503
H41   H     H_    0.056053 0.257471 0.426022 0.107853
H42   H     H_    0.499939 0.739418 0.545074 0.108508
H43   H     H_    0.556030 0.757464 0.426018 0.107845
H44   H     H_    0.137173 0.949922 0.081510 0.167593
H45   H     H_    0.114001 0.856649 0.962642 0.140385
H46   H     H_    0.797923 0.130894 0.957362 0.156436
H47   H     H_    0.637173 0.449922 0.081510 0.167593
H48   H     H_    0.297923 0.630894 0.957362 0.156435
H49   H     H_    0.828124 0.058008 0.076493 0.173386
H50   H     H_    0.614001 0.356649 0.962642 0.140386
H51   H     H_    0.328124 0.558008 0.076493 0.173386
H52   H     H_    0.283163 0.825105 0.067800 0.125924
I1    I     I_    0.942643 0.370161 0.051230 -0.352990
I2    I     I_    0.896996 0.455630 0.867000 -0.299968
I3    I     I_    0.442643 0.870161 0.051230 -0.352992
I4    I     I_    0.396996 0.955630 0.867000 -0.299962
O1    O     O_R   0.043230 0.549300 0.667990 -0.514410
O2    O     O_R   0.832470 0.905110 0.169660 -0.519051
O3    O     O_R   0.667530 0.405110 0.830340 -0.480982
O4    O     O_R   0.332470 0.405110 0.169660 -0.519054
O5    O     O_R   0.054010 0.748440 0.822860 -0.525936
O6    O     O_R   0.945990 0.748440 0.177140 -0.500026
O7    O     O_R   0.554010 0.248440 0.822860 -0.525935
O8    O     O_R   0.445990 0.248440 0.177140 -0.500026
O9    O     O_3   0.165160 0.665150 0.749190 -0.297810
O10   O     O_3   0.834840 0.665150 0.250810 -0.291396
O11   O     O_3   0.665160 0.165150 0.749190 -0.297803
O12   O     O_R   0.956770 0.549300 0.332010 -0.521932
O13   O     O_3   0.334840 0.165150 0.250810 -0.291391
O14   O     O_R   0.178620 0.457600 0.674100 -0.485609
O15   O     O_R   0.821380 0.457600 0.325900 -0.487623
O16   O     O_R   0.678620 0.957600 0.674100 -0.485640
O17   O     O_R   0.321380 0.957600 0.325900 -0.487623
O18   O     O_R   0.284680 0.542100 0.669460 -0.518590
O19   O     O_R   0.715320 0.542100 0.330540 -0.521963
O20   O     O_R   0.784680 0.042100 0.669460 -0.518605
O21   O     O_R   0.215320 0.042100 0.330540 -0.521966
O22   O     O_R   0.262860 0.790390 0.676650 -0.487582
O23   O     O_R   0.543230 0.049300 0.667990 -0.514409
O24   O     O_R   0.737140 0.790390 0.323350 -0.515241
O25   O     O_R   0.762860 0.290390 0.676650 -0.487569
O26   O     O_R   0.237140 0.290390 0.323350 -0.515248
O27   O     O_R   0.167460 0.907030 0.670940 -0.503643
O28   O     O_R   0.832540 0.907030 0.329060 -0.505498
O29   O     O_R   0.667460 0.407030 0.670940 -0.503643
O30   O     O_R   0.332540 0.407030 0.329060 -0.505484
O31   O     O_R   0.053950 0.750220 0.675100 -0.495121
O32   O     O_R   0.946050 0.750220 0.324900 -0.502377
O33   O     O_R   0.553950 0.250220 0.675100 -0.495118
O34   O     O_R   0.456770 0.049300 0.332010 -0.521930
O35   O     O_R   0.446050 0.250220 0.324900 -0.502373
O36   O     O_R   0.043300 0.547370 0.827390 -0.475558
O37   O     O_R   0.956700 0.547370 0.172610 -0.467934
O38   O     O_R   0.543300 0.047370 0.827390 -0.475557
O39   O     O_R   0.456700 0.047370 0.172610 -0.467934
O40   O     O_R   0.178690 0.455820 0.821860 -0.484394
O41   O     O_R   0.821310 0.455820 0.178140 -0.489127
O42   O     O_R   0.678690 0.955820 0.821860 -0.484410
O43   O     O_R   0.321310 0.955820 0.178140 -0.489127
O44   O     O_R   0.284750 0.540170 0.828860 -0.496583
O45   O     O_R   0.262920 0.788600 0.824420 -0.481961
O46   O     O_R   0.715250 0.540170 0.171140 -0.506633
O47   O     O_R   0.784750 0.040170 0.828860 -0.496601
O48   O     O_R   0.215250 0.040170 0.171140 -0.506632
O49   O     O_R   0.737080 0.788600 0.175580 -0.491454
O50   O     O_R   0.762920 0.288600 0.824420 -0.481962
O51   O     O_R   0.237080 0.288600 0.175580 -0.491455
O52   O     O_R   0.167530 0.905110 0.830340 -0.480980

loop_
_geom_bond_atom_site_label_1
_geom_bond_atom_site_label_2
_ccdc_geom_bond_type
C44   C49   S    
C45   H14   S    
C21   C26   A    
C35   C74   S    
C1    C87   S    
C8    C13   A    
Cr5   O15   S    
C37   C69   S    
C2    C18   A    
C43   C83   S    
C13   H30   S    
C57   C79   S    
C42   C82   S    
C60   I3    S    
C92   H34   S    
Cr2   O6    S    
C53   C59   D    
C56   C81   D    
C32   C72   S    
C40   O27   A    
C3    C65   S    
C24   H36   S    
C67   H16   S    
C7    C11   A    
Cr7   O34   S    
Cr1   O9    S    
C28   H41   S    
C51   H50   S    
Cr5   O12   S    
C32   H6    S    
C8    H35   S    
Cr9   O19   S    
C25   H39   S    
Cr2   O28   S    
Cr7   O17   S    
C86   C91   D    
C11   H29   S    
C55   H13   S    
C55   C77   S    
C59   I2    S    
C62   O1    A    
C15   C89   A    
C20   C25   A    
C50   H49   S    
C70   O48   A    
C63   O32   A    
C54   H9    S    
Cr1   O14   S    
Cr11  O13   S    
Cr10  O47   S    
Cr10  O20   S    
C34   O21   A    
C18   C19   A    
Cr4   O30   S    
Cr6   O23   S    
C78   H17   S    
C6    H32   S    
Cr12  O5    S    
C64   O23   A    
C78   C83   D    
Cr4   O35   S    
C43   O30   A    
C16   C17   A    
C7    C17   A    
Cr4   O8    S    
C41   O24   A    
C76   O6    A    
C33   H7    S    
C90   H12   S    
C79   O8    A    
Cr8   O22   S    
C9    C10   A    
Cr2   O2    S    
C66   O44   A    
C75   O36   A    
C56   C90   S    
C68   O41   A    
Cr8   O18   S    
C69   O42   A    
Cr3   O33   S    
Cr11  O21   S    
C87   C92   D    
C53   C75   S    
Cr11  O26   S    
C34   C84   S    
C31   C49   D    
Cr8   O44   S    
C67   C91   S    
C36   C70   S    
C40   O22   A    
C47   H47   S    
C9    H27   S    
C25   C29   A    
C39   H4    S    
C1    O14   A    
C69   O47   A    
Cr10  O25   S    
C79   O39   A    
Cr4   O13   S    
Cr6   O38   S    
Cr5   O37   S    
C73   O50   A    
C30   H43   S    
C45   C88   S    
Cr11  O48   S    
C83   H26   S    
C57   H11   S    
C61   I4    S    
Cr11  O51   S    
C29   H42   S    
C7    H33   S    
Cr10  O50   S    
C57   C60   D    
C47   C51   S    
C23   O16   A    
C43   O26   A    
Cr9   O49   S    
C58   C59   S    
Cr12  O31   S    
Cr5   O10   S    
Cr4   O4    S    
C41   O28   A    
C60   C61   S    
C52   H51   S    
C4    C16   A    
C5    C9    A    
C29   C30   A    
C19   C89   A    
Cr3   O3    S    
C38   H3    S    
C6    C14   A    
Cr6   O16   S    
C1    O18   A    
C72   O49   A    
Cr7   O13   S    
Cr1   O1    S    
C85   C90   D    
C41   C81   S    
C64   O33   A    
C63   C89   S    
C40   C80   S    
C27   H40   S    
C31   H5    S    
Cr9   O10   S    
C75   O5    A    
Cr10  O11   S    
C82   H25   S    
C32   C50   D    
C38   C47   D    
Cr9   O24   S    
C91   H23   S    
C12   O15   A    
C54   C76   S    
Cr6   O11   S    
C42   O25   A    
C33   C73   S    
C46   H46   S    
C38   C68   S    
C26   C30   A    
C22   C27   A    
C48   H48   S    
C81   H24   S    
C86   H20   S    
C39   C66   S    
C56   H15   S    
C36   C44   D    
Cr1   O36   S    
C77   O7    A    
Cr12  O52   S    
Cr1   O40   S    
C87   H21   S    
C53   H10   S    
C36   H52   S    
C24   C28   A    
C65   O34   A    
C54   C58   D    
C70   O43   A    
C5    H31   S    
Cr12  O27   S    
C46   C50   S    
C35   C52   D    
Cr7   O43   S    
Cr8   O9    S    
C18   C22   A    
C84   H18   S    
C85   H19   S    
Cr6   O42   S    
C84   C88   D    
C77   O38   A    
Cr5   O41   S    
C58   I1    S    
Cr3   O7    S    
C6    C10   A    
C71   O45   A    
Cr8   O45   S    
C62   O31   A    
C49   H45   S    
C33   C51   D    
C23   O20   A    
C4    C64   S    
C12   C86   S    
C74   O51   A    
C76   O37   A    
C78   C92   S    
C19   C24   A    
C37   H2    S    
C73   O3    A    
Cr2   O10   S    
C74   O4    A    
C88   H1    S    
C11   C13   A    
C42   O29   A    
C63   O12   A    
C68   O46   A    
C80   H22   S    
C55   C61   D    
C22   H37   S    
C31   C71   S    
C44   H44   S    
C3    C17   A    
C45   C80   D    
C2    C14   A    
Cr2   O32   S    
C5    C15   A    
C3    C21   A    
Cr9   O46   S    
Cr3   O29   S    
C4    C20   A    
C10   H28   S    
C48   C52   S    
C12   O19   A    
C20   C21   A    
C67   C82   D    
C8    C16   A    
C71   O52   A    
C23   C85   S    
Cr7   O39   S    
C27   C28   A    
C72   O2    A    
C14   C15   A    
C39   C48   D    
C34   O17   A    
C37   C46   D    
C26   H38   S    
Cr3   O11   S    
C66   O40   A    
C35   H8    S    
C2    C62   S    
Cr12  O9    S    
C65   O35   A    
