data_mof_unit_43345.cif
_audit_creation_date              2012-12-10T17:57:23-0500
_audit_creation_method            fapswitch 2.2
_symmetry_space_group_name_H-M    P1
_symmetry_Int_Tables_number       1
_space_group_crystal_system       triclinic
_cell_length_a                    9.542188
_cell_length_b                    10.797113
_cell_length_c                    13.445622
_cell_angle_alpha                 90.502049
_cell_angle_beta                  72.858953
_cell_angle_gamma                 89.874698
_cell_volume                      1323.67828521

loop_
_atom_site_label
_atom_site_type_symbol
_atom_type_description
_atom_site_fract_x
_atom_site_fract_y
_atom_site_fract_z
_atom_type_partial_charge
C1    C     C_R   0.501923 0.737651 0.495602 0.832663
C2    C     C_R   0.445403 0.569341 0.975576 0.003361
C3    C     C_R   0.490126 0.567635 0.865170 0.078295
C4    C     C_R   0.552882 0.547001 0.028090 0.115487
C5    C     C_R   0.701409 0.531686 0.968854 0.078396
C6    C     C_R   0.745196 0.558510 0.863470 -0.193532
C7    C     C_R   0.640883 0.582228 0.813519 -0.150958
C8    C     C_R   0.517693 0.533796 0.136389 -0.277072
C9    C     C_R   0.767992 0.468778 0.121574 0.467682
C10   C     C_R   0.382717 0.553616 0.811025 -0.183061
C11   C     C_R   0.627744 0.937588 0.430977 0.397742
C12   C     C_R   0.423251 0.516733 0.699021 0.810512
C13   C     C_R   0.626013 0.066159 0.437554 -0.176668
C14   C     C_R   0.501030 0.128764 0.497351 -0.111776
C15   C     C_R   0.376084 0.063798 0.551705 -0.155258
C16   C     C_R   0.378037 0.935659 0.549428 -0.213742
C17   C     C_R   0.503730 0.871734 0.490912 -0.149202
C18   C     C_R   0.908334 0.597151 0.541659 -0.076619
C19   C     C_R   0.056537 0.596789 0.542265 -0.030284
C20   C     C_R   0.092311 0.403031 0.458398 -0.126892
C21   C     C_R   0.943847 0.402275 0.459412 0.750142
C22   C     C_R   0.499998 0.262356 0.500013 0.834039
C23   C     C_R   0.578587 0.496318 0.299535 0.888087
C24   C     C_R   0.805323 0.489556 0.014850 -0.157502
C25   C     C_R   0.624089 0.498770 0.184511 -0.177723
C26   C     C_R   0.235023 0.575576 0.865838 -0.295869
C27   C     C_R   0.194375 0.603014 0.972083 0.703253
C28   C     C_R   0.296126 0.593259 0.027643 -0.218939
Cu1   Cu    Cu3+1 0.359340 0.499980 0.500000 0.964191
Cu2   Cu    Cu3+1 0.640660 0.500020 0.500000 1.082087
H1    H     H_    0.720361 0.118094 0.393364 0.259806
H2    H     H_    0.278513 0.112133 0.597680 0.164112
H3    H     H_    0.281948 0.886293 0.594776 0.162323
H4    H     H_    0.839377 0.675603 0.574704 0.158413
H5    H     H_    0.097484 0.674332 0.576676 0.142936
H6    H     H_    0.162338 0.325432 0.424294 0.170914
H7    H     H_    0.860346 0.560130 0.819219 0.139168
H8    H     H_    0.915449 0.469313 0.966047 0.189917
H9    H     H_    0.407094 0.549256 0.184865 0.178475
H10   H     H_    0.151492 0.574752 0.826041 0.164066
H11   H     H_    0.255937 0.609528 0.110413 0.168691
H12   H     H_    0.681253 0.614890 0.735097 0.158217
N1    N     N_R   0.147940 0.499970 0.499970 -0.198505
N2    N     N_R   0.852060 0.500060 0.499990 -0.205585
O1    O     O_R   0.381250 0.680340 0.500010 -0.594785
O2    O     O_R   0.618820 0.680370 0.500010 -0.552813
O3    O     O_R   0.323240 0.499950 0.650980 -0.582832
O4    O     O_R   0.560810 0.499980 0.650980 -0.604840
O5    O     O_R   0.381180 0.319630 0.499990 -0.597992
O6    O     O_R   0.618750 0.319660 0.499990 -0.517641
O7    O     O_R   0.439190 0.500020 0.349020 -0.599199
O8    O     O_R   0.676760 0.500050 0.349020 -0.460271
S1    S     S_3+6 0.901252 0.396302 0.169537 0.067063
O9    O     O_2   0.830675 0.292279 0.239810 -0.235758
O10   O     O_2   0.024026 0.344348 0.081221 -0.307276
O11   O     O_3   0.970071 0.500996 0.235652 -0.457472
H13   H     H_    0.064722 0.465333 0.238092 0.351324
F1    F     F_    0.894385 0.302523 0.418952 -0.627191
F2    F     F_    0.055144 0.638592 0.022286 -0.644978
S2    S     S_3+6 0.781430 0.865691 0.341250 0.044426
O12   O     O_2   0.881858 0.815500 0.398859 -0.287998
O13   O     O_2   0.731933 0.761918 0.284667 -0.272534
O14   O     O_3   0.873716 0.969500 0.253843 -0.481682
H14   H     H_    0.957538 0.922624 0.207644 0.398663

loop_
_geom_bond_atom_site_label_1
_geom_bond_atom_site_label_2
_ccdc_geom_bond_type
C24   H8    S    
C9    C24   A    
C6    C7    A    
C8    H9    S    
C18   N2    A    
C16   H3    S    
C21   N2    A    
C11   C13   A    
C1    C17   S    
C22   O6    A    
C12   O4    A    
C1    O1    A    
C14   C22   S    
S1    O10   D    
C2    C3    A    
C23   O8    A    
C6    H7    S    
C9    C25   A    
C15   H2    S    
C3    C10   A    
C27   F2    S    
C13   C14   A    
Cu1   O5    S    
C8    C25   A    
C18   H4    S    
Cu2   N2    S    
C26   H10   S    
C26   C27   A    
Cu1   Cu2   S    
C5    C24   A    
C10   C12   S    
Cu1   O3    S    
C12   O3    A    
C2    C4    A    
Cu2   O4    S    
C19   N1    A    
C3    C7    A    
C11   S2    S    
C22   O5    A    
Cu2   O6    S    
C5    C6    A    
C13   H1    S    
S2    O14   S    
C1    O2    A    
S1    O11   S    
C9    S1    S    
O11   H13   S    
C15   C16   A    
C20   H6    S    
C28   H11   S    
C21   F1    S    
C20   N1    A    
C20   C21   A    
S2    O13   D    
C18   C19   A    
Cu1   O7    S    
C7    H12   S    
C4    C8    A    
C19   H5    S    
Cu2   O8    S    
C14   C15   A    
C11   C17   A    
C2    C28   A    
S2    O12   D    
C23   C25   S    
S1    O9    D    
C4    C5    A    
C23   O7    A    
Cu2   O2    S    
C10   C26   A    
Cu1   N1    S    
O14   H14   S    
Cu1   O1    S    
C16   C17   A    
C27   C28   A    
