data_mof_unit_20802.cif
_audit_creation_date              2013-03-05T16:41:05-0500
_audit_creation_method            fapswitch 2.2
_symmetry_space_group_name_H-M    P1
_symmetry_Int_Tables_number       1
_space_group_crystal_system       triclinic
_cell_length_a                    8.57565
_cell_length_b                    10.641549
_cell_length_c                    9.924695
_cell_angle_alpha                 89.374589
_cell_angle_beta                  98.496809
_cell_angle_gamma                 90.280446
_cell_volume                      895.710516359

loop_
_atom_site_label
_atom_site_type_symbol
_atom_site_description
_atom_site_fract_x
_atom_site_fract_y
_atom_site_fract_z
_atom_type_partial_charge
O1    O     O_R   0.500020 0.316790 0.614690 -0.614589
O2    O     O_R   0.500000 0.316760 0.385350 -0.595412
C1    C     C_R   0.504584 0.260517 0.501399 0.936226
O3    O     O_R   0.271760 0.500010 0.587850 -0.629212
O4    O     O_R   0.271740 0.499970 0.358500 -0.624327
C2    C     C_R   0.201452 0.499854 0.464317 0.919000
Zn1   Zn    Zn3+2 0.500010 0.500020 0.653130 1.014714
Zn2   Zn    Zn3+2 0.499990 0.499980 0.346870 1.036690
O5    O     O_R   0.500000 0.683240 0.614650 -0.584162
O6    O     O_R   0.499980 0.683210 0.385310 -0.586781
O7    O     O_R   0.728260 0.500030 0.641500 -0.593412
O8    O     O_R   0.728240 0.499990 0.412150 -0.574592
C3    C     C_R   0.500030 0.739463 0.499543 0.901972
C4    C     C_R   0.798502 0.501897 0.535605 1.028227
C5    C     C_2   0.036229 0.497913 0.445256 -0.280376
H1    H     H_    0.974842 0.488022 0.341892 0.218104
C6    C     C_2   0.963648 0.505946 0.554288 -0.335487
H2    H     H_    0.024922 0.516308 0.657395 0.177266
C7    C     C_R   0.423005 0.063271 0.585500 0.095210
C8    C     C_R   0.519127 0.128540 0.507504 -0.225287
C9    C     C_R   0.629547 0.064377 0.441044 0.294688
C10   C     C_R   0.622514 0.933722 0.438689 -0.204867
H3    H     H_    0.704740 0.881150 0.388455 0.233957
C11   C     C_R   0.509070 0.871230 0.502051 -0.147365
C12   C     C_R   0.418748 0.935232 0.583449 0.202393
C13   C     C_3   0.244463 0.930335 0.582149 -0.456093
C14   C     C_3   0.248725 0.072718 0.583864 -0.442503
H4    H     H_    0.180037 0.891236 0.486100 0.215710
H5    H     H_    0.212691 0.887792 0.677275 0.233099
H6    H     H_    0.186966 0.116871 0.488714 0.229530
H7    H     H_    0.218080 0.112062 0.679603 0.214602
C15   C     C_R   0.436485 0.401724 0.064235 0.171223
N1    N     N_R   0.498950 0.499140 0.142680 -0.183415
C16   C     C_R   0.575319 0.591906 0.080273 0.244723
C17   C     C_R   0.576857 0.591135 0.936621 0.240928
N2    N     N_R   0.498950 0.499180 0.857030 -0.185835
C18   C     C_R   0.435883 0.401965 0.922206 0.160145
C19   C     C_3   0.268846 0.358139 0.897121 -0.457191
C20   C     C_3   0.270073 0.357249 0.050250 -0.437765
H8    H     H_    0.188114 0.429627 0.843300 0.216577
H9    H     H_    0.257641 0.262779 0.852641 0.209088
H10   H     H_    0.189645 0.427940 0.084460 0.226389
H11   H     H_    0.260709 0.261299 0.093807 0.224086
N3    N     N_R   0.661876 0.686709 0.875814 0.255916
O9    O     O_R   0.607788 0.800925 0.864882 -0.334410
O10   O     O_R   0.806585 0.665951 0.857747 -0.373254
N4    N     N_R   0.746617 0.129089 0.376372 0.215097
O11   O     O_R   0.819316 0.226640 0.433581 -0.434104
O12   O     O_R   0.797816 0.079956 0.271705 -0.337882
N5    N     N_R   0.650721 0.692575 0.158677 0.247053
O13   O     O_R   0.795794 0.680035 0.217191 -0.390346
O14   O     O_R   0.588675 0.804117 0.145392 -0.333948

loop_
_geom_bond_atom_site_label_1
_geom_bond_atom_site_label_2
_geom_bond_distance
_ccdc_geom_bond_type
O4    Zn2   1.977743 S    
N5    O14   1.300558 A    
C11   C12   1.385119 A    
C5    C6    1.329376 D    
C18   C19   1.490639 S    
C7    C14   1.496112 S    
Zn1   N2    2.024930 S    
C13   H4    1.112578 S    
N4    O11   1.300237 A    
Zn2   O8    1.968853 S    
C15   N1    1.362600 A    
C6    H2    1.085558 S    
C2    C5    1.401572 S    
C1    C8    1.410429 S    
N4    O12   1.301582 A    
O1    Zn1   1.990910 S    
C15   C18   1.408815 A    
N3    O9    1.300752 A    
C14   H6    1.112649 S    
Zn1   O7    1.977743 S    
C17   N3    1.428124 S    
C4    C6    1.401401 S    
C13   C14   1.515659 S    
C19   C20   1.518175 S    
C19   H9    1.109130 S    
O3    Zn1   1.968853 S    
Zn2   O6    1.990909 S    
N2    C18   1.365452 A    
C19   H8    1.109222 S    
N3    O10   1.300105 A    
N1    C16   1.373768 A    
C20   H10   1.112093 S    
O2    C1    1.287671 A    
Zn2   N1    2.025342 S    
O4    C2    1.285803 A    
C7    C12   1.363142 A    
O7    C4    1.286200 A    
C10   C11   1.396230 A    
C16   N5    1.426172 S    
C14   H7    1.109395 S    
C5    H1    1.087579 S    
C8    C9    1.413741 A    
C13   H5    1.111747 S    
O3    C2    1.283845 A    
C16   C17   1.427828 A    
C15   C20   1.488674 S    
Zn1   O5    1.982698 S    
C9    N4    1.438094 S    
O5    C3    1.283823 A    
C10   H3    1.082867 S    
C20   H11   1.111614 S    
N5    O13   1.299716 A    
C12   C13   1.493411 S    
C9    C10   1.391688 A    
O6    C3    1.287774 A    
O2    Zn2   1.982697 S    
C7    C8    1.390080 A    
C3    C11   1.404251 S    
O8    C4    1.283346 A    
O1    C1    1.285414 A    
C17   N2    1.372006 A    
