data_mof_unit_11042.cif
_audit_creation_date              2012-10-26T20:22:33-0400
_audit_creation_method            fapswitch 2.2
_symmetry_space_group_name_H-M    P1
_symmetry_Int_Tables_number       1
_space_group_crystal_system       triclinic
_cell_length_a                    9.518088
_cell_length_b                    10.790791
_cell_length_c                    17.366909
_cell_angle_alpha                 90.065143
_cell_angle_beta                  86.000015
_cell_angle_gamma                 90.007189
_cell_volume                      1779.36909035

loop_
_atom_site_label
_atom_site_type_symbol
_atom_type_description
_atom_site_fract_x
_atom_site_fract_y
_atom_site_fract_z
_atom_type_partial_charge
C1    C     C_R   0.499729 0.737627 0.502344 0.526400
C2    C     C_R   0.080916 0.429059 0.448524 0.026882
C3    C     C_R   0.067908 0.570887 0.551467 0.026090
C4    C     C_R   0.932090 0.429108 0.448536 0.026166
C5    C     C_R   0.481716 0.502054 0.649895 0.540437
C6    C     C_R   0.518284 0.497951 0.350105 0.540399
C7    C     C_R   0.472444 0.509222 0.734097 0.014541
C8    C     C_R   0.527555 0.490819 0.265901 0.014478
C9    C     C_R   0.595623 0.525167 0.772839 -0.123029
C10   C     C_R   0.404355 0.474951 0.227154 -0.123084
C11   C     C_R   0.588549 0.532068 0.852705 -0.101159
C12   C     C_R   0.500268 0.262373 0.497681 0.526452
C13   C     C_R   0.411425 0.468097 0.147287 -0.101192
C14   C     C_R   0.458178 0.521441 0.895140 0.045042
C15   C     C_R   0.541812 0.478702 0.104855 0.045042
C16   C     C_R   0.334539 0.509521 0.856575 -0.105840
C17   C     C_R   0.665470 0.490548 0.143426 -0.105924
C18   C     C_R   0.341485 0.502976 0.776352 -0.122224
C19   C     C_R   0.658528 0.497041 0.223650 -0.122343
C20   C     C_2   0.448382 0.522631 0.979667 -0.129257
C21   C     C_2   0.551612 0.477542 0.020327 -0.129261
C22   C     C_2   0.691229 0.122728 0.386815 0.232138
C23   C     C_R   0.595272 0.932389 0.451817 -0.095961
C24   C     C_2   0.308980 0.877287 0.613322 0.232037
C25   C     C_R   0.404776 0.067621 0.548265 -0.095798
C26   C     C_R   0.595975 0.061172 0.446685 0.001647
C27   C     C_R   0.404095 0.938832 0.553405 0.001706
C28   C     C_R   0.500226 0.128449 0.496331 -0.039663
C29   C     C_R   0.499778 0.871553 0.503726 -0.039668
C30   C     C_R   0.919083 0.570940 0.551477 0.026849
Cu1   Cu    Cu3+1 0.359340 0.499980 0.500000 0.952366
Cu2   Cu    Cu3+1 0.640660 0.500020 0.500000 0.952514
H1    H     H_    0.697719 0.532995 0.741533 0.127459
H2    H     H_    0.685106 0.546864 0.880811 0.106268
H3    H     H_    0.666131 0.878396 0.413351 0.178107
H4    H     H_    0.333928 0.121632 0.586723 0.178322
H5    H     H_    0.857821 0.627939 0.592632 0.117363
H6    H     H_    0.142179 0.372058 0.407370 0.117413
H7    H     H_    0.118743 0.627775 0.592646 0.115856
H8    H     H_    0.881251 0.372210 0.407361 0.116178
H9    H     H_    0.676206 0.219126 0.371926 0.118036
H10   H     H_    0.323373 0.780658 0.627845 0.118359
H11   H     H_    0.302244 0.467146 0.258456 0.127456
H12   H     H_    0.755185 0.507818 0.252408 0.129368
H13   H     H_    0.244846 0.492140 0.747597 0.129397
H14   H     H_    0.647793 0.441499 0.991310 0.119634
H15   H     H_    0.352199 0.558676 0.008682 0.119632
H16   H     H_    0.233014 0.502839 0.888637 0.106164
H17   H     H_    0.767009 0.497207 0.111367 0.106146
H18   H     H_    0.314853 0.453352 0.119177 0.106242
N1    N     N_R   0.147930 0.499970 0.499980 -0.229240
N2    N     N_R   0.852070 0.500030 0.500020 -0.229265
O1    O     O_R   0.381260 0.680340 0.500000 -0.503411
O2    O     O_2   0.213809 0.934558 0.648184 -0.512110
O3    O     O_R   0.618740 0.319660 0.500000 -0.503156
O4    O     O_R   0.618830 0.680370 0.500010 -0.498145
O5    O     O_R   0.381170 0.319630 0.499990 -0.498208
O6    O     O_R   0.367440 0.500000 0.613600 -0.517316
O7    O     O_R   0.632560 0.500000 0.386400 -0.517307
O8    O     O_R   0.605010 0.500030 0.613600 -0.506999
O9    O     O_R   0.394990 0.499970 0.386400 -0.506996
O10   O     O_2   0.787339 0.065792 0.352512 -0.512030

loop_
_geom_bond_atom_site_label_1
_geom_bond_atom_site_label_2
_ccdc_geom_bond_type
C3    C30   A    
C2    C4    A    
C5    C7    S    
C7    C9    A    
C22   O10   D    
C24   H10   S    
Cu1   O9    S    
Cu2   O3    S    
C26   C28   A    
Cu1   Cu2   S    
Cu2   O7    S    
C24   C27   S    
C19   H12   S    
C7    C18   A    
C2    H6    S    
C16   H16   S    
C1    C29   S    
C3    H7    S    
Cu1   O1    S    
C25   C28   A    
C9    H1    S    
C9    C11   A    
Cu1   O5    S    
C27   C29   A    
C5    O6    A    
C12   C28   S    
C6    C8    S    
C12   O5    A    
C23   C29   A    
Cu1   O6    S    
C8    C10   A    
C17   C19   A    
C1    O4    A    
C4    N2    A    
C8    C19   A    
C23   H3    S    
C13   C15   A    
C11   C14   A    
C14   C16   A    
C22   H9    S    
C25   C27   A    
C2    N1    A    
Cu2   O8    S    
C25   H4    S    
C24   O2    D    
C13   H18   S    
C12   O3    A    
C18   H13   S    
C14   C20   S    
C15   C21   S    
C20   C21   D    
C6    O9    A    
C16   C18   A    
C21   H14   S    
C22   C26   S    
C23   C26   A    
C17   H17   S    
C15   C17   A    
C3    N1    A    
C1    O1    A    
Cu2   N2    S    
C30   N2    A    
C5    O8    A    
C10   H11   S    
C6    O7    A    
Cu2   O4    S    
C11   H2    S    
C20   H15   S    
C4    H8    S    
C30   H5    S    
Cu1   N1    S    
C10   C13   A    
