data_mof_unit_61326.cif
_audit_creation_date              2012-12-10T16:43:13-0500
_audit_creation_method            fapswitch 2.2
_symmetry_space_group_name_H-M    P1
_symmetry_Int_Tables_number       1
_space_group_crystal_system       triclinic
_cell_length_a                    18.424828
_cell_length_b                    18.455206
_cell_length_c                    18.445746
_cell_angle_alpha                 119.743173
_cell_angle_beta                  90.267555
_cell_angle_gamma                 119.833139
_cell_volume                      4453.084352

loop_
_atom_site_label
_atom_site_type_symbol
_atom_type_description
_atom_site_fract_x
_atom_site_fract_y
_atom_site_fract_z
_atom_type_partial_charge
C1    C     C_R   0.361246 0.002957 0.138744 0.528449
C2    C     C_2   0.809436 0.004794 0.697312 -0.091434
C3    C     C_2   0.723473 0.942380 0.779758 -0.153592
C4    C     C_R   0.638125 0.999663 0.861046 0.512057
C5    C     C_2   0.690489 0.998088 0.802689 -0.091058
C6    C     C_2   0.278330 0.444453 0.715692 -0.103924
C7    C     C_2   0.192186 0.387154 0.706223 0.101219
C8    C     C_2   0.336133 0.555969 0.779218 -0.126475
C9    C     C_2   0.305366 0.613096 0.797273 -0.066808
C10   C     C_2   0.266176 0.092805 0.324501 0.007802
C11   C     C_2   0.196105 0.004022 0.307674 -0.107135
C12   C     C_R   0.114162 0.805640 0.584347 -0.096417
C13   C     C_2   0.332419 0.090925 0.278821 0.001052
C14   C     C_2   0.303999 0.014248 0.192285 -0.137625
C15   C     C_2   0.776164 0.938328 0.218205 -0.153431
C16   C     C_R   0.639590 0.276918 0.138418 0.512737
C17   C     C_2   0.810972 0.006488 0.306196 -0.086003
C18   C     C_2   0.724404 0.942422 0.162213 -0.155865
C19   C     C_2   0.688994 0.995069 0.195355 -0.087657
C20   C     C_2   0.782740 0.555740 0.221718 -0.106709
C21   C     C_2   0.793542 0.612793 0.308146 0.104620
C22   C     C_2   0.719171 0.444198 0.164055 -0.129278
C23   C     C_R   0.180387 0.899135 0.664214 0.029825
C24   C     C_2   0.702376 0.386899 0.194406 -0.063128
C25   C     C_R   0.138405 0.277105 0.639878 0.516346
C26   C     C_R   0.860028 0.722909 0.361703 0.506679
C27   C     C_R   0.861820 0.000443 0.638983 0.513093
C28   C     C_R   0.361484 0.723048 0.860251 0.503332
C29   C     C_R   0.138731 0.000847 0.361656 0.560430
C30   C     C_R   0.861023 0.000740 0.360468 0.522477
C31   C     C_R   0.140023 0.998358 0.638471 0.490298
C32   C     C_R   0.638942 0.999297 0.139585 0.513864
C33   C     C_R   0.359852 0.998313 0.858324 0.494806
C34   C     C_R   0.234963 0.899117 0.718832 0.029197
C35   C     C_R   0.221385 0.805608 0.691637 -0.095719
C36   C     C_R   0.154477 0.714366 0.613524 -0.117319
C37   C     C_R   0.101068 0.714383 0.560090 -0.118144
C38   C     C_2   0.276513 0.191939 0.385024 0.613668
C39   C     C_2   0.427632 0.175221 0.330237 0.663939
C40   C     C_R   0.303717 0.993140 0.797191 0.025780
C41   C     C_R   0.320330 0.084957 0.817840 -0.142175
C42   C     C_R   0.267102 0.084976 0.764563 -0.142184
C43   C     C_R   0.196020 0.993178 0.689403 0.026919
C44   C     C_2   0.776811 0.939507 0.720711 -0.153088
H1    H     H_    0.373698 0.157131 0.876893 0.135289
H2    H     H_    0.805580 0.070197 0.340569 0.108693
H3    H     H_    0.714265 0.899423 0.091754 0.160468
H4    H     H_    0.693949 0.034504 0.264348 0.112243
H5    H     H_    0.821245 0.592066 0.191022 0.126739
H6    H     H_    0.688952 0.408824 0.094582 0.147523
H7    H     H_    0.737292 0.420520 0.261831 0.143759
H8    H     H_    0.144934 0.643470 0.593672 0.117312
H9    H     H_    0.050089 0.643499 0.498788 0.116579
H10   H     H_    0.073135 0.801823 0.538722 0.132328
H11   H     H_    0.280190 0.157161 0.783317 0.134294
H12   H     H_    0.699671 0.043086 0.777783 0.109937
H13   H     H_    0.790390 0.882123 0.696937 0.161579
H14   H     H_    0.799899 0.065061 0.721778 0.108734
H15   H     H_    0.710210 0.895523 0.803949 0.160211
H16   H     H_    0.098380 0.415256 0.727221 0.241046
H17   H     H_    0.129567 0.393895 0.796889 0.238645
H18   H     H_    0.217637 0.264118 0.439770 0.331240
H19   H     H_    0.540321 0.293191 0.343800 0.343883
H20   H     H_    0.774787 0.584268 0.401764 0.239224
H21   H     H_    0.704089 0.605601 0.372474 0.245790
H22   H     H_    0.308656 0.408335 0.676127 0.141398
H23   H     H_    0.405973 0.591465 0.808434 0.150402
H24   H     H_    0.237502 0.579349 0.763227 0.144251
H25   H     H_    0.185394 0.931619 0.258748 0.070739
H26   H     H_    0.233164 0.958338 0.156416 0.099344
H27   H     H_    0.786793 0.878385 0.185474 0.161299
H28   H     H_    0.263160 0.801765 0.728871 0.131846
N1    N     N_3   0.152936 0.430622 0.765151 -0.636110
N2    N     N_3   0.735794 0.569016 0.348023 -0.627801
O1    O     O_3   0.500000 0.000000 0.000000 -0.449342
O2    O     O_R   0.054120 0.939900 0.325040 -0.532396
O3    O     O_R   0.884120 0.060070 0.444330 -0.538105
O4    O     O_R   0.325020 0.939940 0.054210 -0.536858
O5    O     O_R   0.175860 0.060090 0.615830 -0.540222
O6    O     O_R   0.884120 0.939900 0.324160 -0.535990
O7    O     O_R   0.055710 0.939940 0.615850 -0.549006
O8    O     O_R   0.885720 0.939940 0.614980 -0.538285
O9    O     O_R   0.174930 0.060060 0.445830 -0.504885
O10   O     O_R   0.054120 0.229160 0.614300 -0.542778
O11   O     O_R   0.885050 0.770830 0.325070 -0.554229
O12   O     O_R   0.614240 0.229150 0.054160 -0.543654
O13   O     O_R   0.614240 0.060060 0.885070 -0.540338
O14   O     O_R   0.614900 0.229170 0.174980 -0.525009
O15   O     O_R   0.445840 0.770840 0.885740 -0.541361
O16   O     O_R   0.615830 0.060100 0.175880 -0.538725
O17   O     O_R   0.324090 0.939910 0.884220 -0.546107
O18   O     O_R   0.615830 0.939930 0.055710 -0.543694
O19   O     O_R   0.444240 0.060060 0.884190 -0.539129
O20   O     O_2   0.349591 0.273074 0.421352 -0.481412
O21   O     O_R   0.201986 0.192670 0.397731 -0.693648
O22   O     O_2   0.461805 0.192680 0.399007 -0.488150
O23   O     O_R   0.325020 0.770840 0.885120 -0.543446
O24   O     O_R   0.476604 0.237694 0.302588 -0.647999
O25   O     O_R   0.445840 0.060100 0.175010 -0.497178
O26   O     O_R   0.614900 0.939900 0.885710 -0.541786
O27   O     O_3   0.999960 0.000000 0.500040 -0.447654
O28   O     O_R   0.174930 0.229160 0.614920 -0.538739
O29   O     O_R   0.885720 0.770850 0.445880 -0.550115
O30   O     O_R   0.885050 0.060100 0.614330 -0.540818
Zn1   Zn    Zn3+2 0.542440 0.085830 0.956610 0.943811
Zn2   Zn    Zn3+2 0.543390 0.085850 0.129220 0.979130
Zn3   Zn    Zn3+2 0.543390 0.914160 0.957530 0.934839
Zn4   Zn    Zn3+2 0.370780 0.914160 0.956640 0.947683
Zn5   Zn    Zn3+2 0.957510 0.914170 0.543430 0.927723
Zn6   Zn    Zn3+2 0.956570 0.085840 0.542520 0.950486
Zn7   Zn    Zn3+2 0.956570 0.914150 0.370820 0.951852
Zn8   Zn    Zn3+2 0.129180 0.085840 0.543400 0.971231

loop_
_geom_bond_atom_site_label_1
_geom_bond_atom_site_label_2
_ccdc_geom_bond_type
C28   O23   A    
C15   C18   S    
C21   C26   S    
O1    Zn3   S    
C17   C30   S    
C41   C42   A    
H16   N1    S    
C5    H12   S    
O28   Zn8   S    
C35   C36   A    
C18   H3    S    
C1    O25   A    
C7    N1    S    
C29   O2    A    
O27   Zn8   S    
C12   C23   A    
C31   C43   S    
O5    Zn8   S    
C34   C40   A    
C36   C37   A    
C29   O9    A    
H19   O24   S    
C33   O17   A    
C42   H11   S    
C25   O28   A    
O27   Zn5   S    
C27   O30   A    
C23   C43   A    
O4    Zn4   S    
C34   C35   A    
C12   C37   A    
O19   Zn1   S    
C30   O3    A    
C32   O16   A    
C2    C44   D    
C8    C9    D    
C38   O21   S    
C25   O10   A    
C28   O15   A    
C36   H8    S    
C22   H6    S    
C30   O6    A    
C24   H7    S    
O1    Zn4   S    
C16   C24   S    
C13   C14   D    
C16   O12   A    
C1    O4    A    
C14   H26   S    
O15   Zn3   S    
C19   C32   S    
C3    C44   S    
C33   C40   S    
O8    Zn5   S    
C17   H2    S    
O16   Zn2   S    
C4    O13   A    
C19   H4    S    
C18   C19   D    
C39   O24   S    
C6    C8    S    
C3    C5    D    
O27   Zn6   S    
C21   N2    S    
O10   Zn6   S    
H21   N2    S    
C20   H5    S    
C26   O29   A    
O14   Zn2   S    
O18   Zn3   S    
O13   Zn1   S    
C44   H13   S    
C23   C34   A    
C38   O20   D    
C11   H25   S    
C7    C25   S    
C2    C27   S    
O1    Zn2   S    
O2    Zn7   S    
C40   C41   A    
C20   C22   S    
C35   H28   S    
O1    Zn1   S    
C4    O26   A    
C22   C24   D    
O12   Zn1   S    
C42   C43   A    
C15   C17   D    
O25   Zn2   S    
O26   Zn3   S    
C41   H1    S    
O17   Zn4   S    
C27   O8    A    
O7    Zn5   S    
C4    C5    S    
O11   Zn7   S    
C10   C13   S    
C33   O19   A    
C2    H14   S    
C31   O5    A    
C6    C7    D    
O27   Zn7   S    
C15   H27   S    
C31   O7    A    
O29   Zn5   S    
C10   C38   S    
H17   N1    S    
C9    H24   S    
C37   H9    S    
O30   Zn6   S    
C32   O18   A    
C26   O11   A    
O6    Zn7   S    
O3    Zn6   S    
C39   O22   D    
C13   C39   S    
C10   C11   D    
O23   Zn4   S    
C6    H22   S    
C20   C21   D    
C11   C29   S    
C8    H23   S    
C16   O14   A    
H20   N2    S    
O9    Zn8   S    
C1    C14   S    
H18   O21   S    
C12   H10   S    
C9    C28   S    
C3    H15   S    
