data_mof_unit_46769.cif
_audit_creation_date              2012-12-11T14:46:23-0500
_audit_creation_method            fapswitch 2.2
_symmetry_space_group_name_H-M    P1
_symmetry_Int_Tables_number       1
_space_group_crystal_system       triclinic
_cell_length_a                    17.431973
_cell_length_b                    17.516936
_cell_length_c                    6.936406
_cell_angle_alpha                 90.000201
_cell_angle_beta                  89.710282
_cell_angle_gamma                 89.999956
_cell_volume                      2118.0374796

loop_
_atom_site_label
_atom_site_type_symbol
_atom_type_description
_atom_site_fract_x
_atom_site_fract_y
_atom_site_fract_z
_atom_type_partial_charge
O1    O     O_R   0.796490 0.328940 0.373020 -0.518391
O2    O     O_R   0.203510 0.671060 0.626980 -0.514625
O3    O     O_R   0.203510 0.828940 0.626980 -0.518394
O4    O     O_R   0.796490 0.171060 0.373020 -0.514622
O5    O     O_R   0.805560 0.173330 0.702970 -0.544583
O6    O     O_R   0.194440 0.826670 0.297030 -0.539962
O7    O     O_R   0.194440 0.673330 0.297030 -0.544582
O8    O     O_R   0.805560 0.326670 0.702970 -0.539964
O9    O     O_R   0.658440 0.172360 0.870170 -0.537574
O10   O     O_R   0.341560 0.827640 0.129830 -0.538063
O11   O     O_R   0.341560 0.672360 0.129830 -0.537574
O12   O     O_R   0.658440 0.327640 0.870170 -0.538063
C1    C     C_R   0.823318 0.145414 0.533473 0.758673
C2    C     C_R   0.176826 0.854676 0.466367 0.742892
C3    C     C_R   0.176680 0.645416 0.466527 0.758667
C4    C     C_R   0.823175 0.354674 0.533632 0.742895
O13   O     O_3   0.679200 0.250000 0.537050 -0.378837
O14   O     O_3   0.320800 0.750000 0.462950 -0.378837
V1    V     V_3+5 0.736420 0.250000 0.813120 1.445794
V2    V     V_3+5 0.263580 0.750000 0.186880 1.445790
O15   O     O_R   0.649370 0.327980 0.199650 -0.538035
O16   O     O_R   0.350630 0.672020 0.800350 -0.534271
O17   O     O_R   0.350630 0.827980 0.800350 -0.538039
O18   O     O_R   0.649370 0.172020 0.199650 -0.534269
C5    C     C_R   0.630586 0.354459 0.030612 0.741821
C6    C     C_R   0.369426 0.645550 0.969392 0.740603
C7    C     C_R   0.369414 0.854458 0.969388 0.741823
C8    C     C_R   0.630574 0.145550 0.030607 0.740604
H1    H     H_    0.958079 0.126824 0.719999 0.184927
H2    H     H_    0.043204 0.874651 0.279321 0.181723
H3    H     H_    0.041917 0.626828 0.280019 0.184922
H4    H     H_    0.956803 0.374645 0.720661 0.181715
V3    V     V_3+5 0.718510 0.250000 0.312740 1.481123
V4    V     V_3+5 0.281490 0.750000 0.687260 1.481108
O19   O     O_3   0.775740 0.250000 0.038930 -0.360017
O20   O     O_3   0.224260 0.750000 0.961070 -0.360017
C9    C     C_1   0.574119 0.083164 0.019329 -0.202515
C10   C     C_1   0.425849 0.916859 0.980652 -0.204031
C11   C     C_1   0.425881 0.583164 0.980670 -0.202515
C12   C     C_1   0.574151 0.416859 0.019349 -0.204032
C13   C     C_1   0.527436 0.030885 0.007464 -0.003422
C14   C     C_1   0.472522 0.969147 0.992505 -0.003676
C15   C     C_1   0.472564 0.530885 0.992536 -0.003419
C16   C     C_1   0.527478 0.469147 0.007495 -0.003675
C17   C     C_R   0.879206 0.081699 0.513497 -0.230866
C18   C     C_R   0.122776 0.920009 0.484150 -0.232934
C19   C     C_R   0.120794 0.581699 0.486499 -0.230873
C20   C     C_R   0.877226 0.420007 0.515852 -0.232928
C21   C     C_R   0.079248 0.033081 0.662844 0.407902
C22   C     C_R   0.925120 0.972226 0.325192 0.403698
C23   C     C_R   0.920750 0.533083 0.337168 0.407916
C24   C     C_R   0.074885 0.472222 0.674792 0.403717
C25   C     C_R   0.136603 0.978760 0.620697 0.393643
C26   C     C_R   0.866499 0.024180 0.373970 0.379346
C27   C     C_R   0.863396 0.478761 0.379315 0.393636
C28   C     C_R   0.133506 0.524175 0.626009 0.379335
C29   C     C_R   0.053387 0.919701 0.383167 -0.249160
C30   C     C_R   0.948930 0.082746 0.613036 -0.288280
C31   C     C_R   0.946617 0.419697 0.616825 -0.249171
C32   C     C_R   0.051069 0.582747 0.386971 -0.288273
C33   C     C_R   0.995630 0.973967 0.423919 -0.058730
C34   C     C_R   0.007826 0.030016 0.568001 -0.078880
C35   C     C_R   0.004372 0.473965 0.576076 -0.058733
C36   C     C_R   0.992173 0.530017 0.432004 -0.078876
O21   O     O_3   0.091108 0.084978 0.810213 -0.544395
C37   C     C_3   0.121812 0.152688 0.731252 -0.214914
H5    H     H_    0.122564 0.197001 0.845479 0.172235
H6    H     H_    0.086545 0.175227 0.610492 0.121335
H7    H     H_    0.181902 0.143936 0.682589 0.145651
O22   O     O_3   0.911476 0.917331 0.186075 -0.557788
C38   C     C_3   0.930685 0.948252 0.004393 -0.204901
H8    H     H_    0.921261 0.903958 0.892695 0.152005
H9    H     H_    0.992232 0.965011 0.997413 0.154936
H10   H     H_    0.893553 0.997866 0.968335 0.170572
O23   O     O_3   0.908889 0.584979 0.189800 -0.544388
C39   C     C_3   0.878190 0.652692 0.268762 -0.214941
H11   H     H_    0.913456 0.675227 0.389527 0.121331
H12   H     H_    0.818099 0.643945 0.317416 0.145654
H13   H     H_    0.877445 0.697005 0.154539 0.172238
O24   O     O_3   0.088532 0.417327 0.813904 -0.557781
C40   C     C_3   0.069316 0.448245 0.995587 -0.204886
H14   H     H_    0.007762 0.464967 0.002590 0.154919
H15   H     H_    0.106421 0.497880 0.031619 0.170549
H16   H     H_    0.078773 0.403961 0.107289 0.152008
O25   O     O_3   0.798098 0.021322 0.273994 -0.544751
C41   C     C_3   0.745274 0.977715 0.382052 -0.210320
H17   H     H_    0.732835 0.004620 0.524208 0.108694
H18   H     H_    0.766041 0.918149 0.402220 0.146518
H19   H     H_    0.690527 0.974913 0.301487 0.156853
O26   O     O_3   0.203878 0.981111 0.726241 -0.534550
C42   C     C_3   0.265256 0.004355 0.605874 -0.214548
H20   H     H_    0.248880 0.049943 0.501773 0.103223
H21   H     H_    0.289708 0.954941 0.526596 0.132228
H22   H     H_    0.311453 0.027745 0.698087 0.156638
O27   O     O_3   0.201910 0.521312 0.725972 -0.544750
C43   C     C_3   0.254737 0.477733 0.617872 -0.210278
H23   H     H_    0.267148 0.504646 0.475712 0.108679
H24   H     H_    0.233985 0.418166 0.597707 0.146530
H25   H     H_    0.309500 0.474949 0.698393 0.156838
O28   O     O_3   0.796120 0.481111 0.273774 -0.534550
C44   C     C_3   0.734744 0.504359 0.394141 -0.214536
H26   H     H_    0.751115 0.549964 0.498188 0.103230
H27   H     H_    0.710307 0.454955 0.473475 0.132204
H28   H     H_    0.688537 0.527723 0.301931 0.156641

loop_
_geom_bond_atom_site_label_1
_geom_bond_atom_site_label_2
_ccdc_geom_bond_type
O10   C7    A    
C30   C34   A    
C28   O27   S    
C37   H6    S    
H2    C29   S    
C44   H26   S    
C20   C27   A    
C13   C14   S    
O27   C43   S    
C39   H13   S    
C3    C19   S    
C15   C16   S    
C4    C20   S    
C40   H14   S    
O1    V3    S    
C2    C18   S    
O25   C41   S    
C22   C26   A    
C21   O21   S    
C39   H12   S    
C10   C14   T    
C5    C12   S    
C41   H18   S    
C6    C11   S    
C37   H7    S    
C42   H21   S    
C7    C10   S    
C43   H25   S    
O12   V1    S    
O4    C1    A    
V3    O19   S    
C19   C32   A    
O9    V1    S    
O10   V2    S    
C43   H24   S    
C27   O28   S    
O22   C38   S    
O17   C7    A    
C23   C27   A    
O2    V4    S    
O7    C3    A    
C37   H5    S    
C44   H27   S    
O13   V3    S    
C40   H15   S    
O16   V4    S    
C17   C30   A    
O8    V1    S    
C39   H11   S    
C42   H20   S    
C38   H9    S    
C41   H17   S    
C11   C15   T    
O11   C6    A    
O11   V2    S    
C41   H19   S    
H3    C32   S    
O23   C39   S    
O6    C2    A    
O17   V4    S    
C43   H23   S    
O1    C4    A    
O2    C3    A    
O14   V4    S    
O3    C2    A    
C26   O25   S    
C17   C26   A    
O7    V2    S    
C44   H28   S    
C18   C29   A    
C40   H16   S    
C20   C31   A    
O15   C5    A    
O4    V3    S    
C21   C34   A    
O5    C1    A    
C23   C36   A    
O18   C8    A    
C23   O23   S    
O24   C40   S    
C24   C35   A    
C38   H10   S    
C29   C33   A    
O5    V1    S    
O6    V2    S    
C31   C35   A    
O18   V3    S    
O3    V4    S    
O12   C5    A    
C32   C36   A    
C22   O22   S    
C38   H8    S    
V1    O19   S    
C42   H22   S    
C1    C17   S    
O26   C42   S    
C8    C9    S    
C21   C25   A    
C18   C25   A    
O28   C44   S    
O13   V1    S    
V4    O20   S    
O14   V2    S    
C9    C13   T    
C33   C34   A    
C35   C36   A    
V2    O20   S    
C12   C16   T    
O15   V3    S    
H1    C30   S    
O8    C4    A    
O21   C37   S    
O16   C6    A    
C25   O26   S    
C22   C33   A    
H4    C31   S    
C24   O24   S    
C24   C28   A    
O9    C8    A    
C19   C28   A    
