data_mof_unit_53614.cif
_audit_creation_date              2012-12-11T14:21:09-0500
_audit_creation_method            fapswitch 2.2
_symmetry_space_group_name_H-M    P1
_symmetry_Int_Tables_number       1
_space_group_crystal_system       triclinic
_cell_length_a                    22.160582
_cell_length_b                    7.190024
_cell_length_c                    14.888636
_cell_angle_alpha                 89.999366
_cell_angle_beta                  107.395786
_cell_angle_gamma                 90.00009
_cell_volume                      2263.77984991

loop_
_atom_site_label
_atom_site_type_symbol
_atom_type_description
_atom_site_fract_x
_atom_site_fract_y
_atom_site_fract_z
_atom_type_partial_charge
O1    O     O_R   0.584770 0.505770 0.002090 -0.541392
O2    O     O_R   0.415230 0.005770 0.997910 -0.541392
O3    O     O_R   0.467060 0.173340 0.861950 -0.541436
O4    O     O_R   0.532940 0.673340 0.138050 -0.541433
C1    C     C_R   0.454447 0.344208 0.825788 0.807774
C2    C     C_R   0.545552 0.844207 0.174212 0.807747
O5    O     O_R   0.587510 0.175890 0.993210 -0.533085
O6    O     O_R   0.412490 0.675890 0.006790 -0.533086
O7    O     O_R   0.536540 0.008150 0.130100 -0.541971
O8    O     O_R   0.463460 0.508150 0.869900 -0.541971
C3    C     C_R   0.612712 0.344733 0.999016 0.718254
C4    C     C_R   0.387288 0.844732 0.000984 0.718234
O9    O     O_3   0.483140 0.340040 0.044760 -0.385195
O10   O     O_3   0.516860 0.840040 0.955240 -0.385192
V1    V     V_3+5 0.503130 0.064190 0.991700 1.455849
V2    V     V_3+5 0.496870 0.564190 0.008300 1.455853
C5    C     C_2   0.218857 0.732838 0.016055 0.039385
C6    C     C_2   0.781145 0.232833 0.983953 0.039378
C7    C     C_2   0.180534 0.888044 0.995565 0.312018
C8    C     C_2   0.819467 0.388040 0.004438 0.312026
C9    C     C_2   0.288764 0.735546 0.028591 -0.090460
C10   C     C_2   0.711239 0.235534 0.971421 -0.090461
C11   C     C_2   0.319349 0.858154 0.989889 -0.292487
C12   C     C_2   0.680650 0.358159 0.010108 -0.292511
H1    H     H_    0.316700 0.623859 0.070192 0.135992
H2    H     H_    0.683305 0.123829 0.929834 0.136016
H3    H     H_    0.295410 0.970373 0.945800 0.179548
H4    H     H_    0.704585 0.470399 0.054182 0.179567
C13   C     C_R   0.929252 0.881436 0.722265 -0.258619
C14   C     C_R   0.070748 0.381429 0.277735 -0.258618
C15   C     C_R   0.575020 0.850496 0.276294 -0.207935
C16   C     C_R   0.424979 0.350502 0.723706 -0.207912
C17   C     C_R   0.939192 0.801345 0.568231 0.078531
C18   C     C_R   0.060807 0.301334 0.431768 0.078529
C19   C     C_R   0.966539 0.820467 0.666543 0.370441
C20   C     C_R   0.033461 0.320456 0.333456 0.370441
C21   C     C_R   0.864655 0.916911 0.681686 0.313611
C22   C     C_R   0.135345 0.416907 0.318315 0.313608
C23   C     C_R   0.834303 0.865155 0.586757 -0.034906
C24   C     C_R   0.165696 0.365145 0.413243 -0.034906
C25   C     C_R   0.872734 0.822023 0.528401 0.015399
C26   C     C_R   0.127264 0.322010 0.471599 0.015398
C27   C     C_R   0.767035 0.855488 0.548130 0.019795
C28   C     C_R   0.232963 0.355478 0.451871 0.019803
C29   C     C_R   0.738929 0.847551 0.448957 0.071931
C30   C     C_R   0.261070 0.347540 0.551044 0.071932
C31   C     C_R   0.778655 0.812103 0.392660 -0.150199
C32   C     C_R   0.221343 0.312085 0.607340 -0.150197
C33   C     C_R   0.843650 0.796541 0.431535 -0.179566
C34   C     C_R   0.156348 0.296523 0.568465 -0.179569
C35   C     C_R   0.727675 0.833356 0.606153 -0.233105
C36   C     C_R   0.272323 0.333347 0.393848 -0.233130
C37   C     C_R   0.662074 0.821738 0.569083 0.434376
C38   C     C_R   0.337925 0.321742 0.430917 0.434396
C39   C     C_R   0.633749 0.829664 0.471302 -0.067196
C40   C     C_R   0.366250 0.329673 0.528698 -0.067164
C41   C     C_R   0.671621 0.855364 0.410210 -0.084545
C42   C     C_R   0.328378 0.355359 0.589791 -0.084555
C43   C     C_R   0.567915 0.808112 0.433769 -0.216766
C44   C     C_R   0.432085 0.308139 0.566231 -0.216743
C45   C     C_R   0.538732 0.814101 0.336705 0.355331
C46   C     C_R   0.461269 0.314130 0.663296 0.355289
C47   C     C_R   0.640186 0.885533 0.312661 0.333461
C48   C     C_R   0.359812 0.385523 0.687340 0.333454
H5    H     H_    0.870568 0.762420 0.383994 0.134531
H6    H     H_    0.129430 0.262399 0.616005 0.134534
H7    H     H_    0.760336 0.779139 0.318880 0.172897
H8    H     H_    0.239662 0.279117 0.681120 0.172900
H9    H     H_    0.747105 0.808497 0.680711 0.193184
H10   H     H_    0.252891 0.308474 0.319292 0.193159
H11   H     H_    0.538809 0.781321 0.479299 0.175722
H12   H     H_    0.461191 0.281357 0.520701 0.175711
O11   O     O_R   0.036450 0.233070 0.130130 -0.548628
O12   O     O_R   0.963550 0.733070 0.869870 -0.548630
O13   O     O_R   0.912470 0.560570 0.006790 -0.524512
O14   O     O_R   0.087530 0.060570 0.993210 -0.524515
C49   C     C_R   0.887012 0.391379 0.003076 0.656275
C50   C     C_R   0.112988 0.891380 0.996925 0.656270
O15   O     O_R   0.032920 0.562940 0.138050 -0.539093
O16   O     O_R   0.967080 0.062940 0.861950 -0.539093
O17   O     O_R   0.084790 0.730500 0.002090 -0.554124
O18   O     O_R   0.915210 0.230500 0.997910 -0.554125
C51   C     C_R   0.043792 0.393934 0.175030 0.829725
C52   C     C_R   0.956208 0.893936 0.824970 0.829725
O19   O     O_3   0.016820 0.396170 0.955260 -0.390331
O20   O     O_3   0.983180 0.896170 0.044740 -0.390328
V3    V     V_3+5 0.996880 0.672090 0.008300 1.406873
V4    V     V_3+5 0.003120 0.172090 0.991700 1.406869
C53   C     C_3   0.193817 0.543142 0.031328 -0.731746
H13   H     H_    0.231148 0.434609 0.045851 0.231097
H14   H     H_    0.175389 0.545861 0.092752 0.248817
H15   H     H_    0.156472 0.498440 0.966942 0.214538
C54   C     C_3   0.806186 0.043137 0.968681 -0.731723
H16   H     H_    0.768857 0.934601 0.954163 0.231104
H17   H     H_    0.824611 0.045857 0.907254 0.248815
H18   H     H_    0.843533 0.998438 0.033066 0.214535
O21   O     O_3   0.031082 0.798072 0.707047 -0.562886
C55   C     C_3   0.044674 0.608915 0.730400 -0.283984
H19   H     H_    0.010750 0.509522 0.683939 0.130499
H20   H     H_    0.046401 0.584178 0.804593 0.171601
H21   H     H_    0.092272 0.576932 0.724289 0.154825
O22   O     O_3   0.968918 0.298057 0.292951 -0.562886
C56   C     C_3   0.955328 0.108898 0.269603 -0.283972
H22   H     H_    0.989256 0.009508 0.316059 0.130494
H23   H     H_    0.953594 0.084162 0.195407 0.171600
H24   H     H_    0.907732 0.076909 0.275723 0.154823
O23   O     O_3   0.832196 0.003618 0.736258 -0.568705
C57   C     C_3   0.825699 0.193964 0.712199 -0.248201
H25   H     H_    0.795860 0.214519 0.638182 0.144937
H26   H     H_    0.872599 0.261731 0.723772 0.143318
H27   H     H_    0.801749 0.264631 0.758384 0.153039
O24   O     O_3   0.167804 0.503619 0.263744 -0.568707
C58   C     C_3   0.174303 0.693963 0.287805 -0.248202
H28   H     H_    0.204142 0.714510 0.361823 0.144939
H29   H     H_    0.127404 0.761733 0.276234 0.143317
H30   H     H_    0.198253 0.764633 0.241621 0.153037
O25   O     O_3   0.206420 0.058451 0.983559 -0.554731
C59   C     C_3   0.182404 0.112887 0.888040 -0.296073
H31   H     H_    0.133078 0.164509 0.871000 0.163595
H32   H     H_    0.185253 0.998566 0.838872 0.133675
H33   H     H_    0.211590 0.229640 0.875391 0.167585
O26   O     O_3   0.793582 0.558448 0.016446 -0.554734
C60   C     C_3   0.817596 0.612867 0.111967 -0.296081
H34   H     H_    0.866926 0.664461 0.129016 0.163594
H35   H     H_    0.814736 0.498545 0.161129 0.133681
H36   H     H_    0.788415 0.729635 0.124613 0.167582
O27   O     O_3   0.671741 0.949623 0.251352 -0.567147
C61   C     C_3   0.680005 0.143642 0.263121 -0.231679
H37   H     H_    0.710948 0.179265 0.334821 0.139615
H38   H     H_    0.633799 0.216836 0.248587 0.139798
H39   H     H_    0.703550 0.195568 0.211921 0.153603
O28   O     O_3   0.328256 0.449595 0.748650 -0.567150
C62   C     C_3   0.319990 0.643615 0.736886 -0.231692
H40   H     H_    0.289047 0.679247 0.665186 0.139618
H41   H     H_    0.366195 0.716814 0.751424 0.139799
H42   H     H_    0.296443 0.695527 0.788086 0.153606
O29   O     O_3   0.474879 0.776797 0.300171 -0.576188
C63   C     C_3   0.440755 0.937954 0.308493 -0.242782
H43   H     H_    0.454348 0.058605 0.271749 0.152311
H44   H     H_    0.447088 0.972261 0.383624 0.170728
H45   H     H_    0.389696 0.911150 0.274525 0.172501
O30   O     O_3   0.525123 0.276842 0.699832 -0.576207
C64   C     C_3   0.559244 0.437974 0.691458 -0.242756
H46   H     H_    0.545646 0.558692 0.728153 0.152354
H47   H     H_    0.552918 0.472158 0.616316 0.170685
H48   H     H_    0.610303 0.411194 0.725450 0.172529
O31   O     O_3   0.625725 0.788670 0.628550 -0.577543
C65   C     C_3   0.623224 0.952414 0.679427 -0.243506
H49   H     H_    0.589189 0.930628 0.719992 0.190351
H50   H     H_    0.606151 0.072748 0.631435 0.168969
H51   H     H_    0.669951 0.984505 0.730815 0.147190
O32   O     O_3   0.374278 0.288674 0.371454 -0.577537
C66   C     C_3   0.376730 0.452356 0.320503 -0.243502
H52   H     H_    0.410793 0.430612 0.279980 0.190358
H53   H     H_    0.393741 0.572809 0.368436 0.168964
H54   H     H_    0.330001 0.484239 0.269071 0.147177
C67   C     C_3   0.980459 0.753001 0.506822 -0.762460
H55   H     H_    0.031391 0.742856 0.546418 0.246595
H56   H     H_    0.965302 0.617910 0.471454 0.216919
H57   H     H_    0.975454 0.861131 0.452141 0.196171
C68   C     C_3   0.019538 0.252994 0.493177 -0.762452
H58   H     H_    0.968606 0.242851 0.453580 0.246594
H59   H     H_    0.034695 0.117905 0.528548 0.216924
H60   H     H_    0.024544 0.361128 0.547855 0.196168

loop_
_geom_bond_atom_site_label_1
_geom_bond_atom_site_label_2
_ccdc_geom_bond_type
C64   H48   S    
O15   C51   A    
C67   H55   S    
C39   C43   A    
C15   C45   A    
O31   C65   S    
O1    C3    A    
C65   H51   S    
O16   C52   A    
C18   C68   S    
O2    C4    A    
C61   H37   S    
C2    O7    A    
O15   V3    S    
C68   H58   S    
C60   H34   S    
C23   C25   A    
O5    C3    A    
C4    C11   S    
C29   C41   A    
C54   H16   S    
C33   H5    S    
C8    C49   S    
C20   O22   S    
O14   C50   A    
C21   O23   S    
C60   H35   S    
C44   H12   S    
C64   H46   S    
O21   C55   S    
C3    C12   S    
C37   O31   S    
C57   H25   S    
C14   C22   A    
C44   C46   A    
C29   C31   A    
C25   C33   A    
C14   C51   S    
O13   C49   A    
C59   H31   S    
C17   C19   A    
C48   O28   S    
C36   C38   A    
O28   C62   S    
C18   C26   A    
C62   H42   S    
O23   C57   S    
C11   H3    S    
O12   V3    S    
C66   H53   S    
O14   V4    S    
C8    O26   S    
C58   H30   S    
C28   C36   A    
C32   C34   A    
C2    C15   S    
O6    V2    S    
C30   C42   A    
C46   O30   S    
C31   H7    S    
O24   C58   S    
C68   H59   S    
C28   C30   A    
C41   C47   A    
C30   C32   A    
C37   C39   A    
C42   C48   A    
C21   C23   A    
C38   C40   A    
C43   C45   A    
O30   C64   S    
C15   C47   A    
C5    C53   S    
C65   H49   S    
C16   C48   A    
C13   C52   S    
O4    C2    A    
O12   C52   A    
O20   V3    S    
C60   H36   S    
C38   O32   S    
C40   C42   A    
C5    C9    S    
C40   C44   A    
C66   H54   S    
C59   H33   S    
O4    V2    S    
C7    C50   S    
O11   V4    S    
C27   C29   A    
O6    C4    A    
C56   H23   S    
O1    V2    S    
C32   H8    S    
C53   H15   S    
O2    V1    S    
C34   H6    S    
O17   V3    S    
C63   H44   S    
C26   C34   A    
O13   V3    S    
C54   H18   S    
C55   H20   S    
C9    C11   D    
C62   H40   S    
C10   C12   D    
C53   H14   S    
C22   O24   S    
O27   C61   S    
C53   H13   S    
C61   H39   S    
C68   H60   S    
O3    V1    S    
C58   H28   S    
O19   V4    S    
C64   H47   S    
C9    H1    S    
C6    C10   S    
C12   H4    S    
C65   H50   S    
C24   C26   A    
O3    C1    A    
C63   H45   S    
C61   H38   S    
C23   C27   A    
C67   H57   S    
C31   C33   A    
C55   H21   S    
O29   C63   S    
C13   C19   A    
C57   H27   S    
C14   C20   A    
C17   C25   A    
C1    C16   S    
C39   C41   A    
O26   C60   S    
C16   C46   A    
C1    O8    A    
O16   V4    S    
O8    V2    S    
O25   C59   S    
C22   C24   A    
C50   O17   A    
C45   O29   S    
C54   H17   S    
C49   O18   A    
C27   C35   A    
O18   V4    S    
O5    V1    S    
C5    C7    D    
C18   C20   A    
C57   H26   S    
C56   H24   S    
C6    C8    D    
O7    V1    S    
O22   C56   S    
C59   H32   S    
C17   C67   S    
C36   H10   S    
C63   H43   S    
C24   C28   A    
O32   C66   S    
C7    O25   S    
C67   H56   S    
C55   H19   S    
C10   H2    S    
O9    V2    S    
C13   C21   A    
C56   H22   S    
C62   H41   S    
C6    C54   S    
O10   V1    S    
C35   H9    S    
C35   C37   A    
C66   H52   S    
C19   O21   S    
O11   C51   A    
C47   O27   S    
C43   H11   S    
C58   H29   S    
