data_mof_unit_16526.cif
_audit_creation_date              2012-10-26T18:33:55-0400
_audit_creation_method            fapswitch 2.2
_symmetry_space_group_name_H-M    P1
_symmetry_Int_Tables_number       1
_space_group_crystal_system       triclinic
_cell_length_a                    11.033699
_cell_length_b                    10.833584
_cell_length_c                    9.516393
_cell_angle_alpha                 90.012241
_cell_angle_beta                  103.397834
_cell_angle_gamma                 90.165763
_cell_volume                      1106.57374856

loop_
_atom_site_label
_atom_site_type_symbol
_atom_type_description
_atom_site_fract_x
_atom_site_fract_y
_atom_site_fract_z
_atom_type_partial_charge
C1    C     C_R   0.499901 0.262058 0.499930 0.547181
C2    C     C_2   0.874995 0.496444 0.594896 0.178131
C3    C     C_2   0.067479 0.465220 0.509164 -0.107609
C4    C     C_2   0.932005 0.466153 0.489023 -0.108593
C5    C     C_R   0.499004 0.063798 0.372022 -0.124944
C6    C     C_R   0.500972 0.936178 0.627971 -0.125251
C7    C     C_R   0.499125 0.936093 0.372080 -0.125837
C8    C     C_R   0.500819 0.063882 0.627904 -0.124577
C9    C     C_R   0.500089 0.871773 0.500050 0.022933
C10   C     C_R   0.499879 0.128208 0.499941 0.024026
C11   C     C_R   0.500087 0.737934 0.500066 0.547346
C12   C     C_R   0.261907 0.499386 0.440384 0.535569
C13   C     C_R   0.738174 0.499469 0.559533 0.537145
C14   C     C_R   0.422567 0.423124 0.053608 0.054835
C15   C     C_R   0.576584 0.577618 0.946235 0.059374
C16   C     C_R   0.422746 0.423003 0.904803 0.045053
C17   C     C_R   0.576915 0.577289 0.095124 0.043633
C18   C     C_2   0.125214 0.496892 0.404369 0.178651
Cu1   Cu    Cu3+1 0.500000 0.500020 0.640660 0.996489
Cu2   Cu    Cu3+1 0.500000 0.499980 0.359340 0.988488
H1    H     H_    0.876776 0.443197 0.382235 0.187510
H2    H     H_    0.501491 0.111944 0.727917 0.136651
H3    H     H_    0.846075 0.681439 0.828183 0.331029
H4    H     H_    0.161874 0.680534 0.173440 0.341923
H5    H     H_    0.122257 0.439929 0.615282 0.179080
H6    H     H_    0.360554 0.361575 0.093060 0.140238
H7    H     H_    0.637103 0.640511 0.906517 0.138679
H8    H     H_    0.360903 0.361266 0.832075 0.120958
H9    H     H_    0.638472 0.639317 0.167758 0.143115
H10   H     H_    0.498201 0.111794 0.271960 0.135627
H11   H     H_    0.501800 0.888179 0.728039 0.136064
H12   H     H_    0.498427 0.888028 0.272061 0.136197
N1    N     N_R   0.500030 0.500030 0.852080 -0.231597
N2    N     N_R   0.499970 0.499970 0.147920 -0.237029
O1    O     O_R   0.499990 0.319660 0.618740 -0.512164
O2    O     O_2   0.061404 0.627105 0.763787 -0.276474
O3    O     O_3   0.867129 0.598379 0.870126 -0.430080
O4    O     O_2   0.978633 0.426462 0.152276 -0.200971
O5    O     O_2   0.943736 0.633227 0.237333 -0.297987
O6    O     O_3   0.136758 0.598580 0.129987 -0.413332
O7    O     O_R   0.500010 0.680340 0.381260 -0.512698
O8    O     O_R   0.499990 0.319630 0.381170 -0.514272
O9    O     O_R   0.500010 0.680370 0.618830 -0.512450
O10   O     O_R   0.320690 0.500020 0.575130 -0.515905
O11   O     O_R   0.679310 0.499980 0.424870 -0.520561
O12   O     O_R   0.320680 0.499990 0.337560 -0.458925
O13   O     O_R   0.679320 0.500010 0.662440 -0.454191
O14   O     O_2   0.018655 0.421433 0.846297 -0.209884
S1    S     S_3+6 0.960027 0.536183 0.771954 0.067474
S2    S     S_3+6 0.041606 0.539310 0.227803 0.061931

loop_
_geom_bond_atom_site_label_1
_geom_bond_atom_site_label_2
_ccdc_geom_bond_type
C14   N2    A    
Cu2   O8    S    
C5    C7    A    
C11   O9    A    
O4    S2    D    
C2    S1    S    
C16   N1    A    
O3    S1    S    
C2    C4    D    
Cu1   Cu2   S    
Cu2   N2    S    
C13   O13   A    
C6    C9    A    
C6    H11   S    
C5    C10   A    
C12   O10   A    
Cu1   O1    S    
C14   H6    S    
C13   O11   A    
C4    H1    S    
C9    C11   S    
C18   S2    S    
O6    S2    S    
C15   C17   A    
C8    C10   A    
O14   S1    D    
H4    O6    S    
Cu1   O9    S    
C11   O7    A    
C14   C16   A    
Cu1   O13   S    
C17   N2    A    
C1    C10   S    
C3    C4    S    
C1    O8    A    
C3    H5    S    
O5    S2    D    
C17   H9    S    
Cu1   O10   S    
C1    O1    A    
C3    C18   D    
C12   O12   A    
C5    H10   S    
Cu1   N1    S    
C12   C18   S    
C7    C9    A    
C2    C13   S    
C16   H8    S    
C6    C8    A    
C7    H12   S    
H3    O3    S    
C15   H7    S    
C8    H2    S    
C15   N1    A    
Cu2   O12   S    
O2    S1    D    
Cu2   O11   S    
Cu2   O7    S    
