data_mof_unit_66129.cif
_audit_creation_date              2012-12-10T16:35:08-0500
_audit_creation_method            fapswitch 2.2
_symmetry_space_group_name_H-M    P1
_symmetry_Int_Tables_number       1
_space_group_crystal_system       triclinic
_cell_length_a                    10.825422
_cell_length_b                    10.890217
_cell_length_c                    10.881774
_cell_angle_alpha                 81.49711
_cell_angle_beta                  98.386879
_cell_angle_gamma                 89.859574
_cell_volume                      1254.81792503

loop_
_atom_site_label
_atom_site_type_symbol
_atom_type_description
_atom_site_fract_x
_atom_site_fract_y
_atom_site_fract_z
_atom_type_partial_charge
C1    C     C_R   0.835229 0.471934 0.527827 0.873650
C2    C     C_2   0.471764 0.030363 0.529027 -0.348691
C3    C     C_2   0.537231 0.965832 0.462406 0.037477
C4    C     C_2   0.029066 0.538285 0.461636 -0.333578
C5    C     C_3   0.624203 0.019198 0.372181 -0.759461
C6    C     C_2   0.659623 0.396955 0.037736 0.968430
C7    C     C_2   0.968621 0.461204 0.537956 -0.296201
C8    C     C_2   0.466771 0.530813 0.025209 -0.426918
C9    C     C_2   0.542076 0.462074 0.972400 -0.152727
C10   C     C_R   0.164146 0.527566 0.472354 0.879203
C11   C     C_R   0.524162 0.473401 0.838212 0.819723
C12   C     C_R   0.477484 0.526995 0.160468 0.921472
C13   C     C_R   0.522998 0.834337 0.476949 0.853504
C14   C     C_R   0.477450 0.164427 0.522617 0.896473
H1    H     H_    0.411460 0.981611 0.590834 0.123174
H2    H     H_    0.978504 0.609284 0.391367 0.159972
H3    H     H_    0.016812 0.389384 0.608754 0.168222
H4    H     H_    0.391606 0.587819 0.966519 0.152072
H5    H     H_    0.665207 0.944810 0.329691 0.205856
H6    H     H_    0.572334 0.085019 0.293851 0.262400
H7    H     H_    0.703113 0.065677 0.422471 0.253613
H8    H     H_    0.823179 0.404342 0.151927 0.342719
O1    O     O_3   0.500000 0.500000 0.500000 -0.506790
O2    O     O_R   0.597340 0.765700 0.560080 -0.639377
O3    O     O_R   0.548200 0.222430 0.451790 -0.644989
O4    O     O_R   0.441590 0.789440 0.401000 -0.639820
O5    O     O_R   0.412860 0.222430 0.587130 -0.638239
O6    O     O_2   0.683164 0.292063 0.018876 -0.643331
O7    O     O_R   0.746425 0.458057 0.114259 -0.775756
O8    O     O_R   0.441590 0.410520 0.779910 -0.625208
O9    O     O_R   0.548210 0.443940 0.230290 -0.618896
O10   O     O_R   0.787780 0.544200 0.591150 -0.628599
O11   O     O_R   0.222430 0.601350 0.398650 -0.642342
O12   O     O_R   0.767360 0.410530 0.454140 -0.626556
O13   O     O_R   0.222430 0.443930 0.556060 -0.640582
O14   O     O_R   0.597340 0.544190 0.781580 -0.638057
O15   O     O_R   0.412870 0.601350 0.208220 -0.640475
Zn1   Zn    Zn3+2 0.396020 0.396030 0.603970 0.983999
Zn2   Zn    Zn3+2 0.618560 0.587010 0.606350 0.993255
Zn3   Zn    Zn3+2 0.396030 0.620930 0.379070 0.981514
Zn4   Zn    Zn3+2 0.589390 0.396030 0.410610 0.989866

loop_
_geom_bond_atom_site_label_1
_geom_bond_atom_site_label_2
_ccdc_geom_bond_type
C4    H2    S    
C10   O13   A    
C5    H5    S    
H8    O7    S    
C14   O5    A    
O15   Zn3   S    
O1    Zn1   S    
O1    Zn4   S    
C8    C12   S    
O13   Zn1   S    
C6    C9    S    
C2    C3    D    
C12   O9    A    
C5    H6    S    
C2    H1    S    
C9    C11   S    
O4    Zn3   S    
O12   Zn4   S    
C11   O8    A    
C4    C7    D    
O1    Zn2   S    
C11   O14   A    
C1    O12   A    
C10   O11   A    
O14   Zn2   S    
C14   O3    A    
C2    C14   S    
C8    H4    S    
C13   O4    A    
O11   Zn3   S    
O5    Zn1   S    
C4    C10   S    
O1    Zn3   S    
C6    O7    S    
C5    H7    S    
O8    Zn1   S    
O10   Zn2   S    
O3    Zn4   S    
C12   O15   A    
O9    Zn4   S    
C3    C5    S    
C1    C7    S    
O2    Zn2   S    
C1    O10   A    
C6    O6    D    
C13   O2    A    
C8    C9    D    
C7    H3    S    
C3    C13   S    
