data_mof_unit_49146.cif
_audit_creation_date              2012-12-10T20:39:54-0500
_audit_creation_method            fapswitch 2.2
_symmetry_space_group_name_H-M    P1
_symmetry_Int_Tables_number       1
_space_group_crystal_system       triclinic
_cell_length_a                    23.403749
_cell_length_b                    10.742283
_cell_length_c                    9.952852
_cell_angle_alpha                 91.173694
_cell_angle_beta                  89.867383
_cell_angle_gamma                 88.963563
_cell_volume                      2501.30017906

loop_
_atom_site_label
_atom_site_type_symbol
_atom_type_description
_atom_site_fract_x
_atom_site_fract_y
_atom_site_fract_z
_atom_type_partial_charge
C1    C     C_R   0.501463 0.259759 0.498593 0.894887
C2    C     C_R   0.971521 0.397641 0.731535 -0.108183
C3    C     C_R   0.031847 0.394462 0.727784 -0.115443
C4    C     C_R   0.061291 0.448311 0.618757 -0.086299
C5    C     C_R   0.030064 0.497831 0.509572 0.000818
C6    C     C_R   0.059030 0.549015 0.397921 -0.059657
C7    C     C_R   0.027111 0.604224 0.292630 -0.145641
C8    C     C_R   0.967834 0.598957 0.295010 -0.212367
C9    C     C_R   0.121275 0.458163 0.615968 0.578610
C10   C     C_R   0.118928 0.539606 0.394706 0.565213
C11   C     C_R   0.237419 0.607676 0.537443 0.137321
C12   C     C_R   0.389767 0.499790 0.500122 0.858396
C13   C     C_R   0.297048 0.607331 0.537875 0.009188
C14   C     C_R   0.327741 0.497921 0.500023 -0.121409
C15   C     C_R   0.298586 0.388234 0.462420 0.049428
C16   C     C_R   0.238685 0.389720 0.464508 0.124790
C17   C     C_R   0.208795 0.499084 0.501221 0.256493
C18   C     C_R   0.761426 0.417735 0.420976 -0.103736
C19   C     C_R   0.702377 0.422855 0.417124 -0.210459
C20   C     C_R   0.672176 0.506764 0.501122 -0.130274
C21   C     C_R   0.701336 0.588860 0.589453 -0.099114
C22   C     C_R   0.761489 0.582631 0.592729 0.076775
C23   C     C_R   0.503374 0.738959 0.501396 0.933550
C24   C     C_R   0.790808 0.496768 0.508398 0.303465
C25   C     C_R   0.491416 0.065036 0.613078 0.126732
C26   C     C_R   0.508207 0.126543 0.497724 -0.210846
C27   C     C_R   0.537113 0.058552 0.393295 -0.063813
C28   C     C_R   0.540175 0.928291 0.398649 0.039412
C29   C     C_R   0.513958 0.869234 0.506449 -0.073964
C30   C     C_R   0.496346 0.937933 0.619183 0.057582
C31   C     C_3   0.442899 0.923986 0.699669 -0.352591
C32   C     C_3   0.434117 0.064641 0.684059 -0.076445
C33   C     C_R   0.457038 0.556378 0.071836 0.147082
C34   C     C_R   0.610245 0.502175 0.500050 0.918125
C35   C     C_R   0.545565 0.452561 0.069312 0.088215
C36   C     C_R   0.544685 0.448614 0.926520 0.048305
C37   C     C_R   0.457824 0.559334 0.930448 0.143279
C38   C     C_3   0.395177 0.538322 0.920579 -0.534688
C39   C     C_3   0.393903 0.531701 0.074081 -0.154654
C40   C     C_R   0.879678 0.543898 0.403251 0.526787
C41   C     C_R   0.879806 0.442055 0.614050 0.558303
C42   C     C_R   0.940162 0.445424 0.621207 -0.091494
C43   C     C_R   0.969841 0.496023 0.511214 -0.000946
C44   C     C_R   0.939144 0.545442 0.401968 0.001829
H1    H     H_    0.680116 0.359238 0.350551 0.195134
H2    H     H_    0.410858 0.867099 0.646376 0.123753
H3    H     H_    0.372346 0.620794 0.879752 0.220075
H4    H     H_    0.385520 0.449248 0.866935 0.236384
H5    H     H_    0.943839 0.641334 0.214259 0.207477
H6    H     H_    0.784605 0.352210 0.356072 0.167315
N1    N     N_R   0.851687 0.493047 0.508023 -0.347788
N2    N     N_R   0.147952 0.499099 0.504043 -0.337287
N3    N     N_R   0.499610 0.499140 0.142800 -0.093412
N4    N     N_R   0.499610 0.499180 0.857150 -0.141861
O1    O     O_R   0.500010 0.316790 0.614690 -0.555541
O2    O     O_2   0.848912 0.387070 0.709992 -0.517640
O3    O     O_2   0.153295 0.429256 0.723858 -0.500903
O4    O     O_2   0.148484 0.567673 0.283155 -0.476282
O5    O     O_R   0.500000 0.316760 0.385350 -0.596994
O6    O     O_R   0.416160 0.499980 0.614700 -0.630228
O7    O     O_R   0.416150 0.499940 0.385360 -0.593119
O8    O     O_R   0.500000 0.683240 0.614650 -0.605819
O9    O     O_R   0.499990 0.683210 0.385310 -0.575476
O10   O     O_R   0.583850 0.500060 0.614640 -0.610301
O11   O     O_R   0.583840 0.500020 0.385300 -0.656638
O12   O     O_2   0.849692 0.593579 0.300995 -0.528951
Zn1   Zn    Zn3+2 0.500000 0.500020 0.653130 1.028438
Zn2   Zn    Zn3+2 0.500000 0.499980 0.346870 1.011891
C45   C     C_2   0.942334 0.352437 0.853369 1.031829
O13   O     O_2   0.943578 0.241474 0.878498 -0.578616
O14   O     O_R   0.914182 0.437700 0.939708 -0.756620
H7    H     H_    0.896429 0.396366 0.019990 0.362086
C46   C     C_2   0.669745 0.684886 0.671480 0.947031
O15   O     O_2   0.632696 0.749328 0.619432 -0.624139
O16   O     O_R   0.682262 0.701804 0.807796 -0.765293
H8    H     H_    0.657552 0.769316 0.852411 0.369016
N5    N     N_3   0.794015 0.665825 0.675824 -0.414015
H9    H     H_    0.785540 0.647502 0.776515 0.271592
H10   H     H_    0.781571 0.757515 0.655726 0.210041
C47   C     C_2   0.561603 0.117510 0.274736 0.896913
O17   O     O_2   0.612804 0.137754 0.270895 -0.641674
O18   O     O_R   0.526953 0.139330 0.163148 -0.748462
H11   H     H_    0.549270 0.169464 0.083122 0.371078
N6    N     N_3   0.567805 0.855513 0.293537 -0.399459
H12   H     H_    0.610541 0.881524 0.287483 0.228783
H13   H     H_    0.547744 0.874447 0.202241 0.225799
C48   C     C_2   0.454244 0.879797 0.840750 0.980151
O19   O     O_2   0.502463 0.848850 0.875781 -0.601070
O20   O     O_R   0.408735 0.874378 0.931205 -0.776535
H14   H     H_    0.421641 0.848062 0.023569 0.356945
N7    N     N_3   0.386694 0.094320 0.593398 -0.467774
H15   H     H_    0.348638 0.064907 0.636892 0.247451
H16   H     H_    0.391340 0.044112 0.502594 0.187720
C49   C     C_2   0.429485 0.139664 0.813574 1.019267
O21   O     O_2   0.469950 0.198073 0.857457 -0.595222
O22   O     O_R   0.377871 0.139001 0.884119 -0.754305
H17   H     H_    0.379453 0.187779 0.971547 0.361275
N8    N     N_3   0.595027 0.403178 0.133892 -0.425593
H18   H     H_    0.620197 0.477578 0.165079 0.238333
H19   H     H_    0.582055 0.351211 0.214714 0.258908
C50   C     C_2   0.063193 0.327897 0.835387 1.056666
O23   O     O_2   0.060389 0.366129 0.951822 -0.601426
O24   O     O_R   0.095415 0.220638 0.802613 -0.735701
H20   H     H_    0.114747 0.183316 0.883863 0.370783
C51   C     C_2   0.592843 0.386030 0.855351 0.992241
O25   O     O_2   0.585054 0.291239 0.788651 -0.573997
O26   O     O_R   0.647944 0.432423 0.870013 -0.770756
H21   H     H_    0.677547 0.381524 0.817205 0.357421
C52   C     C_2   0.359338 0.636085 0.140813 0.939129
O27   O     O_2   0.307975 0.645067 0.119753 -0.529460
O28   O     O_R   0.385819 0.721972 0.226625 -0.820800
H22   H     H_    0.358317 0.789026 0.261766 0.336647
C53   C     C_2   0.377297 0.404082 0.120590 0.888945
O29   O     O_2   0.327466 0.372605 0.111745 -0.594313
O30   O     O_R   0.418573 0.320922 0.169453 -0.751993
H23   H     H_    0.402353 0.237892 0.195064 0.334123
C54   C     C_2   0.052800 0.678391 0.184071 1.079979
O31   O     O_2   0.084950 0.763046 0.213022 -0.508980
O32   O     O_R   0.038612 0.657449 0.049173 -0.720867
H24   H     H_    0.012132 0.584804 0.035250 0.338216
N9    N     N_3   0.205121 0.717623 0.575183 -0.409264
H25   H     H_    0.216411 0.788916 0.510827 0.227099
H26   H     H_    0.216623 0.743982 0.673005 0.236833
N10   N     N_3   0.325697 0.718940 0.577196 -0.463643
H27   H     H_    0.350018 0.700049 0.662412 0.204339
H28   H     H_    0.353164 0.743270 0.499542 0.184585
N11   N     N_3   0.328136 0.273229 0.428137 -0.454531
H29   H     H_    0.372377 0.282139 0.429984 0.202698
H30   H     H_    0.317449 0.247914 0.329727 0.219398
N12   N     N_3   0.207226 0.280131 0.430644 -0.416326
H31   H     H_    0.220589 0.208492 0.493493 0.225984
H32   H     H_    0.216679 0.253791 0.331283 0.226741

loop_
_geom_bond_atom_site_label_1
_geom_bond_atom_site_label_2
_ccdc_geom_bond_type
C32   C49   S    
C48   O19   D    
C4    C9    A    
C50   O23   D    
C35   N3    A    
C41   C42   A    
C7    C54   S    
C35   C36   A    
C43   C44   A    
C10   N2    A    
C7    C8    A    
N5    H9    S    
C51   O26   S    
C26   C27   A    
C33   C39   S    
O8    Zn1   S    
C18   C24   A    
C23   C29   S    
C28   C29   A    
C10   O4    S    
N6    H13   S    
C52   O28   S    
C30   C31   S    
C32   N7    S    
C28   N6    S    
C15   C16   A    
C21   C46   S    
C34   O11   A    
C18   C19   A    
C46   O15   D    
C45   O14   S    
N3    Zn2   S    
C23   O8    A    
O28   H22   S    
O6    Zn1   S    
C16   C17   A    
C39   C53   S    
C31   H2    S    
O26   H21   S    
C2    C45   S    
C16   N12   S    
C38   H4    S    
C20   C34   S    
C3    C50   S    
C24   N1    S    
C23   O9    A    
C5    C43   A    
C50   O24   S    
C15   N11   S    
C21   C22   A    
C46   O16   S    
C11   N9    S    
C9    N2    A    
C17   N2    S    
N5    H10   S    
C33   N3    A    
C38   C39   S    
C31   C48   S    
O10   Zn1   S    
N6    H12   S    
C47   O18   S    
C27   C47   S    
N7    H15   S    
C13   N10   S    
C47   O17   D    
N4    Zn1   S    
C25   C26   A    
C33   C37   A    
C3    C4    A    
N12   H32   S    
O16   H8    S    
N11   H30   S    
C41   O2    S    
C37   C38   S    
O5    Zn2   S    
N7    H16   S    
C31   C32   S    
C39   C52   S    
O11   Zn2   S    
O22   H17   S    
C34   O10   A    
C38   H3    S    
C49   O21   D    
C49   O22   S    
N9    H25   S    
C37   N4    A    
C1    O5    A    
C12   C14   S    
O18   H11   S    
N8    H19   S    
C48   O20   S    
C1    C26   S    
C22   C24   A    
C42   C43   A    
N11   H29   S    
C35   N8    S    
O24   H20   S    
C18   H6    S    
N10   H28   S    
C53   O29   D    
C25   C30   A    
O9    Zn2   S    
C11   C17   A    
C36   C51   S    
C8    C44   A    
C22   N5    S    
C4    C5    A    
C6    C10   A    
O1    Zn1   S    
O32   H24   S    
C19   H1    S    
C6    C7    A    
C40   N1    A    
C51   O25   D    
C54   O31   D    
C19   C20   A    
C54   O32   S    
N12   H31   S    
C1    O1    A    
O14   H7    S    
C52   O27   D    
C12   O7    A    
C11   C13   A    
O7    Zn2   S    
C5    C6    A    
C2    C42   A    
C2    C3    A    
C9    O3    S    
C45   O13   D    
N9    H26   S    
C36   N4    A    
C29   C30   A    
C12   O6    A    
C40   C44   A    
C20   C21   A    
N8    H18   S    
C27   C28   A    
C14   C15   A    
C40   O12   S    
O20   H14   S    
C13   C14   A    
C8    H5    S    
C41   N1    A    
O30   H23   S    
N10   H27   S    
C53   O30   S    
C25   C32   S    
