data_mof_unit_51049.cif
_audit_creation_date              2012-12-11T14:22:57-0500
_audit_creation_method            fapswitch 2.2
_symmetry_space_group_name_H-M    P1
_symmetry_Int_Tables_number       1
_space_group_crystal_system       triclinic
_cell_length_a                    11.02693
_cell_length_b                    10.998664
_cell_length_c                    18.841494
_cell_angle_alpha                 90.255903
_cell_angle_beta                  90.611606
_cell_angle_gamma                 59.523133
_cell_volume                      1969.28471441

loop_
_atom_site_label
_atom_site_type_symbol
_atom_type_description
_atom_site_fract_x
_atom_site_fract_y
_atom_site_fract_z
_atom_type_partial_charge
C1    C     C_R   0.237418 0.644893 0.610000 0.526077
C2    C     C_3   0.759368 0.500548 0.800698 -0.251064
C3    C     C_3   0.686730 0.661237 0.816222 0.133846
C4    C     C_3   0.647221 0.616059 0.683626 -0.005275
C5    C     C_3   0.720394 0.704368 0.687023 -0.186265
C6    C     C_3   0.738965 0.474880 0.722721 -0.249893
C7    C     C_R   0.700894 0.125027 0.816331 -0.011758
C8    C     C_R   0.807077 0.135497 0.779167 0.007688
C9    C     C_R   0.809051 0.129303 0.703197 0.036139
C10   C     C_R   0.595931 0.116319 0.704171 -0.169642
C11   C     C_R   0.599946 0.111301 0.776711 -0.161584
C12   C     C_R   0.628203 0.586583 0.608780 0.563652
C13   C     C_R   0.909453 0.154420 0.814700 -0.117619
C14   C     C_R   0.018113 0.153468 0.777641 -0.170544
C15   C     C_R   0.029200 0.131101 0.704898 -0.132198
C16   C     C_R   0.928748 0.114907 0.667042 0.022190
C17   C     C_R   0.689161 0.141628 0.667183 -0.012971
C18   C     C_R   0.179900 0.669505 0.834595 -0.003224
C19   C     C_R   0.209228 0.543470 0.800068 0.056085
C20   C     C_R   0.203340 0.540440 0.724532 0.043147
C21   C     C_R   0.175973 0.774170 0.721767 -0.178848
C22   C     C_R   0.169831 0.780763 0.794553 -0.168942
C23   C     C_R   0.632923 0.221766 0.600648 0.534319
C24   C     C_R   0.241887 0.421350 0.839190 -0.062613
C25   C     C_R   0.255167 0.302954 0.805474 -0.124272
C26   C     C_R   0.236712 0.303792 0.732498 -0.127917
C27   C     C_R   0.207681 0.421738 0.692429 -0.061235
C28   C     C_R   0.192868 0.656339 0.684894 -0.020406
C29   C     C_R   0.714184 0.684222 0.179839 0.003415
C30   C     C_R   0.790274 0.543017 0.208240 0.045589
C31   C     C_R   0.738244 0.515176 0.269112 0.016530
C32   C     C_R   0.585971 0.767299 0.289571 -0.130847
C33   C     C_R   0.617994 0.795000 0.222499 -0.166964
C34   C     C_R   0.219972 0.653255 0.401519 0.543304
C35   C     C_R   0.914968 0.426516 0.178427 -0.089419
C36   C     C_R   0.972927 0.290108 0.202911 -0.145698
C37   C     C_R   0.911969 0.264034 0.258885 -0.121658
C38   C     C_R   0.790667 0.373707 0.287805 -0.083398
C39   C     C_R   0.641413 0.627793 0.312295 0.005816
C40   C     C_R   0.663555 0.147541 0.178431 0.029078
C41   C     C_R   0.529559 0.220680 0.207616 0.054616
C42   C     C_R   0.517056 0.202190 0.280122 -0.000884
C43   C     C_R   0.769769 0.089031 0.296401 -0.188622
C44   C     C_R   0.783223 0.076784 0.223170 -0.169352
C45   C     C_R   0.620559 0.596210 0.385113 0.550298
C46   C     C_R   0.407776 0.295573 0.164940 0.275380
C47   C     C_R   0.281865 0.311948 0.189278 -0.111142
C48   C     C_R   0.271519 0.274469 0.258241 -0.186786
C49   C     C_R   0.387279 0.220512 0.303553 -0.103251
C50   C     C_R   0.636653 0.162304 0.325224 0.000026
C51   C     C_R   0.149852 0.669620 0.183789 0.013307
C52   C     C_R   0.214941 0.738968 0.214242 0.030856
C53   C     C_R   0.190375 0.773811 0.285971 0.031363
C54   C     C_R   0.105811 0.609551 0.300339 -0.149132
C55   C     C_R   0.088859 0.612886 0.227589 -0.151478
C56   C     C_R   0.616291 0.225036 0.396120 0.533201
C57   C     C_R   0.282257 0.794325 0.172974 -0.063121
C58   C     C_R   0.294938 0.906183 0.198418 -0.117374
C59   C     C_R   0.248079 0.958022 0.266125 -0.154542
C60   C     C_R   0.195821 0.893578 0.309570 -0.094588
C61   C     C_R   0.159644 0.687653 0.330373 0.000180
C62   C     C_R   0.705744 0.093460 0.893206 0.547408
C63   C     C_R   0.718407 0.684123 0.890350 0.596549
C64   C     C_R   0.119155 0.705331 0.906084 0.552376
C65   C     C_R   0.678663 0.102450 0.105051 0.601455
C66   C     C_R   0.733793 0.713347 0.106213 0.548284
C67   C     C_3   0.526225 0.727394 0.801000 0.060822
C68   C     C_R   0.095070 0.707624 0.112225 0.522507
C69   C     C_3   0.504470 0.696341 0.722815 -0.216190
C70   C     C_3   0.746102 0.728994 0.764987 0.122507
Cr1   Cr    Cr6+3 0.392940 0.397950 0.502230 0.993088
Cr2   Cr    Cr6+3 0.398400 0.708500 0.501260 0.988117
Cr3   Cr    Cr6+3 0.708640 0.393530 0.496460 0.979712
Cr4   Cr    Cr6+3 0.937880 0.938320 0.007620 1.009675
Cr5   Cr    Cr6+3 0.625560 0.937220 0.994510 1.040335
Cr6   Cr    Cr6+3 0.938080 0.625010 0.001190 0.995967
H1    H     H_    0.843717 0.414946 0.697306 0.175232
H2    H     H_    0.821904 0.649498 0.658030 0.161333
H3    H     H_    0.511181 0.111368 0.677329 0.147490
H4    H     H_    0.904926 0.175830 0.870767 0.144652
H5    H     H_    0.523496 0.091912 0.801435 0.185028
H6    H     H_    0.096641 0.165696 0.806138 0.115388
H7    H     H_    0.120026 0.119635 0.677694 0.101077
H8    H     H_    0.176418 0.859521 0.694500 0.151571
H9    H     H_    0.483789 0.678381 0.837408 0.114447
H10   H     H_    0.260866 0.415094 0.895869 0.123514
H11   H     H_    0.152370 0.876843 0.819481 0.154332
H12   H     H_    0.280785 0.209864 0.836168 0.120528
H13   H     H_    0.249049 0.210954 0.706423 0.097765
H14   H     H_    0.184954 0.418228 0.636971 0.139322
H15   H     H_    0.517568 0.854817 0.323466 0.140486
H16   H     H_    0.978064 0.434935 0.138407 0.144948
H17   H     H_    0.568910 0.903143 0.204152 0.126883
H18   H     H_    0.067239 0.205414 0.179248 0.117914
H19   H     H_    0.959942 0.158954 0.279953 0.118180
H20   H     H_    0.455626 0.629504 0.722425 0.099734
H21   H     H_    0.737241 0.348919 0.324972 0.166687
H22   H     H_    0.862176 0.044392 0.330470 0.114269
H23   H     H_    0.887751 0.012249 0.201692 0.161170
H24   H     H_    0.192885 0.355311 0.154256 0.086171
H25   H     H_    0.172876 0.290714 0.277856 0.123775
H26   H     H_    0.374733 0.185364 0.354918 0.148527
H27   H     H_    0.073850 0.549958 0.332956 0.134558
H28   H     H_    0.314737 0.758720 0.119102 0.140629
H29   H     H_    0.026814 0.572631 0.205595 0.124811
H30   H     H_    0.431762 0.796505 0.694657 0.164369
H31   H     H_    0.336564 0.955653 0.164792 0.123970
H32   H     H_    0.253526 0.047148 0.285761 0.106053
H33   H     H_    0.153787 0.943404 0.360099 0.131580
H34   H     H_    0.689795 0.844041 0.775176 0.161654
H35   H     H_    0.653392 0.807951 0.660372 0.103916
H36   H     H_    0.874371 0.447114 0.811983 0.197036
H37   H     H_    0.714716 0.451686 0.835472 0.091983
H38   H     H_    0.687285 0.410753 0.719473 0.127221
O1    O     O_R   0.507340 0.255690 0.581430 -0.522943
O2    O     O_R   0.524510 0.695820 0.424050 -0.493475
O3    O     O_R   0.736370 0.504260 0.414810 -0.518980
O4    O     O_R   0.691220 0.277270 0.422180 -0.539184
O5    O     O_3   0.499990 0.499990 0.499980 -0.268724
O6    O     O_R   0.089570 0.825450 0.930590 -0.526737
O7    O     O_R   0.818700 0.054260 0.929860 -0.505425
O8    O     O_R   0.606310 0.077010 0.915520 -0.513578
O9    O     O_R   0.646730 0.806540 0.917560 -0.459120
O10   O     O_R   0.837290 0.593240 0.915240 -0.504099
O11   O     O_R   0.065320 0.635310 0.931580 -0.485433
O12   O     O_R   0.280360 0.527380 0.578910 -0.512263
O13   O     O_R   0.068470 0.828620 0.091850 -0.526880
O14   O     O_R   0.799150 0.057200 0.079350 -0.513390
O15   O     O_R   0.585220 0.080180 0.076770 -0.494983
O16   O     O_R   0.627170 0.809480 0.067050 -0.505731
O17   O     O_R   0.816200 0.596410 0.076500 -0.539326
O18   O     O_R   0.045770 0.638240 0.081070 -0.550169
O19   O     O_3   0.833840 0.833520 0.001110 -0.275241
O20   O     O_R   0.260600 0.739610 0.584580 -0.551195
O21   O     O_R   0.532370 0.695050 0.573830 -0.504132
O22   O     O_R   0.744850 0.503430 0.576380 -0.521565
O23   O     O_R   0.699080 0.276500 0.571950 -0.520366
O24   O     O_R   0.498860 0.256520 0.419860 -0.526101
O25   O     O_R   0.272490 0.528150 0.429140 -0.490937
O26   O     O_R   0.252110 0.740440 0.423010 -0.541029
O27   O     O_3   0.454839 0.874000 0.812500 -0.737424
H39   H     H_    0.353050 0.906363 0.814381 0.313813
O28   O     O_3   0.890444 0.673814 0.777422 -0.705333
H40   H     H_    0.913470 0.742801 0.757165 0.320673
C71   C     C_3   0.964726 0.065086 0.591183 -0.365658
H41   H     H_    0.901511 0.019954 0.570275 0.131808
H42   H     H_    0.952584 0.152456 0.556882 0.148720
H43   H     H_    0.076084 0.981465 0.587620 0.139735
O29   O     O_3   0.414966 0.349766 0.099993 -0.697383
H44   H     H_    0.320502 0.397814 0.077176 0.319659

loop_
_geom_bond_atom_site_label_1
_geom_bond_atom_site_label_2
_ccdc_geom_bond_type
C8    C13   A    
Cr3   O5    S    
Cr5   O8    S    
C41   C42   A    
C35   C36   A    
C43   H22   S    
C69   H20   S    
C63   O10   A    
O29   H44   S    
C7    C8    A    
C11   H5    S    
C26   H13   S    
C7    C11   A    
C2    H36   S    
C26   C27   A    
C17   C23   S    
C30   C35   A    
C55   H29   S    
Cr5   O9    S    
C36   C37   A    
C9    C16   A    
C18   C19   A    
C30   C31   A    
C44   H23   S    
C32   H15   S    
C10   C17   A    
O28   H40   S    
Cr4   O19   S    
C29   C33   A    
C34   O25   A    
C37   H19   S    
C27   H14   S    
C58   H31   S    
C32   C39   A    
C68   O18   A    
C6    H38   S    
C60   H33   S    
C70   H34   S    
C54   C55   A    
C53   C61   A    
Cr4   O14   S    
C19   C20   A    
C8    C9    A    
C12   O21   A    
Cr6   O17   S    
C1    C28   S    
C41   C46   A    
C21   H8    S    
Cr1   O12   S    
C4    C12   S    
Cr5   O16   S    
C39   C45   S    
C35   H16   S    
C13   H4    S    
C59   C60   A    
C13   C14   A    
Cr6   O11   S    
C2    C6    S    
C38   H21   S    
C4    C69   S    
C71   H42   S    
C53   C60   A    
C71   H41   S    
Cr1   O24   S    
C67   H9    S    
Cr3   O3    S    
C15   C16   A    
C51   C52   A    
Cr6   O10   S    
C65   O14   A    
C54   H27   S    
C3    C70   S    
C1    O12   A    
C4    C6    S    
C52   C57   A    
C49   H26   S    
C10   H3    S    
C6    H1    S    
Cr2   O21   S    
C15   H7    S    
C20   C28   A    
C58   C59   A    
C25   H12   S    
C50   C56   S    
C47   H24   S    
C16   C71   S    
C67   C69   S    
C37   C38   A    
C43   C44   A    
C7    C62   S    
C29   C30   A    
C65   O15   A    
C56   O24   A    
Cr2   O20   S    
Cr4   O13   S    
Cr3   O22   S    
Cr2   O26   S    
C69   H30   S    
Cr4   O7    S    
C70   O28   S    
Cr1   O1    S    
C22   H11   S    
C24   C25   A    
C68   O13   A    
C42   C50   A    
C9    C17   A    
C48   C49   A    
C54   C61   A    
C21   C28   A    
C40   C65   S    
C14   H6    S    
C1    O20   A    
C67   O27   S    
C62   O8    A    
C71   H43   S    
Cr4   O6    S    
C52   C53   A    
C66   O17   A    
C45   O3    A    
C57   H28   S    
C46   C47   A    
C40   C41   A    
Cr3   O4    S    
C18   C22   A    
C56   O4    A    
C23   O23   A    
C3    C67   S    
C4    C5    S    
C47   C48   A    
C5    C70   S    
C33   H17   S    
C63   O9    A    
Cr6   O19   S    
Cr5   O19   S    
C43   C50   A    
Cr1   O25   S    
C20   C27   A    
C3    C63   S    
C5    H35   S    
Cr2   O2    S    
C59   H32   S    
C64   O6    A    
C31   C38   A    
Cr1   O5    S    
C32   C33   A    
C19   C24   A    
C25   C26   A    
O27   H39   S    
Cr6   O18   S    
C45   O2    A    
C18   C64   S    
C57   C58   A    
Cr3   O23   S    
C48   H25   S    
Cr2   O5    S    
C34   O26   A    
C2    H37   S    
C31   C39   A    
C2    C3    S    
C51   C55   A    
C51   C68   S    
C34   C61   S    
C10   C11   A    
C42   C49   A    
C23   O1    A    
C29   C66   S    
C36   H18   S    
C40   C44   A    
C46   O29   S    
C64   O11   A    
C12   O22   A    
C14   C15   A    
C5    H2    S    
C21   C22   A    
C24   H10   S    
C62   O7    A    
Cr5   O15   S    
C66   O16   A    
