data_mof_unit_42743.cif
_audit_creation_date              2012-12-10T18:06:47-0500
_audit_creation_method            fapswitch 2.2
_symmetry_space_group_name_H-M    P1
_symmetry_Int_Tables_number       1
_space_group_crystal_system       triclinic
_cell_length_a                    12.606904
_cell_length_b                    13.078524
_cell_length_c                    15.487367
_cell_angle_alpha                 82.325406
_cell_angle_beta                  98.523265
_cell_angle_gamma                 97.564382
_cell_volume                      2486.37961853

loop_
_atom_site_label
_atom_site_type_symbol
_atom_type_description
_atom_site_fract_x
_atom_site_fract_y
_atom_site_fract_z
_atom_type_partial_charge
C1    C     C_R   0.443590 0.307867 0.512688 0.837655
C2    C     C_R   0.438185 0.555056 0.092160 0.050831
C3    C     C_R   0.326157 0.545798 0.061495 0.156015
C4    C     C_R   0.514199 0.569833 0.032040 0.056573
C5    C     C_R   0.478643 0.552696 0.943612 -0.038546
C6    C     C_R   0.365724 0.551305 0.911722 -0.070464
C7    C     C_R   0.290428 0.548770 0.971281 -0.006941
C8    C     C_R   0.624951 0.601282 0.057894 -0.191207
C9    C     C_R   0.700736 0.604325 0.000955 -0.219378
C10   C     C_R   0.669342 0.570266 0.918771 0.171235
C11   C     C_R   0.558663 0.539262 0.891338 0.108426
C12   C     C_R   0.435508 0.513383 0.336247 0.843990
C13   C     C_R   0.747161 0.566277 0.863494 -0.199520
C14   C     C_R   0.715446 0.533458 0.780584 -0.188413
C15   C     C_R   0.532678 0.491258 0.814483 -0.185447
C16   C     C_R   0.583562 0.938510 0.338622 -0.188249
C17   C     C_R   0.577280 0.801828 0.459824 -0.038171
C18   C     C_R   0.368195 0.155596 0.609751 -0.030042
C19   C     C_R   0.369738 0.050489 0.639713 -0.173426
C20   C     C_R   0.417171 0.986891 0.595428 -0.211404
C21   C     C_R   0.461396 0.026239 0.517216 0.093634
C22   C     C_R   0.449013 0.129504 0.481053 0.088763
C23   C     C_R   0.555261 0.691902 0.486810 0.847140
C24   C     C_R   0.515818 0.965744 0.472771 0.088973
C25   C     C_R   0.541552 0.003023 0.387049 0.157874
C26   C     C_R   0.520385 0.102157 0.349261 -0.251889
C27   C     C_R   0.475639 0.165081 0.395884 -0.209061
C28   C     C_R   0.543579 0.868045 0.510406 -0.260215
C29   C     C_R   0.595953 0.836529 0.373424 -0.110125
C30   C     C_R   0.412091 0.196339 0.531277 -0.184662
C31   C     C_R   0.138678 0.684027 0.569100 -0.284170
C32   C     C_R   0.756890 0.349535 0.436339 0.061782
C33   C     C_R   0.850548 0.302033 0.445674 -0.254371
C34   C     C_R   0.564739 0.487932 0.663737 0.869223
C35   C     C_R   0.947862 0.356283 0.476107 -0.165586
C36   C     C_R   0.952266 0.461528 0.489438 0.001047
C37   C     C_R   0.855461 0.508689 0.472285 0.166173
C38   C     C_R   0.048674 0.522024 0.517879 -0.018378
C39   C     C_R   0.044510 0.624359 0.537498 0.139792
C40   C     C_R   0.949627 0.670896 0.513344 -0.301400
C41   C     C_R   0.860340 0.617123 0.467909 -0.055776
C42   C     C_R   0.150096 0.488230 0.521237 -0.013412
C43   C     C_R   0.236512 0.646077 0.571579 0.034545
C44   C     C_R   0.396789 0.526317 0.242400 -0.055508
C45   C     C_R   0.607010 0.497859 0.755441 -0.060007
C46   C     C_R   0.251307 0.533349 0.122218 -0.159482
C47   C     C_R   0.286507 0.524356 0.211922 -0.207625
C48   C     C_R   0.471458 0.542020 0.182896 -0.259238
H1    H     H_    0.831544 0.592044 0.883095 0.145071
H2    H     H_    0.612241 0.783216 0.330839 0.153268
H3    H     H_    0.538618 0.131237 0.283586 0.155356
H4    H     H_    0.599197 0.964443 0.271777 0.144841
H5    H     H_    0.532122 0.837813 0.577125 0.143796
H6    H     H_    0.414818 0.906464 0.622656 0.153294
H7    H     H_    0.336141 0.017718 0.699234 0.170283
H8    H     H_    0.460102 0.241534 0.363991 0.153404
H9    H     H_    0.310656 0.694429 0.589849 0.175189
H10   H     H_    0.453597 0.450638 0.797792 0.166840
H11   H     H_    0.951475 0.753484 0.516561 0.194447
H12   H     H_    0.137405 0.762008 0.585111 0.155942
H13   H     H_    0.161074 0.416780 0.498040 0.152358
H14   H     H_    0.681031 0.304853 0.416972 0.150897
H15   H     H_    0.017636 0.314182 0.488837 0.160744
H16   H     H_    0.846917 0.222003 0.433338 0.163279
H17   H     H_    0.774507 0.539071 0.735503 0.168155
H18   H     H_    0.784677 0.629833 0.022583 0.150196
H19   H     H_    0.165172 0.528209 0.101030 0.166404
H20   H     H_    0.227215 0.513095 0.257300 0.164937
H21   H     H_    0.555461 0.539272 0.208559 0.182091
H22   H     H_    0.654409 0.627699 0.121095 0.146757
N1    N     N_R   0.239390 0.551900 0.544730 -0.114111
N2    N     N_R   0.759950 0.448600 0.455730 -0.103456
O1    O     O_R   0.374950 0.371210 0.521360 -0.581904
O2    O     O_R   0.542050 0.338030 0.492790 -0.624122
O3    O     O_R   0.368720 0.526070 0.390200 -0.616636
O4    O     O_R   0.535820 0.492890 0.361630 -0.586636
O5    O     O_R   0.457950 0.661970 0.507210 -0.616803
O6    O     O_R   0.625050 0.628790 0.478640 -0.606898
O7    O     O_R   0.464180 0.507110 0.638370 -0.579829
O8    O     O_R   0.631280 0.473930 0.609800 -0.614056
Zn1   Zn    Zn3+2 0.388420 0.522150 0.519080 0.981741
Zn2   Zn    Zn3+2 0.611580 0.477850 0.480920 0.971640
N3    N     N_3   0.176964 0.549623 0.941019 -0.472937
H23   H     H_    0.165387 0.614343 0.894624 0.203000
H24   H     H_    0.147877 0.481798 0.912275 0.242401
C49   C     C_2   0.325129 0.220056 0.665049 0.916730
O9    O     O_2   0.250360 0.270295 0.634221 -0.618357
O10   O     O_R   0.366734 0.218900 0.753952 -0.811089
H25   H     H_    0.330363 0.265092 0.785302 0.354017
C50   C     C_2   0.799804 0.675646 0.391954 0.950349
O11   O     O_2   0.812513 0.770642 0.382561 -0.656437
O12   O     O_R   0.735117 0.622395 0.326995 -0.801901
H26   H     H_    0.704993 0.670648 0.275089 0.308744
C51   C     C_2   0.324691 0.565485 0.816710 0.876656
O13   O     O_2   0.363122 0.638973 0.769170 -0.638819
O14   O     O_R   0.243018 0.493437 0.781921 -0.819697
H27   H     H_    0.221103 0.510205 0.716678 0.359303

loop_
_geom_bond_atom_site_label_1
_geom_bond_atom_site_label_2
_ccdc_geom_bond_type
C7    N3    S    
C17   C29   A    
C19   C20   A    
C48   H21   S    
C4    C8    A    
C32   N2    A    
C26   C27   A    
C17   C23   S    
C31   C43   A    
C1    O2    A    
O12   H26   S    
C36   C37   A    
C38   C42   A    
C3    C7    A    
C5    C6    A    
C49   O10   S    
C18   C19   A    
C9    H18   S    
C1    C30   S    
C34   O8    A    
C11   C15   A    
C35   C36   A    
C8    C9    A    
C6    C51   S    
C18   C30   A    
C9    C10   A    
C44   C47   A    
C41   C50   S    
C40   H11   S    
C21   C22   A    
O2    Zn2   S    
O1    Zn1   S    
C14   C45   A    
C29   H2    S    
C16   H4    S    
C24   C25   A    
C20   H6    S    
O4    Zn2   S    
C39   C40   A    
O7    Zn1   S    
C27   H8    S    
O3    Zn1   S    
C2    C48   A    
C16   C29   A    
C31   H12   S    
C2    C4    A    
C34   O7    A    
O6    Zn2   S    
C50   O12   S    
N3    H23   S    
O5    Zn1   S    
C12   O3    A    
O14   H27   S    
C20   C21   A    
C34   C45   S    
C18   C49   S    
C23   O5    A    
C51   O14   S    
C42   H13   S    
C13   H1    S    
O8    Zn2   S    
C40   C41   A    
N3    H24   S    
C22   C27   A    
C12   O4    A    
C15   H10   S    
C37   N2    A    
C15   C45   A    
C47   H20   S    
C19   H7    S    
C16   C25   A    
C46   C47   A    
C43   N1    A    
C22   C30   A    
C49   O9    D    
C17   C28   A    
C24   C28   A    
C4    C5    A    
C10   C13   A    
C28   H5    S    
C5    C11   A    
C6    C7    A    
C3    C46   A    
C8    H22   S    
C1    O1    A    
C32   C33   A    
C36   C38   A    
C2    C3    A    
C25   C26   A    
C32   H14   S    
C46   H19   S    
C12   C44   S    
C26   H3    S    
C50   O11   D    
C38   C39   A    
C33   H16   S    
C42   N1    A    
C33   C35   A    
C14   H17   S    
C31   C39   A    
C23   O6    A    
C37   C41   A    
C51   O13   D    
C10   C11   A    
C43   H9    S    
O10   H25   S    
C21   C24   A    
C35   H15   S    
C13   C14   A    
N2    Zn2   S    
C44   C48   A    
N1    Zn1   S    
