data_mof_unit_39730.cif
_audit_creation_date              2012-12-11T17:34:10-0500
_audit_creation_method            fapswitch 2.2
_symmetry_space_group_name_H-M    P1
_symmetry_Int_Tables_number       1
_space_group_crystal_system       triclinic
_cell_length_a                    8.464929
_cell_length_b                    16.37465
_cell_length_c                    18.78615
_cell_angle_alpha                 99.458816
_cell_angle_beta                  92.447249
_cell_angle_gamma                 93.124583
_cell_volume                      2561.20124083

loop_
_atom_site_label
_atom_site_type_symbol
_atom_type_description
_atom_site_fract_x
_atom_site_fract_y
_atom_site_fract_z
_atom_type_partial_charge
Ba1   Ba    Ba6+2 0.845660 0.536000 0.465120 1.621476
Ba2   Ba    Ba6+2 0.344160 0.464070 0.534880 1.622060
C1    C     C_3   0.582523 0.782787 0.186112 -0.171073
C2    C     C_R   0.909100 0.425840 0.094834 0.025817
C3    C     C_R   0.751792 0.398527 0.072750 -0.077981
C4    C     C_3   0.104680 0.760123 0.275693 0.415415
C5    C     C_R   0.690563 0.404727 0.003856 -0.096891
C6    C     C_R   0.785623 0.437992 0.955152 0.032723
C7    C     C_R   0.943046 0.466726 0.976524 0.016015
C8    C     C_R   0.725667 0.441625 0.885216 -0.118967
C9    C     C_R   0.822902 0.469910 0.834160 -0.047141
C10   C     C_R   0.978507 0.503591 0.856421 0.006216
C11   C     C_R   0.037483 0.502194 0.928119 -0.005498
C12   C     C_3   0.568931 0.739606 0.253469 0.390707
C13   C     C_R   0.772240 0.461201 0.760661 -0.010548
C14   C     C_R   0.880658 0.481392 0.710302 -0.214658
C15   C     C_R   0.023543 0.528603 0.732731 0.068543
C16   C     C_3   0.091825 0.827087 0.227631 -0.354502
C17   C     C_R   0.074885 0.538721 0.807372 -0.048902
C18   C     C_R   0.159370 0.493386 0.069886 -0.009637
C19   C     C_R   0.216330 0.493906 0.142361 0.012635
C20   C     C_R   0.117819 0.460365 0.191796 -0.053833
C21   C     C_R   0.968975 0.421870 0.165109 -0.064097
C22   C     C_R   0.222343 0.579012 0.834319 -0.048604
C23   C     C_3   0.568974 0.308176 0.305469 0.333002
C24   C     C_R   0.283859 0.573998 0.904172 0.034371
C25   C     C_R   0.191770 0.534843 0.951131 0.002460
C26   C     C_R   0.253005 0.530105 0.021746 0.013792
C27   C     C_R   0.437894 0.606355 0.927450 -0.082863
C28   C     C_3   0.206554 0.718914 0.623989 0.318755
C29   C     C_R   0.499370 0.600523 0.996639 -0.098877
C30   C     C_R   0.407140 0.563441 0.044451 0.032150
C31   C     C_R   0.369178 0.531082 0.165710 -0.033301
C32   C     C_R   0.465372 0.561714 0.115148 -0.123352
C33   C     C_R   0.417799 0.540837 0.239779 -0.016076
C34   C     C_3   0.659957 0.269421 0.241385 -0.371780
C35   C     C_R   0.314854 0.513359 0.289126 -0.275943
C36   C     C_R   0.168425 0.470008 0.266601 0.047079
C37   C     C_R   0.381761 0.732692 0.471847 -0.309030
C38   C     C_R   0.525202 0.760433 0.509736 0.035454
C39   C     C_R   0.576289 0.844265 0.518695 -0.154118
C40   C     C_3   0.222316 0.813043 0.643800 -0.391100
C41   C     C_R   0.481293 0.902018 0.492120 0.257471
C42   C     C_R   0.328204 0.874698 0.460013 -0.033498
C43   C     C_R   0.280914 0.788820 0.448255 -0.022161
C44   C     C_R   0.619182 0.147661 0.494402 -0.125350
C45   C     C_3   0.053200 0.198956 0.718010 0.401781
C46   C     C_R   0.669539 0.230459 0.496423 0.036390
C47   C     C_R   0.721491 0.092268 0.520370 0.247832
C48   C     C_R   0.820065 0.259236 0.525611 -0.266563
C49   C     C_R   0.921272 0.207693 0.554963 -0.046781
C50   C     C_R   0.874178 0.122939 0.549184 -0.187689
C51   C     C_3   0.006395 0.278889 0.380117 0.335885
C52   C     C_3   0.020635 0.183311 0.368839 -0.069433
C53   C     C_3   0.701712 0.652957 0.682881 0.314561
C54   C     C_3   0.721596 0.682522 0.764061 -0.398658
C55   C     C_3   0.581150 0.798762 0.327073 -0.145201
C56   C     C_3   0.092101 0.106578 0.712122 -0.215283
C57   C     C_3   0.709597 0.870060 0.337381 -0.328343
C58   C     C_3   0.875732 0.133778 0.328560 -0.404844
C59   C     C_3   0.170475 0.155892 0.331445 -0.337560
C60   C     C_3   0.501088 0.864998 0.189674 -0.241507
C61   C     C_3   0.445527 0.879711 0.114676 -0.426920
C62   C     C_3   0.406056 0.325276 0.277801 -0.324071
C63   C     C_3   0.040307 0.240838 0.797678 -0.178418
C64   C     C_3   0.197098 0.262386 0.841581 -0.385013
C65   C     C_3   0.948738 0.046799 0.714804 -0.501031
C66   C     C_3   0.485067 0.133815 0.749551 -0.233852
C67   C     C_3   0.635817 0.265311 0.726697 0.400435
C68   C     C_3   0.508087 0.067222 0.684423 -0.429471
C69   C     C_3   0.066852 0.670791 0.234386 -0.114152
C70   C     C_3   0.985168 0.661528 0.158793 -0.395271
C71   C     C_3   0.639988 0.227126 0.852559 -0.402312
C72   C     C_3   0.842869 0.446173 0.632742 -0.253667
C73   C     C_3   0.215434 0.936222 0.439034 -0.367562
C74   C     C_3   0.631273 0.193838 0.770972 -0.032527
C75   C     C_R   0.004623 0.461233 0.046858 -0.005655
H1    H     H_    0.304761 0.831801 0.692036 0.120834
H2    H     H_    0.812719 0.735006 0.776046 0.125850
H3    H     H_    0.759306 0.631763 0.791950 0.051509
H4    H     H_    0.607341 0.703326 0.785219 0.114589
H5    H     H_    0.448706 0.707875 0.247895 -0.078596
H6    H     H_    0.632406 0.367329 0.330998 0.093047
H7    H     H_    0.611489 0.205133 0.220281 0.118258
H8    H     H_    0.652115 0.306166 0.197405 0.063406
H9    H     H_    0.786020 0.268204 0.257490 0.136162
H10   H     H_    0.532840 0.737790 0.138583 0.087666
H11   H     H_    0.160759 0.811777 0.178944 0.082472
H12   H     H_    0.269120 0.840981 0.598654 0.061961
H13   H     H_    0.935129 0.201611 0.691257 -0.053912
H14   H     H_    0.174975 0.097506 0.756774 0.102064
H15   H     H_    0.148888 0.087189 0.660382 0.113076
H16   H     H_    0.755598 0.296796 0.735443 -0.122757
H17   H     H_    0.617530 0.240391 0.668051 0.007698
H18   H     H_    0.736600 0.158550 0.759715 0.069733
H19   H     H_    0.673591 0.374549 0.109130 0.066606
H20   H     H_    0.568436 0.383376 0.988659 0.069098
H21   H     H_    0.604446 0.418874 0.870546 0.101000
H22   H     H_    0.894750 0.391655 0.199295 0.107284
H23   H     H_    0.104608 0.837228 0.655840 0.122976
H24   H     H_    0.294162 0.611895 0.800810 0.101815
H25   H     H_    0.511498 0.635708 0.891924 0.064020
H26   H     H_    0.618569 0.626155 0.013150 0.067498
H27   H     H_    0.584396 0.587551 0.130733 0.093034
H28   H     H_    0.229650 0.765329 0.296562 -0.077890
H29   H     H_    0.353975 0.521115 0.345553 0.075918
H30   H     H_    0.503927 0.126078 0.468968 0.100038
H31   H     H_    0.688662 0.864355 0.547671 0.111848
H32   H     H_    0.955971 0.080753 0.566194 0.076780
H33   H     H_    0.343035 0.667688 0.465372 0.076908
H34   H     H_    0.884529 0.293755 0.394188 -0.033847
H35   H     H_    0.863151 0.320874 0.520360 0.040563
H36   H     H_    0.968065 0.833036 0.209317 0.103540
H37   H     H_    0.137214 0.888411 0.257722 0.084017
H38   H     H_    0.324812 0.695875 0.612319 0.013869
H39   H     H_    0.124358 0.701753 0.575457 0.070099
H40   H     H_    0.792986 0.863635 0.293744 0.147961
H41   H     H_    0.654595 0.930326 0.338780 0.093734
H42   H     H_    0.776902 0.873088 0.389853 0.169620
H43   H     H_    0.466229 0.826581 0.336019 0.033611
H44   H     H_    0.600688 0.760743 0.369879 0.110780
H45   H     H_    0.088993 0.306318 0.426348 0.061954
H46   H     H_    0.867813 0.141940 0.271128 0.132061
H47   H     H_    0.766031 0.152382 0.354904 0.135750
H48   H     H_    0.884972 0.066614 0.330026 0.115391
H49   H     H_    0.163492 0.164722 0.274117 0.128840
H50   H     H_    0.275604 0.191341 0.359824 0.159726
H51   H     H_    0.184906 0.089109 0.332875 0.093982
H52   H     H_    0.548042 0.881907 0.079893 0.133708
H53   H     H_    0.357971 0.829408 0.088910 0.132661
H54   H     H_    0.388600 0.939740 0.119348 0.127231
H55   H     H_    0.399827 0.866345 0.224645 0.118377
H56   H     H_    0.029392 0.165230 0.423130 0.070906
H57   H     H_    0.585804 0.917481 0.213503 0.120733
H58   H     H_    0.415868 0.367178 0.237321 0.042165
H59   H     H_    0.340046 0.267187 0.251374 0.112986
H60   H     H_    0.343077 0.353939 0.324730 0.095936
H61   H     H_    0.257653 0.205624 0.848052 0.105642
H62   H     H_    0.274118 0.304899 0.816164 0.204083
H63   H     H_    0.173538 0.294988 0.896415 0.105843
H64   H     H_    0.982263 0.300046 0.798430 0.092532
H65   H     H_    0.966595 0.200227 0.826515 0.076273
H66   H     H_    0.854895 0.055285 0.674432 0.140696
H67   H     H_    0.817450 0.634412 0.662491 0.006821
H68   H     H_    0.984643 0.982013 0.702068 0.143838
H69   H     H_    0.902341 0.055609 0.769710 0.135543
H70   H     H_    0.542760 0.096243 0.637806 0.155496
H71   H     H_    0.598833 0.025198 0.698009 0.138508
H72   H     H_    0.396083 0.028833 0.669013 0.132075
H73   H     H_    0.452578 0.101775 0.795152 0.110996
H74   H     H_    0.386677 0.170631 0.736170 0.186487
H75   H     H_    0.884810 0.701268 0.157641 0.146151
H76   H     H_    0.071043 0.676028 0.118881 0.105228
H77   H     H_    0.935736 0.597069 0.142106 0.142759
H78   H     H_    0.613143 0.599226 0.672510 0.057073
H79   H     H_    0.180062 0.641254 0.228400 0.019844
H80   H     H_    0.994451 0.634433 0.267432 0.171645
H81   H     H_    0.533163 0.260240 0.868894 0.139024
H82   H     H_    0.650399 0.175218 0.883479 0.108072
H83   H     H_    0.745276 0.270640 0.867737 0.111248
H84   H     H_    0.936920 0.436589 0.597850 0.158828
H85   H     H_    0.804528 0.380349 0.630522 0.044988
H86   H     H_    0.762295 0.485484 0.607313 0.124469
H87   H     H_    0.265178 0.001323 0.451093 0.127188
H88   H     H_    0.184575 0.921766 0.380383 0.105361
H89   H     H_    0.708189 0.795768 0.175952 0.091040
H90   H     H_    0.105819 0.933060 0.469067 0.130144
N1    N     N_2   0.533280 0.987519 0.497766 -0.248775
N2    N     N_2   0.675873 0.006120 0.517015 -0.247302
O1    O     O_2   0.884010 0.444810 0.325060 -0.471072
O2    O     O_2   0.253164 0.216277 0.552370 -0.480707
O3    O     O_3   0.171228 0.243579 0.686083 -0.571798
O4    O     O_3   0.132090 0.451130 0.414310 -0.490449
O5    O     O_3   0.558660 0.599640 0.536520 -0.497253
O6    O     O_2   0.381010 0.300300 0.465220 -0.456905
O7    O     O_3   0.552545 0.250381 0.352412 -0.659119
O8    O     O_2   0.439850 0.472128 0.756969 -0.479625
O9    O     O_3   0.517305 0.319816 0.748056 -0.588238
O10   O     O_3   0.640770 0.594650 0.368950 -0.460129
O11   O     O_2   0.740029 0.526623 0.244620 -0.489382
O12   O     O_3   0.649680 0.718398 0.650492 -0.633343
O13   O     O_3   0.042218 0.312010 0.317833 -0.656979
O14   O     O_3   0.687837 0.682011 0.252198 -0.589760
O15   O     O_2   0.808690 0.699720 0.534830 -0.443814
O16   O     O_3   0.053760 0.638480 0.405010 -0.478099
O17   O     O_2   0.964824 0.784451 0.468067 -0.473507
O18   O     O_3   0.002634 0.777246 0.332768 -0.583516
O19   O     O_2   0.305690 0.555220 0.674980 -0.461769
O20   O     O_3   0.057610 0.548940 0.585700 -0.513781
O21   O     O_3   0.548930 0.405410 0.631060 -0.462262
O22   O     O_3   0.147253 0.686926 0.682762 -0.641165
O23   O     O_3   0.631040 0.400420 0.463490 -0.487799
O24   O     O_3   0.135930 0.361590 0.595000 -0.465854
P1    P     P_3+3 0.056550 0.421630 0.336220 0.957764
P2    P     P_3+3 0.635450 0.689180 0.556380 0.985559
P3    P     P_3+3 0.080032 0.746980 0.412129 0.945965
P4    P     P_3+3 0.133150 0.578440 0.663790 0.965147
P5    P     P_3+3 0.116874 0.254164 0.596484 0.968701
P6    P     P_3+3 0.616972 0.587064 0.275507 0.942464
P7    P     P_3+3 0.559474 0.295865 0.444042 0.936671
P8    P     P_3+3 0.569723 0.416586 0.725443 0.974432

loop_
_geom_bond_atom_site_label_1
_geom_bond_atom_site_label_2
_ccdc_geom_bond_type
C21   H22   S    
C53   C54   S    
C62   H59   S    
C39   H31   S    
O18   P3    S    
C42   C73   S    
Ba2   P4    S    
Ba2   O20   S    
C65   H66   S    
C16   H37   S    
C45   O3    S    
C33   P6    S    
C5    C6    A    
C52   C58   S    
C51   C52   S    
C53   H78   S    
C71   H83   S    
Ba1   O4    S    
C24   C25   A    
C35   C36   A    
C54   H2    S    
C18   C75   A    
C46   P7    S    
C14   C72   S    
O19   P4    D    
O17   P3    D    
C58   H48   S    
Ba1   P2    S    
C53   H67   S    
C22   C24   A    
C22   H24   S    
O2    P5    D    
C67   H16   S    
C51   H45   S    
Ba2   O4    S    
C72   H86   S    
Ba2   O6    S    
C55   C57   S    
C19   C31   A    
C13   C14   A    
C20   C36   A    
Ba1   O1    S    
C67   C74   S    
C8    H21   S    
Ba1   Ba2   S    
C61   H53   S    
C58   H47   S    
C7    C11   A    
C48   C49   A    
C15   C17   A    
C9    C13   A    
C37   H33   S    
O11   P6    D    
C64   H62   S    
O22   P4    S    
C6    C7    A    
C70   H75   S    
C65   H68   S    
C15   P4    S    
C59   H49   S    
O13   P1    S    
C61   H54   S    
C56   H14   S    
C37   C43   A    
C51   H34   S    
C43   P3    S    
C46   C48   A    
C62   H58   S    
O5    P2    S    
C57   H40   S    
C19   C20   A    
C27   C29   A    
C39   C41   A    
C68   H72   S    
O7    P7    S    
C4    C16   S    
C16   H36   S    
C13   P8    S    
Ba1   O15   S    
C12   O14   S    
O1    P1    D    
C62   H60   S    
C4    C69   S    
C69   H80   S    
C44   C46   A    
Ba1   O5    S    
C70   H77   S    
C1    H10   S    
C49   C50   A    
C60   H55   S    
C54   H4    S    
C59   H50   S    
C67   H17   S    
C37   C38   A    
C72   H85   S    
C2    C21   A    
C14   C15   A    
O23   P7    S    
C28   H39   S    
C18   C26   A    
C34   H9    S    
C41   N1    S    
C52   H56   S    
C71   H81   S    
C16   H11   S    
C36   P1    S    
C73   H87   S    
C23   C62   S    
C30   C32   A    
C58   H46   S    
C41   C42   A    
C71   C74   S    
C60   C61   S    
C49   P5    S    
C40   H23   S    
C67   O9    S    
C63   H64   S    
C29   C30   A    
C64   H61   S    
C26   C30   A    
C9    C10   A    
C47   C50   A    
C44   H30   S    
C65   H69   S    
C48   H35   S    
C31   C32   A    
C53   O12   S    
C64   H63   S    
C73   H88   S    
C7    C75   A    
C28   O22   S    
C10   C11   A    
O3    P5    S    
C1    C12   S    
C55   H43   S    
C66   C68   S    
N1    N2    D    
Ba2   O19   S    
C40   H1    S    
C57   H41   S    
C45   H13   S    
C44   C47   A    
C68   H71   S    
C12   H5    S    
O16   P3    S    
C25   C26   A    
C3    H19   S    
C42   C43   A    
C3    C5    A    
C1    C60   S    
O20   P4    S    
C12   C55   S    
C38   C39   A    
C57   H42   S    
C70   H76   S    
C5    H20   S    
C33   C35   A    
C11   C25   A    
Ba2   O21   S    
Ba2   O23   S    
C2    C3    A    
C72   H84   S    
C28   H38   S    
O21   P8    S    
C52   C59   S    
Ba1   O16   S    
C34   H8    S    
C66   C74   S    
O15   P2    D    
C71   H82   S    
C54   H3    S    
C40   H12   S    
Ba2   O24   S    
C17   C22   A    
C35   H29   S    
C74   H18   S    
C66   H74   S    
C51   O13   S    
Ba2   O5    S    
C45   C56   S    
C47   N2    S    
C63   H65   S    
Ba1   O10   S    
C23   O7    S    
C60   H57   S    
O10   P6    S    
C50   H32   S    
C34   H7    S    
C69   H79   S    
C4    O18   S    
C10   C17   A    
C31   C33   A    
C4    H28   S    
C27   H25   S    
Ba1   P1    S    
C59   H51   S    
O8    P8    D    
C61   H52   S    
O12   P2    S    
C32   H27   S    
O6    P7    D    
C66   H73   S    
C8    C9    A    
C23   C34   S    
C55   H44   S    
Ba1   O23   S    
O14   P6    S    
C56   C65   S    
C2    C75   A    
C69   C70   S    
C18   C19   A    
C24   C27   A    
C6    C8    A    
C63   C64   S    
O9    P8    S    
O4    P1    S    
C23   H6    S    
C20   C21   A    
C28   C40   S    
C73   H90   S    
C68   H70   S    
C56   H15   S    
C45   C63   S    
O24   P5    S    
C1    H89   S    
C29   H26   S    
C38   P2    S    
Ba1   O20   S    
