data_mof_unit_56681.cif
_audit_creation_date              2012-12-10T20:30:13-0500
_audit_creation_method            fapswitch 2.2
_symmetry_space_group_name_H-M    P1
_symmetry_Int_Tables_number       1
_space_group_crystal_system       triclinic
_cell_length_a                    9.923914
_cell_length_b                    10.709413
_cell_length_c                    13.03835
_cell_angle_alpha                 91.278277
_cell_angle_beta                  70.153297
_cell_angle_gamma                 90.556763
_cell_volume                      1303.07392281

loop_
_atom_site_label
_atom_site_type_symbol
_atom_type_description
_atom_site_fract_x
_atom_site_fract_y
_atom_site_fract_z
_atom_type_partial_charge
C1    C     C_R   0.500825 0.739797 0.498960 0.875813
C2    C     C_R   0.364983 0.491247 0.822829 -0.121650
C3    C     C_R   0.378057 0.935312 0.500303 0.078872
C4    C     C_R   0.419801 0.495549 0.704197 0.843876
C5    C     C_R   0.497873 0.872152 0.505196 -0.065785
C6    C     C_R   0.609496 0.938039 0.524720 -0.243475
C7    C     C_R   0.606169 0.066553 0.530026 -0.226262
C8    C     C_R   0.492690 0.129115 0.512806 -0.112147
C9    C     C_R   0.374542 0.063084 0.505830 0.089023
C10   C     C_3   0.300811 0.071710 0.423276 -0.092299
C11   C     C_3   0.305858 0.929411 0.415752 -0.175538
C12   C     C_R   0.421397 0.470811 0.987850 0.095634
C13   C     C_R   0.887623 0.508990 0.596240 0.143552
C14   C     C_R   0.969790 0.482867 0.405989 -0.149583
C15   C     C_R   0.113149 0.483407 0.405908 -0.126642
C16   C     C_R   0.498653 0.260432 0.501874 0.867988
C17   C     C_R   0.029697 0.504140 0.595455 0.134536
C18   C     C_3   0.007709 0.596838 0.685468 -0.146736
C19   C     C_3   0.853625 0.612012 0.684468 0.156936
C20   C     C_R   0.579625 0.495864 0.295573 0.879563
C21   C     C_R   0.744150 0.330423 0.025123 -0.257892
C22   C     C_R   0.625528 0.468071 0.178878 -0.059844
C23   C     C_R   0.443836 0.432327 0.879443 0.063931
C24   C     C_R   0.243848 0.562503 0.880071 -0.195962
C25   C     C_R   0.205645 0.580809 0.992002 -0.160123
C26   C     C_R   0.295325 0.538338 0.045626 -0.201480
C27   C     C_3   0.810201 0.737893 0.647895 -0.350403
C28   C     C_3   0.804041 0.848829 0.725796 -0.948649
C29   C     C_R   0.528375 0.443747 0.032739 0.078568
C30   C     C_R   0.639591 0.358523 0.978853 0.150989
C31   C     C_R   0.645133 0.303887 0.879232 -0.219627
C32   C     C_R   0.549749 0.342062 0.828807 -0.192459
C33   C     C_R   0.530878 0.504208 0.127530 -0.319404
C34   C     C_R   0.735943 0.382807 0.126654 0.095459
H1    H     H_    0.696285 0.116140 0.540803 0.172424
H2    H     H_    0.182328 0.608529 0.837769 0.150665
H3    H     H_    0.263149 0.558103 0.132137 0.121965
H4    H     H_    0.110790 0.634145 0.036260 0.142295
H5    H     H_    0.560962 0.302320 0.749256 0.159582
H6    H     H_    0.702629 0.891607 0.530064 0.170686
H7    H     H_    0.938363 0.364952 0.126183 0.182470
H8    H     H_    0.826304 0.247966 0.187427 0.182317
H9    H     H_    0.103196 0.107653 0.414765 0.182503
H10   H     H_    0.098184 0.072237 0.541180 0.181511
H11   H     H_    0.353604 0.904819 0.251861 0.183723
H12   H     H_    0.365424 0.120716 0.347936 0.175723
H13   H     H_    0.404787 0.786870 0.311671 0.197923
H14   H     H_    0.085427 0.764598 0.720762 0.176851
H15   H     H_    0.092145 0.750552 0.588396 0.195986
H16   H     H_    0.774048 0.609587 0.852547 0.180696
H17   H     H_    0.647847 0.602473 0.795389 0.214062
H18   H     H_    0.754885 0.822127 0.812295 0.267202
H19   H     H_    0.911601 0.889176 0.712118 0.251427
H20   H     H_    0.737618 0.924071 0.710287 0.253187
H21   H     H_    0.880244 0.760854 0.563931 0.182730
H22   H     H_    0.700436 0.725662 0.646092 0.240498
H23   H     H_    0.199707 0.882084 0.442978 0.143483
H24   H     H_    0.950104 0.470769 0.329763 0.164941
H25   H     H_    0.199764 0.471599 0.329278 0.151090
H26   H     H_    0.014832 0.550974 0.759069 0.145530
H27   H     H_    0.727563 0.236614 0.837726 0.143443
H28   H     H_    0.829127 0.264928 0.984492 0.138659
H29   H     H_    0.454938 0.577024 0.166394 0.146248
N1    N     N_R   0.856940 0.500860 0.500710 -0.116819
N2    N     N_R   0.142580 0.500820 0.500710 -0.088633
N3    N     N_3   0.834764 0.344784 0.178323 -0.453939
N4    N     N_3   0.155543 0.121785 0.471442 -0.436051
N5    N     N_3   0.401473 0.884266 0.309606 -0.452143
N6    N     N_3   0.104940 0.703702 0.653682 -0.396524
N7    N     N_3   0.749530 0.569291 0.787181 -0.439256
O1    O     O_R   0.385310 0.683210 0.499990 -0.602995
O2    O     O_R   0.614650 0.683240 0.500000 -0.642518
O3    O     O_R   0.328390 0.499940 0.653610 -0.594015
O4    O     O_R   0.557730 0.499980 0.653620 -0.620160
O5    O     O_R   0.385350 0.316760 0.500000 -0.594123
O6    O     O_R   0.614690 0.316790 0.500010 -0.618710
O7    O     O_R   0.442270 0.500020 0.346380 -0.632058
O8    O     O_R   0.671610 0.500060 0.346390 -0.590943
Zn1   Zn    Zn3+2 0.346870 0.499980 0.499990 0.954648
Zn2   Zn    Zn3+2 0.653130 0.500020 0.500010 0.935636

loop_
_geom_bond_atom_site_label_1
_geom_bond_atom_site_label_2
_ccdc_geom_bond_type
N2    Zn1   S    
C12   C29   A    
C16   O5    A    
C31   H27   S    
H14   N6    S    
C34   N3    S    
O1    Zn1   S    
C7    C8    A    
C10   N4    S    
C12   C23   A    
C24   H2    S    
C20   O7    A    
C1    C5    S    
C30   C31   A    
O8    Zn2   S    
C15   N2    A    
C29   C33   A    
C18   C19   S    
C32   H5    S    
C8    C9    A    
C10   H12   S    
H17   N7    S    
C19   C27   S    
C9    C10   S    
C4    O4    A    
C18   N6    S    
C8    C16   S    
O4    Zn2   S    
N1    Zn2   S    
C15   H25   S    
C14   H24   S    
C4    O3    A    
O7    Zn1   S    
C22   C34   A    
C1    O2    A    
C13   C19   S    
C24   C25   A    
C28   H20   S    
C27   H22   S    
C21   C34   A    
C25   C26   A    
C12   C26   A    
C2    C4    S    
C29   C30   A    
C3    C9    A    
C25   H4    S    
C31   C32   A    
C33   H29   S    
C14   N1    A    
H11   N5    S    
C17   C18   S    
O3    Zn1   S    
C1    O1    A    
C21   H28   S    
H7    N3    S    
C18   H26   S    
C20   C22   S    
C2    C24   A    
C6    H6    S    
H13   N5    S    
C2    C23   A    
C11   N5    S    
C22   C33   A    
C16   O6    A    
C7    H1    S    
O6    Zn2   S    
C3    C5    A    
C28   H19   S    
C26   H3    S    
C6    C7    A    
C13   C17   A    
C21   C30   A    
C17   N2    A    
C20   O8    A    
C23   C32   A    
H16   N7    S    
O2    Zn2   S    
C11   H23   S    
C28   H18   S    
C5    C6    A    
C13   N1    A    
C27   H21   S    
C3    C11   S    
C10   C11   S    
H9    N4    S    
C27   C28   S    
H8    N3    S    
C14   C15   A    
H10   N4    S    
H15   N6    S    
C19   N7    S    
O5    Zn1   S    
