data_mof_unit_64959.cif
_audit_creation_date              2012-12-11T15:44:54-0500
_audit_creation_method            fapswitch 2.2
_symmetry_space_group_name_H-M    P1
_symmetry_Int_Tables_number       1
_space_group_crystal_system       triclinic
_cell_length_a                    22.708155
_cell_length_b                    30.554437
_cell_length_c                    19.073902
_cell_angle_alpha                 89.865938
_cell_angle_beta                  123.493152
_cell_angle_gamma                 89.97314
_cell_volume                      11036.5788028

loop_
_atom_site_label
_atom_site_type_symbol
_atom_type_description
_atom_site_fract_x
_atom_site_fract_y
_atom_site_fract_z
_atom_type_partial_charge
C1    C     C_R   0.126680 0.388811 0.067793 -0.193798
C2    C     C_R   0.127999 0.610073 0.067996 -0.205549
C3    C     C_R   0.626663 0.888797 0.067784 -0.198660
C4    C     C_R   0.628049 0.110036 0.067998 -0.200928
C5    C     C_R   0.872106 0.386126 0.937014 0.408441
C6    C     C_R   0.886042 0.620464 0.936825 0.441835
C7    C     C_R   0.371919 0.886238 0.937100 0.408317
C8    C     C_R   0.386016 0.120436 0.936787 0.444432
C9    C     C_R   0.950613 0.614886 0.075383 0.701649
C10   C     C_R   0.948630 0.386695 0.076515 0.739845
C11   C     C_R   0.450632 0.114893 0.075376 0.703008
C12   C     C_R   0.448541 0.886761 0.076559 0.739628
C13   C     C_R   0.016247 0.499854 0.267137 -0.417413
C14   C     C_R   0.516311 0.999859 0.267180 -0.417197
C15   C     C_R   0.754519 0.496502 0.777288 -0.229786
C16   C     C_R   0.254605 0.996359 0.777854 -0.241848
C17   C     C_R   0.890238 0.365091 0.011601 -0.340142
C18   C     C_R   0.898485 0.639746 0.008965 -0.297124
C19   C     C_R   0.390030 0.865236 0.011687 -0.338512
C20   C     C_R   0.398512 0.139752 0.008952 -0.295687
C21   C     C_3   0.454057 0.539536 0.497101 0.861552
C22   C     C_3   0.452252 0.455674 0.491272 0.842655
C23   C     C_3   0.946720 0.042568 0.510913 0.922671
C24   C     C_3   0.962714 0.965616 0.472838 0.831775
C25   C     C_3   0.532094 0.458721 0.561880 0.915026
C26   C     C_3   0.526308 0.541421 0.583009 0.854112
C27   C     C_3   0.038049 0.962299 0.553648 0.877957
C28   C     C_3   0.023439 0.040919 0.591566 0.860982
C29   C     C_1   0.680551 0.494114 0.731924 0.047573
C30   C     C_1   0.180704 0.993625 0.732571 0.028947
C31   C     C_3   0.414011 0.497266 0.496635 -0.580101
C32   C     C_3   0.915065 0.994077 0.493551 -0.644978
C33   C     C_3   0.543039 0.495004 0.626948 -0.592200
C34   C     C_3   0.043857 0.992239 0.624538 -0.569047
C35   C     C_R   0.064372 0.608132 0.929948 0.688441
C36   C     C_R   0.059627 0.388919 0.929697 0.789462
C37   C     C_R   0.564470 0.108067 0.929957 0.686457
C38   C     C_R   0.559598 0.888904 0.929694 0.789832
C39   C     C_3   0.490547 0.485108 0.657680 0.663637
C40   C     C_3   0.994891 0.973774 0.654301 0.755050
C41   C     C_3   0.410664 0.495851 0.577742 0.791296
C42   C     C_3   0.914373 0.978042 0.574560 0.698677
C43   C     C_1   0.617985 0.493521 0.690280 0.205150
C44   C     C_1   0.118230 0.992156 0.690012 0.336174
C45   C     C_1   0.344306 0.498387 0.420483 0.360572
C46   C     C_1   0.845325 0.996583 0.418923 0.245568
C47   C     C_1   0.291257 0.499102 0.353030 0.115602
C48   C     C_1   0.791779 0.998526 0.352187 0.099247
C49   C     C_1   0.167133 0.662573 0.999668 0.088424
C50   C     C_1   0.161935 0.334097 0.998409 0.101758
C51   C     C_1   0.667336 0.162443 0.999673 0.092569
C52   C     C_1   0.661856 0.834052 0.998421 0.097858
C53   C     C_1   0.205127 0.691788 0.003683 0.006393
C54   C     C_1   0.199924 0.305292 0.000876 0.013358
C55   C     C_1   0.705387 0.191621 0.003677 0.010058
C56   C     C_1   0.699804 0.805221 0.000897 0.009722
C57   C     C_1   0.250021 0.726391 0.010147 0.011278
C58   C     C_1   0.245672 0.271853 0.005120 0.014466
C59   C     C_1   0.750337 0.226193 0.010131 0.013802
C60   C     C_1   0.745492 0.771752 0.005120 0.012204
C61   C     C_1   0.787637 0.256198 0.015393 0.006811
C62   C     C_1   0.784177 0.743093 0.008763 0.009803
C63   C     C_1   0.287289 0.756413 0.015414 0.005895
C64   C     C_1   0.284404 0.243212 0.008798 0.011657
C65   C     C_1   0.828903 0.292491 0.019480 -0.006900
C66   C     C_1   0.828140 0.708716 0.012018 -0.006225
C67   C     C_1   0.328544 0.792706 0.019507 -0.007562
C68   C     C_1   0.328393 0.208835 0.012090 -0.005377
C69   C     C_R   0.980451 0.464088 0.774770 0.607490
C70   C     C_R   0.975683 0.536617 0.772044 0.714586
C71   C     C_R   0.480488 0.964090 0.774794 0.606548
C72   C     C_R   0.475672 0.036614 0.772033 0.715366
C73   C     C_1   0.859959 0.324724 0.018945 0.145288
C74   C     C_1   0.862769 0.678252 0.012617 0.153641
C75   C     C_1   0.359637 0.824920 0.018993 0.144263
C76   C     C_1   0.362972 0.178340 0.012678 0.151716
C77   C     C_1   0.014821 0.499837 0.341797 0.208855
C78   C     C_1   0.514891 0.999847 0.341844 0.204093
C79   C     C_1   0.010484 0.499981 0.402146 0.009483
C80   C     C_1   0.510547 0.999994 0.402188 0.007764
C81   C     C_1   0.003126 0.500255 0.471210 0.014072
C82   C     C_1   0.503176 0.000269 0.471243 0.013468
C83   C     C_1   0.996195 0.500504 0.529626 0.016964
C84   C     C_1   0.496234 0.000515 0.529651 0.016446
C85   C     C_1   0.988587 0.500736 0.598502 0.010705
C86   C     C_1   0.488617 0.000740 0.598520 0.010594
C87   C     C_1   0.983855 0.500801 0.658564 0.194472
C88   C     C_1   0.483879 0.000801 0.658578 0.194280
C89   C     C_R   0.193791 0.535480 0.226080 0.656560
C90   C     C_R   0.193750 0.464094 0.225715 0.664779
C91   C     C_R   0.693851 0.035442 0.226091 0.671247
C92   C     C_R   0.693818 0.964041 0.225417 0.642710
C93   C     C_R   0.119088 0.369480 0.998133 -0.171423
C94   C     C_R   0.123262 0.627694 0.998666 -0.130841
C95   C     C_R   0.619056 0.869465 0.998127 -0.171718
C96   C     C_R   0.623378 0.127616 0.998676 -0.131255
C97   C     C_R   0.981796 0.500618 0.732789 -0.340878
C98   C     C_R   0.481810 0.000617 0.732797 -0.340657
C99   C     C_R   0.232660 0.499621 0.270120 -0.351660
C100  C     C_R   0.732681 0.999513 0.269827 -0.346027
C101  C     C_R   0.019443 0.463633 0.226103 0.704374
C102  C     C_R   0.019684 0.536168 0.226258 0.719829
C103  C     C_R   0.519504 0.963637 0.226147 0.703437
C104  C     C_R   0.519710 0.036172 0.226273 0.716753
C105  C     C_R   0.796328 0.533053 0.810208 0.453352
C106  C     C_R   0.799064 0.463243 0.792395 0.425636
C107  C     C_R   0.296285 0.033037 0.810257 0.458125
C108  C     C_R   0.299170 0.963190 0.792532 0.431890
H1    H     H_    0.163737 0.379437 0.132456 0.223613
H2    H     H_    0.164579 0.619571 0.132577 0.219971
H3    H     H_    0.663703 0.879383 0.132422 0.224623
H4    H     H_    0.664639 0.119523 0.132579 0.222925
N1    N     N_R   0.075400 0.419050 0.040930 -0.078946
N2    N     N_R   0.075400 0.580950 0.040930 -0.076036
N3    N     N_R   0.575400 0.919050 0.040930 -0.077534
N4    N     N_R   0.575400 0.080950 0.040930 -0.077480
N5    N     N_R   0.035610 0.578860 0.956800 -0.143012
N6    N     N_R   0.035610 0.421140 0.956800 -0.133755
N7    N     N_R   0.535610 0.078860 0.956800 -0.143128
N8    N     N_R   0.535610 0.921140 0.956800 -0.133939
N9    N     N_R   0.976800 0.476930 0.840160 -0.174944
N10   N     N_R   0.976800 0.523070 0.840160 -0.170215
N11   N     N_R   0.476800 0.976930 0.840160 -0.175295
N12   N     N_R   0.476800 0.023070 0.840160 -0.170220
N13   N     N_R   0.134210 0.520980 0.157560 -0.142242
N14   N     N_R   0.134210 0.479020 0.157560 -0.145104
N15   N     N_R   0.634210 0.020980 0.157560 -0.144201
N16   N     N_R   0.634210 0.979020 0.157560 -0.142490
N17   N     N_R   0.020160 0.476910 0.158980 -0.170449
N18   N     N_R   0.020160 0.523090 0.158980 -0.167347
N19   N     N_R   0.520160 0.976910 0.158980 -0.169487
N20   N     N_R   0.520160 0.023090 0.158980 -0.167016
N21   N     N_R   0.864590 0.520950 0.843300 -0.137988
N22   N     N_R   0.864590 0.479050 0.843300 -0.159533
N23   N     N_R   0.364590 0.020950 0.843300 -0.137839
N24   N     N_R   0.364590 0.979050 0.843300 -0.160035
N25   N     N_R   0.919150 0.419020 0.955970 -0.146159
N26   N     N_R   0.919150 0.580980 0.955970 -0.169709
N27   N     N_R   0.419150 0.919020 0.955970 -0.146530
N28   N     N_R   0.419150 0.080980 0.955970 -0.169315
N29   N     N_R   0.965610 0.578840 0.046310 -0.154720
N30   N     N_R   0.965610 0.421160 0.046310 -0.153597
N31   N     N_R   0.465610 0.078840 0.046310 -0.154668
N32   N     N_R   0.465610 0.921160 0.046310 -0.152970
Ni1   Ni    Ni4+2 0.047340 0.448440 0.099050 0.292994
Ni2   Ni    Ni4+2 0.047340 0.551560 0.099050 0.285545
Ni3   Ni    Ni4+2 0.547340 0.948440 0.099050 0.292064
Ni4   Ni    Ni4+2 0.547340 0.051560 0.099050 0.283533
Ni5   Ni    Ni4+2 0.950540 0.549450 0.900950 0.186248
Ni6   Ni    Ni4+2 0.950540 0.450550 0.900950 0.205884
Ni7   Ni    Ni4+2 0.450540 0.049450 0.900950 0.186643
Ni8   Ni    Ni4+2 0.450540 0.950550 0.900950 0.204926
F1    F     F_    0.466806 0.536236 0.433399 -0.675392
F2    F     F_    0.445096 0.455289 0.413431 -0.704459
F3    F     F_    0.950584 0.057180 0.443963 -0.682263
F4    F     F_    0.968252 0.987140 0.411855 -0.660509
O1    O     O_3   0.424058 0.416975 0.504196 -0.588392
C109  C     C_3   0.386941 0.390057 0.432446 0.405931
H5    H     H_    0.423935 0.375883 0.417525 0.108755
H6    H     H_    0.344351 0.408636 0.377354 0.150714
C110  C     C_3   0.352883 0.352769 0.450580 -0.804171
H7    H     H_    0.314773 0.366058 0.464340 0.276411
H8    H     H_    0.324296 0.330922 0.395076 0.217445
H9    H     H_    0.393976 0.333500 0.505568 0.250180
O2    O     O_3   0.414845 0.578237 0.487986 -0.610945
C111  C     C_3   0.386388 0.599866 0.410037 0.345507
H10   H     H_    0.354420 0.577336 0.356287 0.143446
H11   H     H_    0.429265 0.614177 0.405684 0.111485
C112  C     C_3   0.338614 0.636779 0.403320 -0.779440
H12   H     H_    0.369488 0.660636 0.454910 0.238716
H13   H     H_    0.315274 0.653861 0.342024 0.219918
H14   H     H_    0.295352 0.623385 0.407851 0.296908
O3    O     O_3   0.936867 0.922402 0.444892 -0.691028
C113  C     C_3   0.907385 0.915158 0.358279 0.342605
H15   H     H_    0.949190 0.916536 0.344873 0.139540
H16   H     H_    0.865581 0.939552 0.318502 0.135299
C114  C     C_3   0.874446 0.869820 0.334458 -0.916841
H17   H     H_    0.830486 0.867541 0.343883 0.281197
H18   H     H_    0.853246 0.863379 0.267267 0.225954
H19   H     H_    0.914814 0.844617 0.373761 0.270485
O4    O     O_3   0.906191 0.072944 0.524920 -0.594382
C115  C     C_3   0.864175 0.101994 0.457136 0.362089
H20   H     H_    0.835154 0.084948 0.395583 0.165545
H21   H     H_    0.897935 0.127951 0.456035 0.108682
C116  C     C_3   0.809899 0.123456 0.469043 -0.781982
H22   H     H_    0.836796 0.140787 0.530283 0.248339
H23   H     H_    0.778020 0.147392 0.417635 0.235699
H24   H     H_    0.774099 0.098187 0.467591 0.265540
F5    F     F_    0.555481 0.418454 0.603755 -0.723249
F6    F     F_    0.522187 0.571888 0.634270 -0.763798
F7    F     F_    0.051938 0.919051 0.582605 -0.700835
F8    F     F_    0.027430 0.066011 0.655050 -0.698415
O5    O     O_3   0.377724 0.537039 0.573653 -0.619076
C117  C     C_3   0.387462 0.556485 0.646491 0.360082
H25   H     H_    0.436288 0.576495 0.678239 0.203220
H26   H     H_    0.388782 0.532991 0.691430 0.072867
C118  C     C_3   0.326261 0.587648 0.619714 -0.884792
H27   H     H_    0.275728 0.569265 0.587346 0.258763
H28   H     H_    0.333475 0.604135 0.675780 0.213592
H29   H     H_    0.323879 0.612892 0.576187 0.284371
O6    O     O_3   0.363184 0.460797 0.562638 -0.586472
C119  C     C_3   0.343295 0.457748 0.620654 0.350289
H30   H     H_    0.303091 0.483118 0.606532 0.099810
H31   H     H_    0.389222 0.460238 0.686778 0.104103
C120  C     C_3   0.309565 0.413289 0.610872 -0.848942
H32   H     H_    0.347947 0.386865 0.623762 0.268084
H33   H     H_    0.293230 0.410238 0.655848 0.204520
H34   H     H_    0.262316 0.409555 0.545871 0.269401
O7    O     O_3   0.883412 0.014304 0.591024 -0.566032
C121  C     C_3   0.845601 0.004372 0.628321 0.477265
H35   H     H_    0.874851 0.981295 0.681770 0.075936
H36   H     H_    0.793184 0.990355 0.580409 0.107040
C122  C     C_3   0.833830 0.046356 0.661592 -0.870655
H37   H     H_    0.802982 0.070033 0.609369 0.260548
H38   H     H_    0.804213 0.039116 0.691034 0.198887
H39   H     H_    0.885460 0.061189 0.709418 0.283745
O8    O     O_3   0.872565 0.940290 0.565861 -0.709631
C123  C     C_3   0.861886 0.906110 0.511160 0.219338
H40   H     H_    0.912288 0.888666 0.534283 0.211425
H41   H     H_    0.834625 0.917708 0.445636 0.188262
C124  C     C_3   0.811251 0.873166 0.510450 -0.853091
H42   H     H_    0.759727 0.889157 0.487762 0.283925
H43   H     H_    0.802421 0.845693 0.467661 0.239127
H44   H     H_    0.832948 0.859768 0.574352 0.235607
O9    O     O_3   0.501071 0.508560 0.728882 -0.696411
C125  C     C_3   0.569573 0.522359 0.793031 0.257188
H45   H     H_    0.587335 0.549666 0.771285 0.190352
H46   H     H_    0.608872 0.495605 0.818234 0.039263
C126  C     C_3   0.567041 0.539579 0.866035 -0.936702
H47   H     H_    0.549324 0.513314 0.890664 0.258913
H48   H     H_    0.620395 0.550701 0.917273 0.218892
H49   H     H_    0.529792 0.567625 0.844967 0.261878
O10   O     O_3   0.489493 0.438974 0.670883 -0.575354
C127  C     C_3   0.541685 0.422938 0.751377 0.410148
H50   H     H_    0.535713 0.437312 0.800578 0.089830
H51   H     H_    0.595393 0.428492 0.765315 0.080791
C128  C     C_3   0.532004 0.373780 0.752763 -0.869403
H52   H     H_    0.534067 0.357854 0.701884 0.294150
H53   H     H_    0.574549 0.360024 0.814299 0.188989
H54   H     H_    0.480086 0.366690 0.743219 0.245550
O11   O     O_3   0.001635 0.000971 0.719911 -0.600668
C129  C     C_3   0.059824 0.993071 0.803201 0.349270
H55   H     H_    0.105096 0.976468 0.807783 0.067871
H56   H     H_    0.042735 0.972733 0.837008 0.088499
C130  C     C_3   0.083533 0.036351 0.849957 -0.885744
H57   H     H_    0.041988 0.049326 0.858142 0.258912
H58   H     H_    0.133024 0.031651 0.912822 0.188295
H59   H     H_    0.092498 0.060647 0.813725 0.303802
O12   O     O_3   0.015807 0.929229 0.681208 -0.621071
C131  C     C_3   0.984824 0.908216 0.719693 0.352872
H60   H     H_    0.945116 0.884413 0.675478 0.139410
H61   H     H_    0.958171 0.930497 0.739333 0.071524
C132  C     C_3   0.040797 0.881365 0.794779 -0.980083
H62   H     H_    0.086294 0.901966 0.840118 0.236922
H63   H     H_    0.017550 0.866424 0.827325 0.229191
H64   H     H_    0.060282 0.854780 0.773010 0.272229
F9    F     F_    0.035964 0.621053 0.849791 -0.671365
F10   F     F_    0.021842 0.370269 0.852972 -0.639323
F11   F     F_    0.536187 0.120916 0.849789 -0.671594
F12   F     F_    0.521760 0.870222 0.853001 -0.640426
F13   F     F_    0.969024 0.423227 0.743105 -0.652612
F14   F     F_    0.951340 0.575995 0.734087 -0.654957
F15   F     F_    0.469191 0.923217 0.743208 -0.653244
F16   F     F_    0.451304 0.075984 0.734049 -0.655124
F17   F     F_    0.202429 0.576336 0.257783 -0.690908
F18   F     F_    0.202315 0.423020 0.256959 -0.686728
F19   F     F_    0.702662 0.076288 0.257912 -0.692823
F20   F     F_    0.702671 0.922902 0.256497 -0.691680
F21   F     F_    0.037218 0.423176 0.260489 -0.593650
F22   F     F_    0.038452 0.576329 0.261315 -0.590155
F23   F     F_    0.537381 0.923195 0.260592 -0.596170
F24   F     F_    0.538469 0.076339 0.261307 -0.593897
O13   O     O_3   0.771779 0.574361 0.810131 -0.592819
C133  C     C_3   0.743775 0.574486 0.860950 0.335368
H65   H     H_    0.786917 0.572640 0.928608 0.052099
H66   H     H_    0.708542 0.546571 0.849055 0.022384
C134  C     C_3   0.701441 0.616212 0.845290 -0.831327
H67   H     H_    0.655039 0.617122 0.779413 0.253736
H68   H     H_    0.682490 0.617141 0.887905 0.198221
H69   H     H_    0.734310 0.645550 0.857045 0.279360
O14   O     O_3   0.779258 0.427035 0.740353 -0.631153
C135  C     C_3   0.829997 0.417441 0.721970 0.403884
H70   H     H_    0.880590 0.407354 0.780002 0.183535
H71   H     H_    0.837760 0.446296 0.692145 0.078459
C136  C     C_3   0.804669 0.379570 0.660312 -0.795708
H72   H     H_    0.753079 0.387652 0.602040 0.213330
H73   H     H_    0.843628 0.373114 0.643659 0.260556
H74   H     H_    0.799273 0.349523 0.689106 0.263097
O15   O     O_3   0.271640 0.074409 0.809834 -0.590451
C137  C     C_3   0.243551 0.074499 0.860532 0.316177
H75   H     H_    0.286440 0.070299 0.927950 0.048277
H76   H     H_    0.205152 0.047926 0.844641 0.066116
C138  C     C_3   0.205337 0.117513 0.849741 -0.819117
H77   H     H_    0.156751 0.119668 0.785693 0.253018
H78   H     H_    0.190199 0.119146 0.895974 0.200006
H79   H     H_    0.239241 0.145973 0.859781 0.281188
O16   O     O_3   0.279415 0.927015 0.740343 -0.631632
C139  C     C_3   0.330824 0.916945 0.723253 0.398529
H80   H     H_    0.381493 0.907757 0.782039 0.181802
H81   H     H_    0.338066 0.945267 0.691900 0.079125
C140  C     C_3   0.307025 0.877948 0.664241 -0.788001
H82   H     H_    0.255626 0.884963 0.604978 0.211720
H83   H     H_    0.346716 0.871035 0.648936 0.261372
H84   H     H_    0.301952 0.848499 0.694685 0.264160
O17   O     O_3   0.826109 0.369197 0.857493 -0.589890
C141  C     C_3   0.756420 0.367791 0.839582 0.360982
H85   H     H_    0.734862 0.401382 0.832177 0.080823
H86   H     H_    0.752857 0.351461 0.888818 0.042067
C142  C     C_3   0.708322 0.342372 0.758763 -0.777778
H87   H     H_    0.732017 0.309971 0.762306 0.240880
H88   H     H_    0.656282 0.337143 0.749907 0.204576
H89   H     H_    0.699528 0.360673 0.703519 0.279897
O18   O     O_3   0.849801 0.641454 0.859389 -0.608811
C143  C     C_3   0.885002 0.636477 0.818211 0.386000
H90   H     H_    0.890383 0.601527 0.807336 0.148843
H91   H     H_    0.937462 0.652562 0.855348 0.113637
C144  C     C_3   0.842149 0.658861 0.732845 -0.767599
H92   H     H_    0.835880 0.694198 0.740805 0.231910
H93   H     H_    0.869572 0.655450 0.699703 0.258623
H94   H     H_    0.789129 0.643576 0.694178 0.248054
O19   O     O_3   0.325489 0.869415 0.857595 -0.593165
C145  C     C_3   0.255892 0.868469 0.840048 0.347578
H95   H     H_    0.235012 0.902204 0.833345 0.092451
H96   H     H_    0.252300 0.852045 0.889200 0.047692
C146  C     C_3   0.207012 0.843513 0.758827 -0.746187
H97   H     H_    0.229295 0.810605 0.762349 0.232749
H98   H     H_    0.154473 0.839482 0.749229 0.210339
H99   H     H_    0.199481 0.861498 0.703921 0.281544
O20   O     O_3   0.350161 0.141516 0.859425 -0.611074
C147  C     C_3   0.385417 0.136386 0.818357 0.383701
H100  H     H_    0.390766 0.101412 0.807633 0.149086
H101  H     H_    0.437870 0.152470 0.855488 0.113853
C148  C     C_3   0.342633 0.158663 0.732871 -0.759224
H102  H     H_    0.336174 0.193998 0.740631 0.231505
H103  H     H_    0.370236 0.155274 0.699939 0.258068
H104  H     H_    0.289684 0.143280 0.694095 0.247703
F25   F     F_    0.993142 0.631280 0.153564 -0.604143
F26   F     F_    0.993215 0.368199 0.152628 -0.602852
F27   F     F_    0.493194 0.131297 0.153543 -0.605194
F28   F     F_    0.493091 0.868247 0.152662 -0.604075
O21   O     O_3   0.580526 0.553003 0.569830 -0.586814
C149  C     C_3   0.591463 0.598620 0.572340 0.425857
H105  H     H_    0.619660 0.610365 0.638234 0.130068
H106  H     H_    0.540955 0.616814 0.533278 0.102142
C150  C     C_3   0.637435 0.608233 0.539057 -0.887183
H107  H     H_    0.610353 0.597277 0.472747 0.278763
H108  H     H_    0.647581 0.643945 0.542027 0.209856
H109  H     H_    0.688702 0.590747 0.577646 0.266439
O22   O     O_3   0.571333 0.470630 0.526485 -0.581189
C151  C     C_3   0.599461 0.434074 0.509243 0.434545
H110  H     H_    0.558004 0.409205 0.471184 0.116574
H111  H     H_    0.642619 0.419009 0.569023 0.126782
C152  C     C_3   0.630470 0.449226 0.460218 -0.860449
H112  H     H_    0.673069 0.473440 0.497728 0.261234
H113  H     H_    0.652935 0.420810 0.446380 0.196586
H114  H     H_    0.588666 0.464600 0.400048 0.289392
O23   O     O_3   0.072341 0.056782 0.572604 -0.597207
C153  C     C_3   0.079245 0.102820 0.578299 0.437487
H115  H     H_    0.111764 0.112790 0.645216 0.119244
H116  H     H_    0.027138 0.119599 0.546542 0.102061
C154  C     C_3   0.116944 0.117569 0.536774 -0.839037
H117  H     H_    0.085440 0.108383 0.469271 0.285430
H118  H     H_    0.123811 0.153649 0.541952 0.201723
H119  H     H_    0.169746 0.101788 0.568214 0.258513
O24   O     O_3   0.088540 0.976697 0.535908 -0.587781
C155  C     C_3   0.114859 0.942206 0.511459 0.435001
H120  H     H_    0.071239 0.923279 0.458476 0.103399
H121  H     H_    0.148381 0.920013 0.565632 0.136954
C156  C     C_3   0.160567 0.961268 0.483523 -0.896539
H122  H     H_    0.205578 0.979489 0.536242 0.263225
H123  H     H_    0.181569 0.934501 0.463962 0.204639
H124  H     H_    0.128785 0.983887 0.429590 0.285974

loop_
_geom_bond_atom_site_label_1
_geom_bond_atom_site_label_2
_ccdc_geom_bond_type
C117  H26   S    
C21   C26   S    
O1    C109  S    
C23   F3    S    
N18   Ni2   S    
C137  C138  S    
C35   F9    S    
C145  H96   S    
C24   C27   S    
C152  H114  S    
C39   C41   S    
C89   N13   A    
C140  H82   S    
C135  H70   S    
O23   C153  S    
C91   N15   A    
C89   C99   A    
C84   C86   S    
C55   C59   S    
N13   Ni2   S    
C86   C88   T    
C148  H104  S    
C145  C146  S    
C131  H61   S    
C92   N16   A    
N27   Ni8   S    
C153  C154  S    
C60   C62   T    
C133  H65   S    
C118  H28   S    
C115  H20   S    
C41   O5    S    
C4    C96   A    
C129  H56   S    
C91   C100  A    
N17   Ni1   S    
O5    C117  S    
O20   C147  S    
C156  H124  S    
C131  C132  S    
C142  H88   S    
C130  H57   S    
C72   N12   A    
C127  H51   S    
C91   F19   S    
C8    O20   S    
C152  H113  S    
C152  H112  S    
C63   C67   S    
C45   C47   T    
C48   C100  S    
C154  H119  S    
C46   C48   T    
C11   C20   A    
C129  C130  S    
C119  H30   S    
N10   Ni5   S    
C102  N18   A    
C39   O10   S    
C149  H105  S    
C69   F13   S    
C143  H90   S    
C148  H102  S    
C149  C150  S    
C37   C96   A    
C127  C128  S    
C33   C43   S    
C144  H94   S    
C24   C32   S    
C126  H47   S    
C141  H85   S    
C90   N14   A    
N21   Ni5   S    
C142  H87   S    
C150  H109  S    
C113  C114  S    
N2    Ni2   S    
C42   O7    S    
C119  H31   S    
C82   C84   T    
C109  H5    S    
C139  H80   S    
C105  N21   A    
C140  H84   S    
N11   Ni8   S    
C37   F11   S    
N26   N29   A    
C38   F12   S    
N16   Ni3   S    
C5    N25   A    
C22   O1    S    
C138  H79   S    
C8    N28   A    
C136  H73   S    
O24   C155  S    
C2    N2    A    
C6    O18   S    
C49   C53   T    
C51   C55   T    
C151  H110  S    
C92   F20   S    
C61   C65   S    
C1    C93   A    
O19   C145  S    
C130  H59   S    
C21   F1    S    
N5    Ni5   S    
C11   N31   A    
C24   F4    S    
N25   N30   A    
O22   C151  S    
C7    O19   S    
N28   N31   A    
O18   C143  S    
N11   N12   A    
C108  O16   S    
C21   C31   S    
O12   C131  S    
C124  H42   S    
C64   C68   S    
C15   C106  A    
C71   N11   A    
C126  H49   S    
C132  H62   S    
C78   C80   T    
C116  H23   S    
C16   C30   S    
C66   C74   T    
C47   C99   S    
N6    Ni6   S    
O11   C129  S    
C146  H98   S    
C113  H15   S    
C36   C93   A    
C114  H18   S    
C22   C25   S    
C38   C95   A    
C110  H8    S    
N19   Ni3   S    
C36   F10   S    
O10   C127  S    
C109  C110  S    
C40   C42   S    
C134  H67   S    
C17   C73   S    
C112  H13   S    
N32   Ni3   S    
C81   C83   T    
N14   Ni1   S    
C57   C63   T    
C120  H33   S    
N26   Ni5   S    
C58   C64   T    
N31   Ni4   S    
C59   C61   T    
C62   C66   S    
C2    C94   A    
C80   C82   S    
O8    C123  S    
C101  F21   S    
C119  C120  S    
C9    F25   S    
C103  F23   S    
C25   O22   S    
C138  H77   S    
C70   N10   A    
C26   C33   S    
C123  H41   S    
C37   N7    A    
O7    C121  S    
C23   C28   S    
C153  H116  S    
C155  C156  S    
N12   Ni7   S    
O17   C141  S    
C121  H36   S    
C31   C45   S    
N25   Ni6   S    
C67   C75   T    
C90   C99   A    
C123  C124  S    
N17   N18   A    
C35   C94   A    
C70   F14   S    
C128  H54   S    
C31   C41   S    
C32   C46   S    
C132  H64   S    
C3    C95   A    
C68   C76   T    
C121  C122  S    
C135  H71   S    
O6    C119  S    
C105  O13   S    
C128  H53   S    
C122  H38   S    
C25   F5    S    
C14   C103  A    
C107  O15   S    
C145  H95   S    
C89   F17   S    
C1    N1    A    
C118  H27   S    
C115  H21   S    
N2    N5    A    
C9    C18   A    
C106  N22   A    
C135  C136  S    
C125  H45   S    
C134  H69   S    
C13   C102  A    
C103  N19   A    
C10   F26   S    
C88   C98   S    
C25   C33   S    
C156  H123  S    
C101  N17   A    
C133  C134  S    
C110  H7    S    
N23   N24   A    
C111  H11   S    
O4    C115  S    
C154  H118  S    
C50   C54   T    
C147  H101  S    
C23   O4    S    
C124  H44   S    
C22   F2    S    
C149  H106  S    
C142  H89   S    
C5    C17   A    
C143  H91   S    
N3    Ni3   S    
C21   O2    S    
C52   C95   S    
C137  H75   S    
C10   N30   A    
N1    Ni1   S    
C144  H93   S    
C155  H120  S    
C107  N23   A    
C16   C107  A    
C1    H1    S    
C3    H3    S    
C147  C148  S    
C141  H86   S    
C150  H108  S    
C36   N6    A    
C40   O11   S    
C70   C97   A    
N15   Ni4   S    
C38   N8    A    
C143  C144  S    
C148  H103  S    
C117  H25   S    
C28   C34   S    
C29   C43   T    
C109  H6    S    
N30   Ni1   S    
C30   C44   T    
C139  H81   S    
C24   O3    S    
C15   C29   S    
C140  H83   S    
C71   F15   S    
C72   F16   S    
C141  C142  S    
C112  H12   S    
C147  H100  S    
N4    Ni4   S    
C53   C57   S    
C117  C118  S    
C151  C152  S    
C131  H60   S    
C120  H32   S    
C56   C60   S    
C139  C140  S    
C118  H29   S    
C104  F24   S    
C136  H72   S    
C122  H37   S    
C129  H55   S    
C77   C79   T    
C33   C39   S    
C151  H111  S    
N28   Ni7   S    
N9    N10   A    
N29   Ni2   S    
C83   C85   S    
C130  H58   S    
N21   N22   A    
C127  H50   S    
C41   O6    S    
N19   N20   A    
C110  H9    S    
C12   F28   S    
C122  H39   S    
C2    H2    S    
C102  F22   S    
C4    N4    A    
C23   C32   S    
C15   C105  A    
C126  H48   S    
C3    N3    A    
C5    O17   S    
C116  H22   S    
N23   Ni7   S    
C12   C19   A    
C146  H97   S    
C113  H16   S    
C39   O9    S    
C138  H78   S    
C114  H17   S    
C104  N20   A    
C32   C42   S    
N24   Ni8   S    
C115  C116  S    
O2    C111  S    
O16   C139  S    
C42   O8    S    
C26   F6    S    
C72   C98   A    
O3    C113  S    
C8    C20   A    
C34   C40   S    
C90   F18   S    
C108  N24   A    
C136  H74   S    
C10   C17   A    
N22   Ni6   S    
C65   C73   T    
N9    Ni6   S    
C20   C76   S    
C49   C94   S    
C133  H66   S    
C51   C96   S    
C4    H4    S    
C18   C74   S    
C153  H115  S    
C27   F7    S    
C26   O21   S    
C28   F8    S    
C85   C87   T    
C27   C34   S    
N7    Ni7   S    
C6    C18   A    
C71   C98   A    
C13   C77   S    
N8    Ni8   S    
C22   C31   S    
N20   Ni4   S    
C34   C44   S    
C27   O24   S    
C132  H63   S    
C9    N29   A    
C116  H24   S    
O14   C135  S    
C12   N32   A    
C6    N26   A    
C146  H99   S    
N27   N32   A    
C14   C104  A    
C69   N9    A    
C114  H19   S    
O9    C125  S    
C121  H35   S    
C125  H46   S    
C134  H68   S    
C111  H10   S    
C112  H14   S    
C35   N5    A    
C13   C101  A    
C92   C100  A    
O15   C137  S    
C156  H122  S    
C54   C58   S    
C120  H34   S    
C28   O23   S    
C79   C81   S    
C50   C93   S    
C125  C126  S    
C154  H117  S    
C7    C19   A    
N4    N7    A    
C106  O14   S    
C19   C75   S    
C124  H43   S    
C7    N27   A    
C40   O12   S    
C123  H40   S    
N13   N14   A    
C137  H76   S    
C14   C78   S    
C144  H92   S    
C155  H121  S    
C16   C108  A    
N1    N6    A    
C52   C56   T    
C111  C112  S    
N3    N8    A    
O21   C149  S    
C11   F27   S    
C150  H107  S    
C128  H52   S    
N15   N16   A    
C69   C97   A    
C87   C97   S    
O13   C133  S    
