data_mof_unit_7489.cif
_audit_creation_date              2012-12-10T16:38:30-0500
_audit_creation_method            fapswitch 2.2
_symmetry_space_group_name_H-M    P1
_symmetry_Int_Tables_number       1
_space_group_crystal_system       triclinic
_cell_length_a                    10.89618
_cell_length_b                    10.895304
_cell_length_c                    17.755876
_cell_angle_alpha                 98.407079
_cell_angle_beta                  72.504855
_cell_angle_gamma                 98.608002
_cell_volume                      1976.2918175

loop_
_atom_site_label
_atom_site_type_symbol
_atom_type_description
_atom_site_fract_x
_atom_site_fract_y
_atom_site_fract_z
_atom_type_partial_charge
C1    C     C_R   0.158307 0.480346 0.517531 0.806059
C2    C     C_R   0.607119 0.415804 0.914983 -0.231363
C3    C     C_R   0.679890 0.360850 0.950597 0.460211
C4    C     C_R   0.843210 0.520426 0.482321 0.859507
C5    C     C_R   0.646409 0.365953 0.034794 -0.095347
C6    C     C_R   0.543089 0.436267 0.080385 -0.029923
C7    C     C_R   0.709232 0.303987 0.075875 0.426245
C8    C     C_R   0.679403 0.324975 0.159410 0.069037
C9    C     C_R   0.528606 0.470705 0.162411 0.112584
C10   C     C_2   0.981375 0.528387 0.475277 -0.016324
C11   C     C_2   0.022471 0.474167 0.526313 0.001036
C12   C     C_R   0.253492 0.574405 0.839184 0.071213
C13   C     C_2   0.544230 0.967845 0.479247 -0.056490
C14   C     C_2   0.450458 0.037624 0.524829 0.039428
C15   C     C_R   0.468042 0.169164 0.517457 0.890980
C16   C     C_R   0.530025 0.833114 0.482686 0.826602
C17   C     C_R   0.565529 0.435550 0.287823 0.856291
C18   C     C_R   0.434541 0.562644 0.712802 0.824784
C19   C     C_R   0.387207 0.572214 0.800638 -0.172922
C20   C     C_R   0.592549 0.410729 0.201615 -0.128719
C21   C     C_R   0.204099 0.561312 0.921077 0.401868
C22   C     C_3   0.099758 0.526592 0.335854 -0.723706
C23   C     C_R   0.471836 0.562222 0.844976 0.130587
C24   C     C_3   0.900976 0.488314 0.664822 -0.677725
C25   C     C_3   0.766759 0.056709 0.460547 -0.734840
C26   C     C_3   0.253051 0.060060 0.636951 -0.739339
C27   C     C_3   0.530656 0.695166 0.187561 -0.684091
C28   C     C_3   0.859458 0.320592 0.211668 -0.640671
C29   C     C_3   0.139024 0.711975 0.796202 -0.626806
C30   C     C_3   0.655023 0.712285 0.858399 -0.705075
C31   C     C_R   0.420035 0.525534 0.922742 -0.025808
C32   C     C_R   0.288114 0.540255 0.964652 -0.108338
C33   C     C_R   0.497237 0.474186 0.959639 0.030237
C34   C     C_R   0.458205 0.472294 0.042406 0.035099
C35   C     C_R   0.331426 0.497093 0.084615 -0.227986
C36   C     C_R   0.247181 0.530472 0.047764 0.440846
Cl1   Cl    Cl    0.098237 0.570204 0.114009 -0.571659
Cl2   Cl    Cl    0.815846 0.190324 0.027931 -0.523754
Cl3   Cl    Cl    0.818724 0.301007 0.883529 -0.530022
Cl4   Cl    Cl    0.033664 0.554769 0.961988 -0.502760
H1    H     H_    0.292331 0.482798 0.146654 0.191944
H2    H     H_    0.986599 0.516983 0.687529 0.229712
H3    H     H_    0.685174 0.975818 0.371522 0.248996
H4    H     H_    0.848186 0.108192 0.418568 0.235769
H5    H     H_    0.799945 0.970690 0.470956 0.241426
H6    H     H_    0.739005 0.117533 0.517484 0.263172
H7    H     H_    0.273092 0.929712 0.536348 0.234828
H8    H     H_    0.169262 0.001177 0.672039 0.248798
H9    H     H_    0.215978 0.133960 0.615559 0.220801
H10   H     H_    0.313667 0.103351 0.676302 0.250336
H11   H     H_    0.412624 0.568541 0.262875 0.207197
H12   H     H_    0.633542 0.404672 0.850825 0.198590
H13   H     H_    0.467471 0.769214 0.218107 0.227453
H14   H     H_    0.561349 0.703965 0.122800 0.258157
H15   H     H_    0.617275 0.709030 0.209872 0.252102
H16   H     H_    0.737376 0.165853 0.184546 0.266978
H17   H     H_    0.934732 0.318729 0.153346 0.298796
H18   H     H_    0.890092 0.270602 0.251992 0.208540
H19   H     H_    0.850849 0.418883 0.238103 0.262418
H20   H     H_    0.086633 0.521268 0.803031 0.275849
H21   H     H_    0.080904 0.745826 0.856597 0.260224
H22   H     H_    0.082789 0.713843 0.753685 0.216905
H23   H     H_    0.152005 0.642660 0.427577 0.213824
H24   H     H_    0.229863 0.776021 0.778750 0.248305
H25   H     H_    0.643565 0.605226 0.754798 0.231526
H26   H     H_    0.761437 0.731963 0.832839 0.241979
H27   H     H_    0.635652 0.699289 0.921927 0.262540
H28   H     H_    0.608316 0.793712 0.853726 0.240836
H29   H     H_    0.152183 0.446000 0.334629 0.230195
H30   H     H_    0.161878 0.588650 0.291539 0.257803
H31   H     H_    0.009502 0.492494 0.318900 0.261355
H32   H     H_    0.967857 0.328778 0.596333 0.221654
H33   H     H_    0.825341 0.435129 0.709057 0.255613
H34   H     H_    0.861632 0.572843 0.657587 0.225023
N1    N     N_2   0.070659 0.595527 0.414001 -0.311799
N2    N     N_2   0.936443 0.410428 0.590007 -0.285965
N3    N     N_2   0.658812 0.024865 0.427125 -0.325087
N4    N     N_2   0.327529 0.983011 0.570407 -0.295406
N5    N     N_2   0.459808 0.574027 0.203508 -0.323555
N6    N     N_2   0.736615 0.260253 0.202166 -0.318373
N7    N     N_2   0.167737 0.585810 0.794279 -0.281463
N8    N     N_2   0.607585 0.601462 0.815077 -0.319831
O1    O     O_3   0.500000 0.500000 0.500000 -0.491879
O2    O     O_R   0.470800 0.371790 0.332500 -0.642520
O3    O     O_R   0.380610 0.619380 0.674980 -0.612038
O4    O     O_R   0.632640 0.524780 0.317540 -0.634983
O5    O     O_R   0.515950 0.484050 0.674980 -0.649847
O6    O     O_R   0.535460 0.243030 0.556410 -0.640199
O7    O     O_R   0.437420 0.784080 0.535340 -0.633037
O8    O     O_R   0.223560 0.397520 0.472140 -0.647734
O9    O     O_R   0.803560 0.575360 0.436110 -0.628171
O10   O     O_R   0.209690 0.568800 0.556400 -0.646664
O11   O     O_R   0.763190 0.458310 0.535350 -0.622760
O12   O     O_R   0.414000 0.207090 0.472140 -0.649455
O13   O     O_R   0.613120 0.765800 0.436110 -0.641512
Zn1   Zn    Zn3+2 0.577310 0.422690 0.565550 0.971119
Zn2   Zn    Zn3+2 0.403760 0.371330 0.445150 0.966832
Zn3   Zn    Zn3+2 0.634990 0.589920 0.423760 0.979445
Zn4   Zn    Zn3+2 0.383940 0.616050 0.565540 0.966297

loop_
_geom_bond_atom_site_label_1
_geom_bond_atom_site_label_2
_ccdc_geom_bond_type
O6    Zn1   S    
C1    O8    A    
C23   N8    S    
C24   H2    S    
C35   C36   A    
C1    C11   S    
H32   N2    S    
C15   O12   A    
O13   Zn3   S    
C7    C8    A    
C28   H17   S    
C8    C20   A    
O7    Zn4   S    
C25   N3    S    
O2    Zn2   S    
C32   C36   A    
C36   Cl1   S    
C18   C19   S    
C27   N5    S    
C11   N2    S    
C26   H10   S    
C9    N5    S    
C5    C6    A    
C27   H15   S    
C24   H33   S    
C17   C20   S    
C34   C35   A    
H20   N7    S    
C1    O10   A    
O1    Zn3   S    
C31   C33   A    
O8    Zn2   S    
C30   H27   S    
C26   H8    S    
C4    O9    A    
C29   H24   S    
C3    Cl3   S    
C16   O7    A    
O1    Zn4   S    
C13   C14   D    
C22   N1    S    
C6    C9    A    
C28   N6    S    
C25   H4    S    
C13   N3    S    
C21   C32   A    
C29   H21   S    
C27   H14   S    
C18   O3    A    
C17   O4    A    
C26   H9    S    
C5    C7    A    
C24   N2    S    
O12   Zn2   S    
C12   C21   A    
C6    C34   A    
C23   C31   A    
C30   N8    S    
C19   C23   A    
C29   N7    S    
O3    Zn4   S    
C10   N1    S    
C9    C20   A    
C31   C32   A    
O5    Zn1   S    
C33   C34   A    
C26   N4    S    
C30   H26   S    
C35   H1    S    
C2    H12   S    
C2    C33   A    
O11   Zn1   S    
C4    C10   S    
C25   H5    S    
C22   H31   S    
C28   H19   S    
C29   H22   S    
C16   O13   A    
C22   H29   S    
C3    C5    A    
C27   H13   S    
C28   H18   S    
H3    N3    S    
C18   O5    A    
H16   N6    S    
C17   O2    A    
C2    C3    A    
C24   H34   S    
H25   N8    S    
C21   Cl4   S    
H23   N1    S    
O1    Zn1   S    
C12   C19   A    
C7    Cl2   S    
C12   N7    S    
C14   N4    S    
O9    Zn3   S    
O4    Zn3   S    
H11   N5    S    
C10   C11   D    
C4    O11   A    
O1    Zn2   S    
C13   C16   S    
C8    N6    S    
C14   C15   S    
H7    N4    S    
C25   H6    S    
C22   H30   S    
C30   H28   S    
O10   Zn4   S    
C15   O6    A    
