data_mof_unit_37962.cif
_audit_creation_date              2012-12-10T17:18:57-0500
_audit_creation_method            fapswitch 2.2
_symmetry_space_group_name_H-M    P1
_symmetry_Int_Tables_number       1
_space_group_crystal_system       triclinic
_cell_length_a                    10.207215
_cell_length_b                    10.391961
_cell_length_c                    13.639387
_cell_angle_alpha                 92.400917
_cell_angle_beta                  100.872637
_cell_angle_gamma                 94.837955
_cell_volume                      1413.26545921

loop_
_atom_site_label
_atom_site_type_symbol
_atom_type_description
_atom_site_fract_x
_atom_site_fract_y
_atom_site_fract_z
_atom_type_partial_charge
C1    C     C_R   0.053871 0.735580 0.499421 0.989397
C2    C     C_R   0.950321 0.265194 0.510073 1.001554
C3    C     C_R   0.490770 0.669351 0.107756 -0.234859
C4    C     C_R   0.582374 0.555158 0.870030 -0.241699
C5    C     C_R   0.356872 0.690388 0.076610 -0.240816
C6    C     C_R   0.712781 0.524821 0.901727 -0.255414
C7    C     C_2   0.086930 0.874639 0.518889 -0.479415
C8    C     C_2   0.935362 0.129827 0.532776 -0.496140
C9    C     C_2   0.034199 0.936194 0.589433 0.369728
C10   C     C_2   0.038933 0.079047 0.589932 0.380176
C11   C     C_2   0.431048 0.511727 0.509403 -0.142033
C12   C     C_2   0.569062 0.487264 0.491515 -0.142595
C13   C     C_R   0.095481 0.516879 0.685900 0.911297
C14   C     C_R   0.906393 0.489172 0.314011 0.852748
C15   C     C_R   0.155112 0.552138 0.790536 -0.055684
C16   C     C_R   0.861104 0.500238 0.206963 -0.057669
C17   C     C_R   0.151574 0.656033 0.951918 -0.219487
C18   C     C_R   0.889774 0.475595 0.035528 -0.220048
C19   C     C_R   0.084324 0.608327 0.856897 -0.196046
C20   C     C_R   0.937906 0.464541 0.137088 -0.199747
C21   C     C_R   0.292209 0.543796 0.819674 -0.283661
C22   C     C_R   0.739967 0.552443 0.175405 -0.270492
C23   C     C_R   0.362793 0.596111 0.911930 0.098802
C24   C     C_R   0.690645 0.566560 0.074276 0.094849
C25   C     C_R   0.290250 0.648742 0.980357 0.177139
C26   C     C_R   0.765442 0.523643 0.003473 0.175760
C27   C     C_R   0.502290 0.588141 0.939875 0.068931
C28   C     C_R   0.562672 0.609970 0.041743 0.064820
H1    H     H_    0.303976 0.734021 0.129345 0.148838
H2    H     H_    0.769590 0.495443 0.846434 0.148125
H3    H     H_    0.681988 0.576099 0.230851 0.161837
H4    H     H_    0.342752 0.493104 0.769577 0.158218
H5    H     H_    0.033223 0.425614 0.160676 0.160295
H6    H     H_    0.978105 0.615941 0.835143 0.147838
H7    H     H_    0.095322 0.697709 0.003194 0.146635
H8    H     H_    0.947654 0.442877 0.982008 0.150946
H9    H     H_    0.536360 0.702025 0.183613 0.148490
H10   H     H_    0.546812 0.553240 0.790193 0.147511
H11   H     H_    0.845061 0.069861 0.497390 0.103133
H12   H     H_    0.141273 0.927928 0.469846 0.117107
H13   H     H_    0.577834 0.411215 0.436793 0.165243
H14   H     H_    0.422362 0.586975 0.564810 0.159691
H15   H     H_    0.664960 0.625288 0.590226 0.158256
H16   H     H_    0.334817 0.375600 0.408977 0.161307
N1    N     N_2   0.322180 0.446120 0.460900 -0.182152
N2    N     N_2   0.677820 0.553880 0.539100 -0.189647
O1    O     O_R   0.935190 0.693030 0.507870 -0.557995
O2    O     O_R   0.064810 0.306970 0.492130 -0.551478
O3    O     O_R   0.142080 0.658430 0.482770 -0.614078
O4    O     O_R   0.857920 0.341570 0.517230 -0.614236
O5    O     O_R   0.969700 0.527180 0.651960 -0.607269
O6    O     O_R   0.030300 0.472820 0.348040 -0.616538
O7    O     O_R   0.176600 0.492580 0.626860 -0.602191
O8    O     O_R   0.823400 0.507420 0.373140 -0.616405
Zn1   Zn    Zn3+2 0.861850 0.523100 0.516760 0.943522
Zn2   Zn    Zn3+2 0.138150 0.476900 0.483240 0.952677
O9    O     O_3   0.147856 0.161843 0.641266 -0.629340
C29   C     C_3   0.239867 0.098231 0.708633 0.086932
H17   H     H_    0.293330 0.032682 0.666550 0.148825
H18   H     H_    0.188143 0.042417 0.760585 0.155407
C30   C     C_3   0.342049 0.200048 0.770987 -0.331661
H19   H     H_    0.391389 0.260571 0.720526 0.232723
H20   H     H_    0.289316 0.263487 0.815070 0.225334
C31   C     C_3   0.448857 0.138186 0.842598 -0.959167
H21   H     H_    0.402077 0.078107 0.894539 0.269713
H22   H     H_    0.520369 0.215066 0.887143 0.275407
H23   H     H_    0.504976 0.076795 0.799913 0.267552
O10   O     O_3   0.984396 0.864726 0.661483 -0.633683
C32   C     C_3   0.886722 0.926869 0.701715 0.083036
H24   H     H_    0.800569 0.941681 0.641078 0.143424
H25   H     H_    0.929992 0.021245 0.741189 0.136040
C33   C     C_3   0.836276 0.841380 0.777873 -0.320655
H26   H     H_    0.803790 0.742346 0.743273 0.225155
H27   H     H_    0.919155 0.835480 0.842804 0.220352
C34   C     C_3   0.718780 0.895295 0.814922 -0.982921
H28   H     H_    0.747848 0.995345 0.848345 0.269164
H29   H     H_    0.688247 0.833754 0.872878 0.283371
H30   H     H_    0.632052 0.895555 0.752026 0.257917

loop_
_geom_bond_atom_site_label_1
_geom_bond_atom_site_label_2
_ccdc_geom_bond_type
C32   C33   S    
C18   C26   A    
O2    Zn2   S    
C15   C19   A    
C3    C28   A    
C24   C26   A    
C29   H18   S    
C11   H14   S    
C32   H25   S    
C30   H20   S    
C2    O4    A    
C13   O5    A    
C14   O6    A    
N1    Zn2   S    
O10   C32   S    
N2    Zn1   S    
C7    H12   S    
C8    H11   S    
C23   C27   A    
C9    C10   S    
C5    H1    S    
C29   C30   S    
C30   H19   S    
C33   C34   S    
H15   N2    S    
C13   O7    A    
C21   H4    S    
C22   H3    S    
C31   H23   S    
C10   O9    S    
C33   H27   S    
C1    O1    A    
O5    Zn1   S    
C2    O2    A    
C29   H17   S    
C12   N2    D    
C31   H22   S    
C30   C31   S    
C34   H28   S    
C12   H13   S    
C16   C20   A    
C34   H29   S    
C5    C25   A    
C20   H5    S    
C4    C6    A    
C14   O8    A    
C4    H10   S    
C13   C15   S    
C14   C16   S    
C11   N1    D    
C4    C27   A    
H16   N1    S    
O1    Zn1   S    
O7    Zn2   S    
C7    C9    D    
O8    Zn1   S    
C16   C22   A    
C6    H2    S    
C1    C7    S    
C2    C8    S    
C24   C28   A    
C33   H26   S    
C3    C5    A    
C19   H6    S    
C18   C20   A    
C11   C12   S    
O3    Zn2   S    
O4    Zn1   S    
C17   C25   A    
C31   H21   S    
C21   C23   A    
C9    O10   S    
O9    C29   S    
C6    C26   A    
C1    O3    A    
C17   C19   A    
C22   C24   A    
C23   C25   A    
C32   H24   S    
C34   H30   S    
C15   C21   A    
C3    H9    S    
C8    C10   D    
C27   C28   A    
C17   H7    S    
C18   H8    S    
O6    Zn2   S    
