data_mof_unit_29537.cif
_audit_creation_date              2013-03-05T15:41:18-0500
_audit_creation_method            fapswitch 2.2
_symmetry_space_group_name_H-M    P1
_symmetry_Int_Tables_number       1
_space_group_crystal_system       triclinic
_cell_length_a                    16.864268
_cell_length_b                    16.754315
_cell_length_c                    16.738695
_cell_angle_alpha                 65.859481
_cell_angle_beta                  65.869208
_cell_angle_gamma                 65.981314
_cell_volume                      3771.87404521

loop_
_atom_site_label
_atom_site_type_symbol
_atom_site_description
_atom_site_fract_x
_atom_site_fract_y
_atom_site_fract_z
_atom_type_partial_charge
O1    O     O_R   0.982940 0.138950 0.510160 -0.638764
O2    O     O_R   0.017060 0.861050 0.489840 -0.641265
O3    O     O_R   0.138950 0.510160 0.982940 -0.638203
O4    O     O_R   0.861050 0.489840 0.017060 -0.630821
O5    O     O_R   0.510160 0.982940 0.138950 -0.635453
O6    O     O_R   0.489840 0.017060 0.861050 -0.638932
O7    O     O_R   0.489840 0.861050 0.017060 -0.635807
O8    O     O_R   0.510160 0.138950 0.982940 -0.635426
O9    O     O_R   0.017060 0.489840 0.861050 -0.639806
O10   O     O_R   0.982940 0.510160 0.138950 -0.627379
O11   O     O_R   0.861050 0.017060 0.489840 -0.639576
O12   O     O_R   0.138950 0.982940 0.510160 -0.631305
C1    C     C_R   0.310333 0.013907 0.428719 -0.048820
C2    C     C_R   0.671764 0.065967 0.536012 -0.040508
C3    C     C_R   0.013058 0.427794 0.310954 -0.048323
C4    C     C_R   0.068415 0.535539 0.670987 -0.045075
C5    C     C_R   0.436318 0.316932 0.996103 -0.057564
C6    C     C_R   0.538588 0.675240 0.053448 -0.029811
C7    C     C_R   0.534800 0.077881 0.666152 0.056486
C8    C     C_R   0.457012 0.954478 0.326628 -0.017836
C9    C     C_R   0.682169 0.560485 0.008220 -0.047246
C10   C     C_R   0.323941 0.461754 0.948170 0.004701
C11   C     C_R   0.077987 0.666418 0.533615 0.056977
C12   C     C_R   0.953108 0.326423 0.458913 0.011375
O13   O     O_R   0.867700 0.025880 0.612340 -0.620571
O14   O     O_R   0.132300 0.974120 0.387660 -0.620917
O15   O     O_R   0.025880 0.612340 0.867700 -0.623259
O16   O     O_R   0.974120 0.387660 0.132300 -0.614641
O17   O     O_R   0.612340 0.867700 0.025880 -0.615976
O18   O     O_R   0.387660 0.132300 0.974120 -0.621092
O19   O     O_R   0.387660 0.974120 0.132300 -0.622845
O20   O     O_R   0.612340 0.025880 0.867700 -0.615695
O21   O     O_R   0.132300 0.387660 0.974120 -0.624856
O22   O     O_R   0.867700 0.612340 0.025880 -0.611605
O23   O     O_R   0.974120 0.132300 0.387660 -0.622630
O24   O     O_R   0.025880 0.867700 0.612340 -0.615333
H1    H     H_    0.286197 0.928877 0.288086 0.205648
H2    H     H_    0.718346 0.060574 0.719003 0.200569
H3    H     H_    0.926196 0.289098 0.287018 0.198235
H4    H     H_    0.062424 0.718446 0.718227 0.203114
H5    H     H_    0.284624 0.283491 0.934764 0.203612
H6    H     H_    0.715997 0.715839 0.065255 0.198412
C13   C     C_R   0.961119 0.179789 0.438736 0.834833
C14   C     C_R   0.040295 0.820175 0.561032 0.953719
C15   C     C_R   0.179186 0.438754 0.960940 0.828432
C16   C     C_R   0.822579 0.568340 0.022964 0.898054
C17   C     C_R   0.438028 0.962394 0.179710 0.826732
C18   C     C_R   0.561346 0.039784 0.820242 0.951263
C19   C     C_R   0.561358 0.820875 0.038747 0.863339
C20   C     C_R   0.431452 0.177122 0.977688 0.923170
C21   C     C_R   0.037915 0.562170 0.820555 0.844237
C22   C     C_R   0.979344 0.430612 0.176600 0.901653
C23   C     C_R   0.820627 0.036961 0.562609 0.871786
C24   C     C_R   0.176296 0.980213 0.430379 0.923760
C25   C     C_R   0.405768 0.991823 0.401087 0.076345
C26   C     C_R   0.580480 0.064750 0.578413 0.045769
C27   C     C_R   0.990577 0.400738 0.406963 0.091371
C28   C     C_R   0.065780 0.578292 0.579685 0.046458
C29   C     C_R   0.403211 0.412948 0.976572 0.091833
C30   C     C_R   0.586711 0.594924 0.026356 0.078061
C31   C     C_R   0.269594 0.981629 0.392148 -0.127856
C32   C     C_R   0.721571 0.062322 0.590001 -0.136558
C33   C     C_R   0.980256 0.392006 0.270305 -0.125653
C34   C     C_R   0.064319 0.589545 0.721039 -0.133631
C35   C     C_R   0.394719 0.272174 0.974703 -0.120173
C36   C     C_R   0.590568 0.722598 0.057184 -0.137368
C37   C     C_R   0.589133 0.067311 0.719595 -0.077913
C38   C     C_R   0.408046 0.946024 0.278703 -0.149616
C39   C     C_R   0.727310 0.603796 0.027500 -0.121854
C40   C     C_R   0.276922 0.409501 0.943804 -0.142847
C41   C     C_R   0.068009 0.719633 0.588353 -0.082107
C42   C     C_R   0.944169 0.278775 0.409542 -0.145719
Zn1   Zn    Zn3+2 0.004880 0.004880 0.583590 0.994746
Zn2   Zn    Zn3+2 0.995120 0.995120 0.416410 0.971137
Zn3   Zn    Zn3+2 0.004880 0.583590 0.004880 0.992202
Zn4   Zn    Zn3+2 0.995120 0.416410 0.995120 1.004614
Zn5   Zn    Zn3+2 0.583590 0.004880 0.004880 1.004985
Zn6   Zn    Zn3+2 0.416410 0.995120 0.995120 0.969124
C43   C     C_R   0.437650 0.103068 0.694591 -0.087525
C44   C     C_R   0.553700 0.929824 0.301962 -0.041370
C45   C     C_R   0.101996 0.695160 0.435726 -0.094608
C46   C     C_R   0.929747 0.301337 0.556384 -0.040426
C47   C     C_R   0.727223 0.483752 0.972584 -0.069989
C48   C     C_R   0.293584 0.559380 0.929726 -0.040641
C49   C     C_R   0.260075 0.070012 0.488571 -0.076610
C50   C     C_R   0.708577 0.071110 0.441228 -0.060550
C51   C     C_R   0.510711 0.270681 0.034468 -0.067067
C52   C     C_R   0.441670 0.706597 0.071221 -0.063561
C53   C     C_R   0.069886 0.486575 0.259853 -0.074961
C54   C     C_R   0.074717 0.440535 0.707947 -0.038313
C55   C     C_R   0.319293 0.946762 0.319386 -0.212523
C56   C     C_R   0.678735 0.066457 0.678541 -0.272547
C57   C     C_R   0.944529 0.319898 0.320350 -0.264795
C58   C     C_R   0.068122 0.678180 0.678233 -0.272507
C59   C     C_R   0.317829 0.319401 0.946662 -0.219519
C60   C     C_R   0.680212 0.681698 0.054477 -0.250301
H7    H     H_    0.253367 0.133907 0.733460 0.168779
H8    H     H_    0.725949 0.949585 0.231017 0.190315
H9    H     H_    0.134023 0.732161 0.249948 0.165730
H10   H     H_    0.953523 0.229114 0.728211 0.182615
H11   H     H_    0.787810 0.299432 0.991388 0.180637
H12   H     H_    0.214253 0.724550 0.970871 0.183077
H13   H     H_    0.179501 0.118056 0.647957 0.180522
H14   H     H_    0.792512 0.006006 0.292195 0.180367
H15   H     H_    0.692728 0.205894 0.021364 0.180596
H16   H     H_    0.277495 0.787591 0.029972 0.183727
H17   H     H_    0.119267 0.644808 0.176577 0.176861
H18   H     H_    0.013089 0.289039 0.792952 0.194131
C61   C     C_R   0.672969 0.033988 0.405528 0.097801
C62   C     C_R   0.302514 0.072312 0.545146 0.099567
C63   C     C_R   0.037374 0.404268 0.673171 0.114928
C64   C     C_R   0.071957 0.543880 0.301592 0.099052
C65   C     C_R   0.401496 0.674904 0.034174 0.107094
C66   C     C_R   0.570006 0.319622 0.016267 0.096047
C67   C     C_R   0.594574 0.965297 0.334698 0.122983
C68   C     C_R   0.391511 0.090904 0.647046 0.021461
C69   C     C_R   0.326086 0.599783 0.965980 0.152160
C70   C     C_R   0.677077 0.425083 0.991582 0.093712
C71   C     C_R   0.965823 0.334197 0.596702 0.143642
C72   C     C_R   0.090088 0.647035 0.389763 0.023002
C73   C     C_R   0.722744 0.004930 0.326476 -0.152385
C74   C     C_R   0.252654 0.102914 0.623313 -0.097555
C75   C     C_R   0.010000 0.324253 0.723365 -0.093345
C76   C     C_R   0.103120 0.621515 0.250446 -0.097755
C77   C     C_R   0.315617 0.721473 0.018648 -0.176718
C78   C     C_R   0.661910 0.278188 0.014327 -0.120419
C79   C     C_R   0.684993 0.969163 0.292949 -0.103110
C80   C     C_R   0.296140 0.111095 0.673768 -0.222823
C81   C     C_R   0.280136 0.686138 0.981704 -0.146465
C82   C     C_R   0.716465 0.331811 0.996420 -0.119526
C83   C     C_R   0.972346 0.291382 0.686824 -0.134140
C84   C     C_R   0.110768 0.672858 0.293584 -0.216560
C85   C     C_R   0.542620 0.000608 0.410162 0.010909
C86   C     C_R   0.441810 0.060175 0.568382 0.051004
C87   C     C_R   0.000440 0.409993 0.543891 0.027447
C88   C     C_R   0.059511 0.568377 0.441085 0.051995
C89   C     C_R   0.407757 0.550838 0.988611 0.026477
C90   C     C_R   0.583884 0.462975 0.002795 0.010015
C91   C     C_R   0.583999 0.027243 0.450003 0.009873
C92   C     C_R   0.397804 0.046051 0.520776 0.014312
C93   C     C_R   0.449590 0.592461 0.012130 0.008431
C94   C     C_R   0.534290 0.413934 0.002089 0.009478
C95   C     C_R   0.028235 0.449556 0.584524 -0.001289
C96   C     C_R   0.045177 0.520466 0.397536 0.010512
C97   C     C_R   0.449026 0.011353 0.444861 -0.040755
C98   C     C_R   0.535095 0.051175 0.532265 -0.039957
C99   C     C_R   0.010333 0.444724 0.449858 -0.030081
C100  C     C_R   0.051440 0.532182 0.534794 -0.039549
C101  C     C_R   0.448271 0.459459 0.988822 -0.032402
C102  C     C_R   0.539933 0.550338 0.013792 -0.043728
C103  C     C_2   0.384844 0.156775 0.761610 0.486079
H19   H     H_    0.321544 0.146193 0.811536 0.076332
O25   O     O_2   0.412189 0.214180 0.761243 -0.580251
C104  C     C_2   0.608712 0.854437 0.258012 0.446321
H20   H     H_    0.576101 0.825642 0.236831 0.055522
O26   O     O_2   0.689580 0.818781 0.250474 -0.596834
C105  C     C_2   0.154134 0.763266 0.381751 0.506097
H21   H     H_    0.142095 0.813345 0.318625 0.070491
O27   O     O_2   0.211803 0.763630 0.407863 -0.577009
C106  C     C_2   0.856079 0.255784 0.613120 0.433134
H22   H     H_    0.827534 0.233490 0.581252 0.059599
O28   O     O_2   0.821456 0.248199 0.694720 -0.583623
C107  C     C_2   0.809432 0.485450 0.891471 0.478440
H23   H     H_    0.835497 0.544142 0.860863 0.060464
O29   O     O_2   0.847049 0.423612 0.856004 -0.600946
C108  C     C_2   0.245123 0.617204 0.858447 0.443273
H24   H     H_    0.229295 0.585287 0.824225 0.059219
O30   O     O_2   0.226655 0.700348 0.833122 -0.593944
C109  C     C_2   0.177204 0.144688 0.469922 0.458073
H25   H     H_    0.151883 0.150236 0.417337 0.054100
O31   O     O_2   0.140364 0.205193 0.507050 -0.604224
C110  C     C_2   0.762556 0.136931 0.378162 0.475500
H26   H     H_    0.778851 0.174754 0.405868 0.050117
O32   O     O_2   0.785592 0.153372 0.295159 -0.591315
C111  C     C_2   0.507004 0.187673 0.115304 0.482967
H27   H     H_    0.448599 0.161933 0.143475 0.053584
O33   O     O_2   0.566663 0.149109 0.153228 -0.591552
C112  C     C_2   0.384341 0.754721 0.143047 0.480294
H28   H     H_    0.416188 0.769741 0.177865 0.056278
O34   O     O_2   0.301729 0.774039 0.167849 -0.627843
C113  C     C_2   0.145177 0.465838 0.177731 0.463207
H29   H     H_    0.149515 0.414008 0.151983 0.054159
O35   O     O_2   0.207433 0.500131 0.142424 -0.599360
C114  C     C_2   0.139997 0.378650 0.762470 0.474659
H30   H     H_    0.176905 0.407247 0.778701 0.063899
O36   O     O_2   0.156860 0.295715 0.786145 -0.635909

loop_
_geom_bond_atom_site_label_1
_geom_bond_atom_site_label_2
_geom_bond_distance
_ccdc_geom_bond_type
C7    C26   1.414205 A    
C11   C28   1.415404 A    
C2    C26   1.412229 A    
O23   Zn2   2.052189 S    
C4    C54   1.427652 A    
C13   C42   1.461620 S    
O20   C18   1.291884 A    
C109  H25   1.083439 S    
C107  H23   1.085515 S    
O9    C21   1.237689 A    
H12   C81   1.081076 S    
C39   C60   1.372289 A    
O10   C22   1.234770 A    
O23   C13   1.293513 A    
C112  H28   1.085068 S    
H10   C83   1.080608 S    
C91   C98   1.410983 A    
C41   C58   1.375632 A    
O4    C16   1.232773 A    
C113  H29   1.083428 S    
C90   C102  1.396895 A    
O5    C17   1.238524 A    
C53   C64   1.416704 A    
C12   C42   1.443072 A    
C105  H21   1.083171 S    
O6    C18   1.246303 A    
H9    C84   1.078835 S    
H6    C60   1.085532 S    
C66   C94   1.396883 A    
C47   C70   1.408418 A    
C36   C60   1.372291 A    
C107  O29   1.219998 D    
O13   Zn1   2.067116 S    
O13   C23   1.285120 A    
C64   C76   1.406684 A    
C44   C104  1.498428 S    
C96   C99   1.414179 A    
C86   C92   1.422130 A    
C66   C78   1.409436 A    
C28   C100  1.412598 A    
O6    Zn6   2.031850 S    
C65   C77   1.412734 A    
C78   C82   1.403793 A    
C2    C32   1.435163 A    
H2    C56   1.084628 S    
C38   C55   1.364770 A    
C67   C79   1.410599 A    
C114  H30   1.085499 S    
C76   C84   1.397334 A    
C14   C41   1.472723 S    
O10   Zn3   2.029790 S    
C52   C65   1.425209 A    
C12   C46   1.429023 A    
C22   C33   1.435465 S    
H3    C57   1.086093 S    
C51   C66   1.406838 A    
C89   C93   1.411079 A    
O20   Zn5   2.049199 S    
O1    C13   1.232296 A    
C9    C47   1.430880 A    
O15   C21   1.281874 A    
C48   C69   1.427213 A    
C16   C39   1.449194 S    
C32   C56   1.375129 A    
C71   C83   1.410186 A    
C103  H19   1.082978 S    
C7    C37   1.442142 A    
O22   C16   1.281133 A    
O9    Zn4   2.029790 S    
C69   C81   1.412464 A    
O8    Zn5   2.036334 S    
C104  O26   1.220833 D    
O11   C23   1.236035 A    
C63   C95   1.404308 A    
O22   Zn3   2.067369 S    
H11   C82   1.082671 S    
C87   C95   1.415654 A    
O18   C20   1.279519 A    
C105  O27   1.221277 D    
O19   C17   1.295243 A    
O12   Zn1   2.044178 S    
C103  O25   1.221316 D    
C108  O30   1.220237 D    
C3    C27   1.406320 A    
C89   C101  1.398853 A    
H17   C76   1.082510 S    
H7    C80   1.078596 S    
O15   Zn3   2.049219 S    
O14   C24   1.275709 A    
C110  O32   1.220608 D    
C93   C102  1.401199 A    
C29   C101  1.402488 A    
C95   C100  1.412293 A    
C86   C98   1.402483 A    
C45   C105  1.488421 S    
C19   C36   1.448251 S    
C8    C44   1.428502 A    
C63   C75   1.407687 A    
C11   C41   1.443171 A    
C50   C61   1.416322 A    
C48   C108  1.495757 S    
C2    C50   1.427014 A    
C9    C30   1.415691 A    
C111  O33   1.220741 D    
C49   C62   1.420215 A    
C90   C94   1.396510 A    
C113  O35   1.219699 D    
O2    C14   1.240336 A    
C10   C29   1.411928 A    
H1    C55   1.086045 S    
C12   C27   1.418205 A    
C4    C28   1.408860 A    
H14   C73   1.082003 S    
C67   C85   1.413379 A    
O3    C15   1.233900 A    
C49   C109  1.493248 S    
C9    C39   1.432601 A    
C72   C88   1.416191 A    
C53   C113  1.492286 S    
O21   C15   1.288644 A    
C70   C82   1.408998 A    
C3    C53   1.424453 A    
C46   C106  1.497393 S    
C23   C32   1.461725 S    
O21   Zn4   2.067370 S    
C111  H27   1.085433 S    
C45   C72   1.431069 A    
C44   C67   1.427349 A    
C71   C87   1.413609 A    
C21   C34   1.455437 S    
C1    C31   1.433988 A    
C30   C102  1.403020 A    
O17   C19   1.288626 A    
C68   C86   1.415681 A    
C7    C43   1.432723 A    
O7    C19   1.239666 A    
C104  H20   1.084541 S    
C88   C100  1.400451 A    
C5    C29   1.412218 A    
O7    Zn6   2.036336 S    
C42   C57   1.363197 A    
H15   C78   1.082568 S    
C6    C30   1.408633 A    
H8    C79   1.080536 S    
C54   C114  1.496067 S    
C85   C91   1.417123 A    
C87   C99   1.399655 A    
C27   C99   1.413471 A    
C108  H24   1.084937 S    
C50   C110  1.496161 S    
O24   C14   1.289080 A    
C85   C97   1.402051 A    
H18   C75   1.081680 S    
O5    Zn5   2.031850 S    
O16   Zn4   2.049219 S    
C46   C71   1.428635 A    
O8    C20   1.239741 A    
C17   C38   1.460381 S    
O3    Zn3   2.046146 S    
C110  H26   1.085590 S    
C94   C101  1.399838 A    
O19   Zn6   2.049200 S    
C43   C103  1.489189 S    
C109  O31   1.219318 D    
C47   C107  1.492564 S    
C11   C45   1.432308 A    
C75   C83   1.399447 A    
C15   C40   1.452575 S    
C5    C51   1.430792 A    
C54   C63   1.416072 A    
C8    C38   1.440572 A    
C69   C89   1.402150 A    
C72   C84   1.412328 A    
H4    C58   1.084708 S    
O11   Zn2   2.044178 S    
O2    Zn2   2.032301 S    
C92   C97   1.413080 A    
C112  O34   1.219834 D    
C74   C80   1.397415 A    
C73   C79   1.398987 A    
C24   C31   1.442351 S    
C6    C36   1.433001 A    
C51   C111  1.493760 S    
C33   C57   1.369806 A    
C5    C35   1.426951 A    
C61   C91   1.405041 A    
O1    Zn1   2.032301 S    
C106  H22   1.084033 S    
C64   C96   1.404608 A    
C62   C92   1.406282 A    
C40   C59   1.370089 A    
C34   C58   1.375655 A    
C88   C96   1.419447 A    
C70   C90   1.397250 A    
C62   C74   1.407144 A    
O16   C22   1.271616 A    
C61   C73   1.406644 A    
H5    C59   1.085669 S    
H16   C77   1.081068 S    
C37   C56   1.377371 A    
O14   Zn2   2.067116 S    
C114  O36   1.220134 D    
C8    C25   1.417284 A    
C65   C93   1.400753 A    
C18   C37   1.471538 S    
C26   C98   1.415286 A    
C20   C35   1.442057 S    
C6    C52   1.437779 A    
O4    Zn4   2.046146 S    
C25   C97   1.415490 A    
O24   Zn1   2.052191 S    
O18   Zn6   2.052427 S    
C77   C81   1.407591 A    
C35   C59   1.373467 A    
O17   Zn5   2.052425 S    
C68   C80   1.412079 A    
C1    C49   1.425848 A    
C10   C48   1.437817 A    
C3    C33   1.428277 A    
C4    C34   1.430825 A    
C43   C68   1.431221 A    
H13   C74   1.082224 S    
C52   C112  1.496066 S    
C10   C40   1.437144 A    
O12   C24   1.233249 A    
C31   C55   1.369608 A    
C106  O28   1.220262 D    
C1    C25   1.409855 A    
