data_mof_unit_37931.cif
_audit_creation_date              2012-12-10T17:16:40-0500
_audit_creation_method            fapswitch 2.2
_symmetry_space_group_name_H-M    P1
_symmetry_Int_Tables_number       1
_space_group_crystal_system       triclinic
_cell_length_a                    10.119455
_cell_length_b                    10.655983
_cell_length_c                    10.838443
_cell_angle_alpha                 89.74651
_cell_angle_beta                  94.753183
_cell_angle_gamma                 81.526037
_cell_volume                      1151.84020722

loop_
_atom_site_label
_atom_site_type_symbol
_atom_type_description
_atom_site_fract_x
_atom_site_fract_y
_atom_site_fract_z
_atom_type_partial_charge
C1    C     C_R   0.444254 0.511675 0.267502 0.929189
C2    C     C_R   0.555822 0.494790 0.732481 0.930409
C3    C     C_2   0.412798 0.528927 0.136036 -0.356396
C4    C     C_2   0.587584 0.502687 0.863827 -0.360918
C5    C     C_2   0.513137 0.536294 0.065701 -0.134554
C6    C     C_2   0.487824 0.540373 0.934004 -0.148044
C7    C     C_2   0.071768 0.494685 0.487101 0.026164
C8    C     C_2   0.928276 0.505147 0.513035 0.023866
C9    C     C_R   0.494464 0.261101 0.482626 0.873121
C10   C     C_R   0.505582 0.738834 0.517534 0.865369
C11   C     C_R   0.710239 0.081807 0.380414 -0.089214
C12   C     C_R   0.290159 0.917909 0.620436 -0.089624
C13   C     C_R   0.836349 0.007915 0.385135 -0.137496
C14   C     C_R   0.164036 0.991762 0.615832 -0.136301
C15   C     C_R   0.861660 0.896888 0.456421 -0.157089
C16   C     C_R   0.138622 0.102804 0.544565 -0.155817
C17   C     C_R   0.757786 0.854884 0.514268 -0.100284
C18   C     C_R   0.242410 0.144868 0.486624 -0.099877
C19   C     C_R   0.626205 0.923071 0.500289 0.086197
C20   C     C_R   0.374034 0.076752 0.500509 0.085750
C21   C     C_R   0.607263 0.044724 0.446959 0.064136
C22   C     C_R   0.393029 0.955088 0.553827 0.065507
C23   C     C_R   0.513119 0.873424 0.537212 -0.246755
C24   C     C_R   0.487085 0.126397 0.463416 -0.249117
H1    H     H_    0.039167 0.157448 0.535754 0.179513
H2    H     H_    0.961088 0.842192 0.465280 0.180142
H3    H     H_    0.693307 0.167440 0.323749 0.190281
H4    H     H_    0.307195 0.832198 0.677005 0.186649
H5    H     H_    0.915278 0.038545 0.336164 0.177675
H6    H     H_    0.085168 0.961072 0.664843 0.177480
H7    H     H_    0.781602 0.770461 0.571987 0.159962
H8    H     H_    0.218446 0.229236 0.428850 0.159541
H9    H     H_    0.384687 0.566281 0.895021 0.221374
H10   H     H_    0.616568 0.530665 0.104605 0.216627
H11   H     H_    0.690432 0.476632 0.903253 0.175224
H12   H     H_    0.309668 0.534166 0.096691 0.172866
H13   H     H_    0.891888 0.562113 0.588892 0.153098
H14   H     H_    0.108205 0.437538 0.411379 0.152198
N1    N     N_2   0.157300 0.551390 0.551120 0.038551
N2    N     N_2   0.842700 0.448610 0.448880 0.037440
O1    O     O_R   0.568940 0.489660 0.307530 -0.575520
O2    O     O_R   0.431060 0.510340 0.692470 -0.574037
O3    O     O_R   0.348880 0.522640 0.340350 -0.628771
O4    O     O_R   0.651120 0.477360 0.659650 -0.627880
O5    O     O_R   0.610030 0.300280 0.483580 -0.587963
O6    O     O_R   0.389970 0.699720 0.516420 -0.590378
O7    O     O_R   0.389970 0.333270 0.516400 -0.624880
O8    O     O_R   0.610030 0.666730 0.483600 -0.628320
Zn1   Zn    Zn3+2 0.646940 0.477980 0.478080 1.013721
Zn2   Zn    Zn3+2 0.353060 0.522020 0.521920 1.014393
Cl1   Cl    Cl    0.888678 0.358003 0.322460 -0.625485
Cl2   Cl    Cl    0.111211 0.642450 0.677227 -0.631724

loop_
_geom_bond_atom_site_label_1
_geom_bond_atom_site_label_2
_ccdc_geom_bond_type
O4    Zn1   S    
C10   O6    A    
C19   C23   A    
O3    Zn2   S    
C9    O5    A    
C11   H3    S    
C10   C23   S    
N2    Cl1   S    
C1    O3    A    
O6    Zn2   S    
C2    C4    S    
C6    H9    S    
O5    Zn1   S    
C13   H5    S    
C5    H10   S    
N1    Cl2   S    
C12   C14   A    
C4    H11   S    
C7    C8    S    
C9    C24   S    
C1    C3    S    
C11   C13   A    
C3    H12   S    
O2    Zn2   S    
C1    O1    A    
O8    Zn1   S    
C19   C21   A    
C7    H14   S    
C2    O2    A    
C9    O7    A    
O7    Zn2   S    
C18   C20   A    
C13   C15   A    
C10   O8    A    
C5    C6    S    
C17   H7    S    
C14   C16   A    
C4    C6    D    
C18   H8    S    
C8    H13   S    
C20   C22   A    
N2    Zn1   S    
C12   C22   A    
N1    Zn2   S    
C12   H4    S    
C16   C18   A    
C21   C24   A    
O1    Zn1   S    
C16   H1    S    
C15   C17   A    
C7    N1    D    
C22   C23   A    
C15   H2    S    
C8    N2    D    
C17   C19   A    
C14   H6    S    
C11   C21   A    
C20   C24   A    
C2    O4    A    
C3    C5    D    
