data_mof_unit_40166.cif
_audit_creation_date              2012-12-10T17:11:04-0500
_audit_creation_method            fapswitch 2.2
_symmetry_space_group_name_H-M    P1
_symmetry_Int_Tables_number       1
_space_group_crystal_system       triclinic
_cell_length_a                    10.010384
_cell_length_b                    10.748763
_cell_length_c                    16.621104
_cell_angle_alpha                 90.098642
_cell_angle_beta                  84.796466
_cell_angle_gamma                 89.967149
_cell_volume                      1781.04470906

loop_
_atom_site_label
_atom_site_type_symbol
_atom_type_description
_atom_site_fract_x
_atom_site_fract_y
_atom_site_fract_z
_atom_type_partial_charge
C1    C     C_R   0.499782 0.737361 0.502148 0.940020
C2    C     C_R   0.532845 0.489285 0.258477 -0.033048
C3    C     C_2   0.611377 0.067023 0.506227 -0.166644
C4    C     C_R   0.481031 0.493000 0.653158 0.859994
C5    C     C_2   0.501686 0.131025 0.491983 -0.331908
C6    C     C_2   0.612713 0.933129 0.501497 -0.161036
C7    C     C_2   0.498390 0.868780 0.510702 -0.339529
C8    C     C_2   0.082841 0.437078 0.448470 -0.129642
C9    C     C_2   0.932226 0.431338 0.451620 -0.142489
C10   C     C_R   0.500342 0.262617 0.498563 0.929923
C11   C     C_R   0.519183 0.499636 0.346253 0.857429
C12   C     C_R   0.361586 0.482452 0.790332 -0.270246
C13   C     C_R   0.469197 0.447254 0.735507 -0.030353
C14   C     C_R   0.559815 0.356057 0.756437 -0.188189
C15   C     C_R   0.549160 0.306869 0.833557 -0.164542
C16   C     C_R   0.450989 0.351840 0.891270 0.137875
C17   C     C_R   0.351655 0.435661 0.869166 0.051573
C18   C     C_R   0.663436 0.493690 0.953354 0.167034
C19   C     C_R   0.634924 0.618484 0.937122 -0.140925
C20   C     C_R   0.725623 0.688967 0.887101 -0.153247
C21   C     C_R   0.845159 0.635354 0.853325 -0.106847
C22   C     C_R   0.874273 0.511226 0.869612 -0.098626
C23   C     C_R   0.429549 0.467779 0.133696 -0.180270
C24   C     C_R   0.784102 0.440617 0.919874 -0.167223
C25   C     C_R   0.243126 0.481133 0.928773 0.112705
C26   C     C_R   0.163370 0.396271 0.976026 -0.189070
C27   C     C_R   0.063385 0.438977 0.033605 -0.159313
C28   C     C_R   0.040682 0.566552 0.043693 -0.092364
C29   C     C_R   0.118177 0.651616 0.996227 -0.126210
C30   C     C_R   0.219097 0.609326 0.938992 -0.181809
C31   C     C_R   0.418077 0.489942 0.216123 -0.203905
C32   C     C_R   0.659807 0.470742 0.216844 -0.203155
C33   C     C_R   0.671017 0.448338 0.134206 -0.175123
C34   C     C_R   0.555707 0.443779 0.092794 0.149736
C35   C     C_2   0.477036 0.341786 0.975953 -0.304273
C36   C     C_2   0.566708 0.418680 0.006022 -0.034112
H1    H     H_    0.639925 0.323609 0.713252 0.152417
H2    H     H_    0.892533 0.563701 0.535134 0.161789
H3    H     H_    0.319268 0.505516 0.246729 0.155746
H4    H     H_    0.749976 0.470340 0.248273 0.151779
H5    H     H_    0.339876 0.469169 0.101890 0.159117
H6    H     H_    0.287901 0.548345 0.772327 0.141390
H7    H     H_    0.406435 0.289594 0.016297 0.151505
H8    H     H_    0.624896 0.242230 0.850369 0.134377
H9    H     H_    0.542274 0.660589 0.962732 0.126295
H10   H     H_    0.703199 0.785105 0.874457 0.126801
H11   H     H_    0.915344 0.690026 0.814687 0.118994
H12   H     H_    0.768891 0.431682 0.102938 0.124705
H13   H     H_    0.967053 0.469959 0.843662 0.136667
H14   H     H_    0.807954 0.344759 0.932588 0.118439
H15   H     H_    0.178624 0.297071 0.968291 0.122220
H16   H     H_    0.003353 0.372958 0.070188 0.121288
H17   H     H_    0.962799 0.599477 0.088055 0.123702
H18   H     H_    0.100361 0.750407 0.003979 0.124579
H19   H     H_    0.279509 0.676483 0.903456 0.122019
H20   H     H_    0.703078 0.113037 0.520323 0.170776
H21   H     H_    0.411576 0.088114 0.473222 0.149395
H22   H     H_    0.709631 0.887562 0.490683 0.171897
H23   H     H_    0.401431 0.911382 0.526739 0.149497
H24   H     H_    0.139690 0.384337 0.401318 0.156475
H25   H     H_    0.095079 0.542973 0.546617 0.158524
H26   H     H_    0.888700 0.368085 0.410298 0.155809
N1    N     N_2   0.147950 0.498670 0.499150 -0.189446
N2    N     N_2   0.852290 0.498640 0.499130 -0.191793
O1    O     O_R   0.386960 0.680940 0.500010 -0.614787
O2    O     O_R   0.613100 0.680900 0.499990 -0.611527
O3    O     O_R   0.373570 0.500040 0.615810 -0.613710
O4    O     O_R   0.599710 0.500000 0.615790 -0.613058
O5    O     O_R   0.386900 0.319100 0.500010 -0.611759
O6    O     O_R   0.613040 0.319060 0.499990 -0.614746
O7    O     O_R   0.400290 0.500000 0.384210 -0.615212
O8    O     O_R   0.626430 0.499960 0.384190 -0.614112
Zn1   Zn    Zn3+2 0.349000 0.500030 0.500020 0.938006
Zn2   Zn    Zn3+2 0.651000 0.499970 0.499980 0.933750

loop_
_geom_bond_atom_site_label_1
_geom_bond_atom_site_label_2
_ccdc_geom_bond_type
C12   C17   A    
O6    Zn2   S    
C4    O3    A    
C1    O1    A    
C28   H17   S    
C19   H9    S    
O5    Zn1   S    
C29   C30   A    
O3    Zn1   S    
C9    N2    D    
C35   H7    S    
C30   H19   S    
C6    H22   S    
H2    N2    S    
C35   C36   D    
C23   H5    S    
C5    H21   S    
C3    C6    S    
C17   C25   S    
C32   C33   A    
C23   C34   A    
C22   C24   A    
C14   C15   A    
C33   C34   A    
C5    C10   S    
C1    C7    S    
C26   H15   S    
C8    H24   S    
C14   H1    S    
C12   C13   A    
C26   C27   A    
C6    C7    D    
C18   C36   S    
C22   H13   S    
C18   C24   A    
C2    C11   S    
C10   O6    A    
C2    C32   A    
C21   C22   A    
C28   C29   A    
C31   H3    S    
C15   H8    S    
C1    O2    A    
C34   C36   S    
C32   H4    S    
C16   C35   S    
C24   H14   S    
C27   H16   S    
C2    C31   A    
C11   O7    A    
C16   C17   A    
C29   H18   S    
C8    N1    D    
O4    Zn2   S    
C15   C16   A    
O2    Zn2   S    
C10   O5    A    
O7    Zn1   S    
C4    C13   S    
O1    Zn1   S    
C20   C21   A    
O8    Zn2   S    
C18   C19   A    
C3    H20   S    
C7    H23   S    
C27   C28   A    
H25   N1    S    
C33   H12   S    
N2    Zn2   S    
C11   O8    A    
C25   C30   A    
C12   H6    S    
N1    Zn1   S    
C19   C20   A    
C21   H11   S    
C25   C26   A    
C13   C14   A    
C4    O4    A    
C20   H10   S    
C9    H26   S    
C8    C9    S    
C3    C5    D    
C23   C31   A    
