data_mof_unit_13525.cif
_audit_creation_date              2012-12-10T19:48:34-0500
_audit_creation_method            fapswitch 2.2
_symmetry_space_group_name_H-M    P1
_symmetry_Int_Tables_number       1
_space_group_crystal_system       triclinic
_cell_length_a                    10.821775
_cell_length_b                    10.628986
_cell_length_c                    9.428936
_cell_angle_alpha                 90.48161
_cell_angle_beta                  91.158242
_cell_angle_gamma                 88.237784
_cell_volume                      1083.79129648

loop_
_atom_site_label
_atom_site_type_symbol
_atom_type_description
_atom_site_fract_x
_atom_site_fract_y
_atom_site_fract_z
_atom_type_partial_charge
C1    C     C_R   0.501684 0.259601 0.499414 0.854707
C2    C     C_3   0.385044 0.046889 0.469529 -0.349381
C3    C     C_3   0.498533 0.876980 0.501793 -0.132873
C4    C     C_3   0.501468 0.123020 0.498207 -0.132872
C5    C     C_3   0.422685 0.964726 0.597797 0.511919
C6    C     C_3   0.577317 0.035274 0.402203 0.511921
C7    C     C_3   0.511503 0.612697 0.051633 0.003259
C8    C     C_3   0.488497 0.387303 0.948367 0.003259
C9    C     C_3   0.409666 0.569425 0.947776 -0.003252
C10   C     C_3   0.590334 0.430575 0.052224 -0.003254
C11   C     C_3   0.602022 0.543155 0.952365 -0.058859
C12   C     C_R   0.498316 0.740398 0.500586 0.854705
C13   C     C_3   0.397978 0.456845 0.047635 -0.058859
C14   C     C_R   0.262439 0.504477 0.498777 0.802850
C15   C     C_R   0.737561 0.495523 0.501223 0.802852
C16   C     C_R   0.177804 0.851686 0.213162 -0.161677
C17   C     C_R   0.822202 0.148309 0.786832 -0.161679
C18   C     C_R   0.152552 0.765053 0.318516 -0.147097
C19   C     C_R   0.847454 0.234942 0.681479 -0.147101
C20   C     C_R   0.107358 0.646728 0.281195 0.137175
C21   C     C_R   0.892642 0.353270 0.718802 0.137177
C22   C     C_R   0.090954 0.614955 0.137439 -0.176545
C23   C     C_R   0.871569 0.494336 0.502426 -0.063196
C24   C     C_R   0.909038 0.385045 0.862559 -0.176543
C25   C     C_R   0.116736 0.701647 0.032362 -0.161855
C26   C     C_R   0.883257 0.298352 0.967635 -0.161853
C27   C     C_R   0.159130 0.820300 0.070436 -0.019860
C28   C     C_R   0.840869 0.179697 0.929559 -0.019858
C29   C     C_R   0.928375 0.559048 0.394326 -0.229846
C30   C     C_R   0.071625 0.440953 0.605673 -0.229846
C31   C     C_R   0.128431 0.505664 0.497574 -0.063196
C32   C     C_R   0.943792 0.433773 0.609067 0.001991
C33   C     C_R   0.056208 0.566227 0.390932 0.001993
C34   C     C_3   0.537861 0.042469 0.628112 -0.225059
C35   C     C_3   0.462140 0.957531 0.371888 -0.225061
C36   C     C_3   0.614958 0.953111 0.530471 -0.349380
Cu1   Cu    Cu3+1 0.500030 0.499990 0.643150 0.985794
Cu2   Cu    Cu3+1 0.499970 0.500010 0.356850 0.985793
H1    H     H_    0.175355 0.888855 0.989741 0.230398
H2    H     H_    0.791882 0.055404 0.757883 0.146429
H3    H     H_    0.162085 0.792476 0.428722 0.169080
H4    H     H_    0.837928 0.207517 0.571273 0.169082
H5    H     H_    0.054570 0.524612 0.107597 0.122405
H6    H     H_    0.945417 0.475390 0.892403 0.122403
H7    H     H_    0.101630 0.677747 0.921659 0.161425
H8    H     H_    0.898357 0.322254 0.078339 0.161425
H9    H     H_    0.872508 0.608314 0.314247 0.164314
H10   H     H_    0.127492 0.391686 0.685753 0.164315
H11   H     H_    0.708883 0.912816 0.554195 0.154636
H12   H     H_    0.824643 0.111141 0.010254 0.230397
H13   H     H_    0.291118 0.087183 0.445804 0.154637
H14   H     H_    0.565742 0.079128 0.734178 0.192516
H15   H     H_    0.434260 0.920872 0.265821 0.192515
H16   H     H_    0.178476 0.063074 0.696130 0.339861
H17   H     H_    0.821527 0.936928 0.303869 0.339861
H18   H     H_    0.334399 0.627791 0.897932 0.182121
H19   H     H_    0.665600 0.372209 0.102069 0.182120
H20   H     H_    0.521085 0.707966 0.098943 0.165746
H21   H     H_    0.478914 0.292034 0.901057 0.165747
H22   H     H_    0.687944 0.579657 0.907804 0.138126
H23   H     H_    0.312056 0.420343 0.092196 0.138127
H24   H     H_    0.208128 0.944589 0.242111 0.146429
N1    N     N_3   0.500090 0.499970 0.858290 -0.178256
N2    N     N_3   0.499910 0.500030 0.141710 -0.178256
O1    O     O_R   0.500060 0.316850 0.620870 -0.597943
O2    O     O_2   0.398980 0.879571 0.861594 -0.295429
O3    O     O_3   0.232333 0.046230 0.780462 -0.544762
O4    O     O_2   0.601021 0.120429 0.138406 -0.295430
O5    O     O_2   0.757245 0.184927 0.313746 -0.371706
O6    O     O_3   0.767669 0.953770 0.219538 -0.544762
O7    O     O_R   0.499940 0.683150 0.379130 -0.597943
O8    O     O_R   0.500000 0.316860 0.379090 -0.534466
O9    O     O_R   0.500000 0.683140 0.620910 -0.534465
O10   O     O_R   0.319670 0.500010 0.620890 -0.575902
O11   O     O_R   0.680330 0.499990 0.379110 -0.575903
O12   O     O_R   0.319620 0.500010 0.379110 -0.588774
O13   O     O_R   0.680380 0.499990 0.620890 -0.588774
O14   O     O_2   0.242755 0.815074 0.686253 -0.371706
S1    S     S_3+6 0.322264 0.921112 0.734913 -0.048016
S2    S     S_3+6 0.677737 0.078888 0.265086 -0.048017

loop_
_geom_bond_atom_site_label_1
_geom_bond_atom_site_label_2
_ccdc_geom_bond_type
C2    C35   S    
O4    S2    D    
C15   O11   A    
Cu1   O10   S    
C8    C13   S    
C35   H15   S    
C14   C31   S    
Cu2   O12   S    
C7    C11   S    
O2    S1    D    
C29   H9    S    
C23   C29   A    
C30   H10   S    
C19   C21   A    
C24   C26   A    
C11   N1    S    
C8    H21   S    
C30   C31   A    
C29   C33   A    
C6    C35   S    
C9    C13   S    
C14   O10   A    
C3    C12   S    
C28   H12   S    
C27   H1    S    
C22   C25   A    
Cu1   O1    S    
C1    O1    A    
C31   C33   A    
C5    S1    S    
C7    H20   S    
C18   C20   A    
C19   H4    S    
C16   C27   A    
C15   C23   S    
C12   O9    A    
C16   H24   S    
Cu1   N1    S    
Cu2   N2    S    
Cu2   O11   S    
C21   C32   S    
Cu2   O8    S    
C1    O8    A    
O6    S2    S    
C10   H19   S    
O3    S1    S    
C4    C6    S    
C2    H13   S    
C18   H3    S    
O14   S1    D    
H16   O3    S    
Cu1   O13   S    
C17   H2    S    
C14   O12   A    
C2    C4    S    
Cu1   Cu2   S    
C6    S2    S    
C22   H5    S    
C3    C35   S    
C5    C34   S    
C9    H18   S    
C20   C33   S    
C16   C18   A    
C12   O7    A    
C20   C22   A    
C24   H6    S    
C2    C5    S    
C11   H22   S    
C25   H7    S    
C7    C9    S    
Cu1   O9    S    
Cu2   O7    S    
C9    N1    S    
C17   C28   A    
C34   H14   S    
C10   N2    S    
C3    C5    S    
C25   C27   A    
C26   C28   A    
C1    C4    S    
C23   C32   A    
C30   C32   A    
C15   O13   A    
C13   N2    S    
C3    C36   S    
C17   C19   A    
C6    C36   S    
C34   C36   S    
C4    C34   S    
C7    N2    S    
H17   O6    S    
C10   C11   S    
C26   H8    S    
C8    N1    S    
C13   H23   S    
C8    C10   S    
C21   C24   A    
O5    S2    D    
C36   H11   S    
