data_mof_unit_35455.cif
_audit_creation_date              2012-10-26T20:07:11-0400
_audit_creation_method            fapswitch 2.2
_symmetry_space_group_name_H-M    P1
_symmetry_Int_Tables_number       1
_space_group_crystal_system       triclinic
_cell_length_a                    10.861431
_cell_length_b                    9.74637
_cell_length_c                    27.68026
_cell_angle_alpha                 89.327559
_cell_angle_beta                  96.876208
_cell_angle_gamma                 88.669251
_cell_volume                      2908.04683092

loop_
_atom_site_label
_atom_site_type_symbol
_atom_type_description
_atom_site_fract_x
_atom_site_fract_y
_atom_site_fract_z
_atom_type_partial_charge
C1    C     C_R   0.262014 0.502188 0.500087 0.571903
C2    C     C_R   0.378538 0.437372 0.867492 0.002759
C3    C     C_R   0.490052 0.503661 0.354346 -0.000117
C4    C     C_R   0.505060 0.498520 0.645609 0.000201
C5    C     C_R   0.376017 0.433730 0.969514 0.018533
C6    C     C_R   0.604168 0.423057 0.030351 0.018800
C7    C     C_R   0.602932 0.451952 0.979965 0.012493
C8    C     C_R   0.378249 0.462970 0.019719 0.012430
C9    C     C_R   0.488841 0.447790 0.949341 0.020614
C10   C     C_R   0.492103 0.448328 0.050399 0.021167
C11   C     C_R   0.267890 0.397096 0.938219 0.000632
C12   C     C_R   0.734907 0.498973 0.494763 0.544191
C13   C     C_R   0.710910 0.376259 0.061895 -0.000088
C14   C     C_R   0.270328 0.403637 0.887515 -0.101098
C15   C     C_R   0.709095 0.384049 0.112522 -0.100231
C16   C     C_R   0.496876 0.501083 0.407674 0.532719
C17   C     C_R   0.502402 0.499473 0.592337 0.554331
C18   C     C_R   0.274571 0.518725 0.039398 -0.160083
C19   C     C_R   0.708341 0.497659 0.959976 -0.159997
C20   C     C_R   0.063514 0.390618 0.512568 -0.056704
C21   C     C_R   0.923233 0.619921 0.473075 -0.008391
C22   C     C_R   0.938968 0.377274 0.494327 -0.067064
C23   C     C_R   0.494215 0.463039 0.101083 -0.033551
C24   C     C_R   0.053647 0.621351 0.476378 -0.003226
C25   C     C_R   0.865908 0.497802 0.485487 -0.019162
C26   C     C_R   0.125400 0.507839 0.498440 -0.022430
C27   C     C_R   0.420354 0.076632 0.467000 0.151417
C28   C     C_R   0.573555 0.922854 0.535400 0.153408
C29   C     C_R   0.580568 0.070704 0.533036 0.159389
C30   C     C_R   0.428991 0.929568 0.464266 0.121315
C31   C     C_R   0.394480 0.533579 0.170732 0.378686
C32   C     C_R   0.589782 0.521578 0.828503 0.378926
C33   C     C_R   0.599738 0.435936 0.182812 0.376983
C34   C     C_R   0.487505 0.461702 0.898549 -0.032380
C35   C     C_R   0.382124 0.442455 0.816904 0.368263
C36   C     C_R   0.576072 0.581798 0.281947 0.051363
C37   C     C_R   0.415793 0.583576 0.716360 0.049863
C38   C     C_R   0.579404 0.575139 0.332615 -0.143106
C39   C     C_R   0.416811 0.578815 0.665930 -0.134652
C40   C     C_R   0.394451 0.438279 0.324855 -0.000626
C41   C     C_R   0.595361 0.421827 0.676364 -0.004356
C42   C     C_R   0.408994 0.415319 0.275430 0.078651
C43   C     C_R   0.575490 0.399503 0.725516 0.080499
C44   C     C_R   0.495134 0.494884 0.253075 0.240939
C45   C     C_R   0.388460 0.514097 0.120387 0.027199
C46   C     C_R   0.490609 0.487698 0.746369 0.245708
C47   C     C_3   0.270354 0.413687 0.343481 -0.293712
C48   C     C_3   0.171606 0.517287 0.320807 -0.402936
C49   C     C_3   0.719085 0.382540 0.658957 -0.293704
C50   C     C_3   0.825468 0.460243 0.686642 -0.420695
C51   C     C_3   0.319808 0.151893 0.433047 -0.249478
C52   C     C_3   0.189229 0.129327 0.446825 -0.441306
C53   C     C_3   0.646141 0.845459 0.578450 -0.219523
C54   C     C_3   0.579108 0.848789 0.624200 -0.425626
C55   C     C_3   0.671326 0.142269 0.570197 -0.239973
C56   C     C_R   0.594818 0.502568 0.878973 0.028286
C57   C     C_3   0.809553 0.110265 0.568291 -0.455678
C58   C     C_3   0.368690 0.862248 0.418508 -0.229591
C59   C     C_3   0.452859 0.868713 0.377965 -0.411993
C60   C     C_3   0.338581 0.300885 0.248017 -0.246142
C61   C     C_3   0.387451 0.160343 0.267636 -0.446666
C62   C     C_3   0.637916 0.277724 0.754696 -0.260005
C63   C     C_3   0.546576 0.162260 0.757929 -0.441096
C64   C     C_3   0.334157 0.691787 0.736586 -0.243950
C65   C     C_3   0.378073 0.836233 0.726932 -0.459931
C66   C     C_3   0.660600 0.681163 0.260245 -0.243265
C67   C     C_R   0.279944 0.545094 0.089001 -0.122928
C68   C     C_3   0.626880 0.829863 0.271018 -0.450271
C69   C     C_3   0.154222 0.336231 0.956892 -0.288562
C70   C     C_3   0.125915 0.193591 0.936490 -0.435636
C71   C     C_3   0.821847 0.303542 0.043700 -0.289139
C72   C     C_3   0.843912 0.158282 0.065073 -0.433870
C73   C     C_2   0.121748 0.288054 0.549206 0.222630
C74   C     C_2   0.847017 0.741500 0.452886 0.304047
C75   C     C_2   0.896826 0.243120 0.474088 0.230453
C76   C     C_2   0.111200 0.739630 0.454860 0.253046
C77   C     C_R   0.703982 0.524019 0.910194 -0.124772
C78   C     C_R   0.602464 0.428942 0.132283 0.003350
Cu1   Cu    Cu3+1 0.500000 0.640660 0.500000 0.885695
Cu2   Cu    Cu3+1 0.500000 0.359340 0.500000 0.974048
H1    H     H_    0.198194 0.587783 0.102727 0.157680
H2    H     H_    0.156773 0.509140 0.280615 0.177653
H3    H     H_    0.082335 0.498256 0.335248 0.166490
H4    H     H_    0.239127 0.307696 0.336172 0.144037
H5    H     H_    0.275326 0.428947 0.383136 0.137267
H6    H     H_    0.808286 0.572694 0.681811 0.157376
H7    H     H_    0.836102 0.434210 0.726068 0.182782
H8    H     H_    0.913671 0.432638 0.672150 0.153708
H9    H     H_    0.738107 0.270682 0.662565 0.136414
H10   H     H_    0.720715 0.410333 0.620178 0.134558
H11   H     H_    0.192473 0.103345 0.486046 0.153467
H12   H     H_    0.787051 0.558731 0.896203 0.156046
H13   H     H_    0.131799 0.224138 0.438399 0.143542
H14   H     H_    0.140877 0.046939 0.425585 0.181033
H15   H     H_    0.332409 0.260412 0.433311 0.209306
H16   H     H_    0.324522 0.126660 0.394444 0.100019
H17   H     H_    0.477594 0.838592 0.614658 0.173479
H18   H     H_    0.615404 0.763521 0.649220 0.147089
H19   H     H_    0.595011 0.944678 0.644673 0.122960
H20   H     H_    0.670160 0.740390 0.569502 0.208138
H21   H     H_    0.740252 0.881555 0.587982 0.110015
H22   H     H_    0.824538 0.043034 0.537356 0.198162
H23   H     H_    0.351543 0.642804 0.642379 0.130119
H24   H     H_    0.860322 0.206837 0.565655 0.130309
H25   H     H_    0.851992 0.061212 0.602916 0.127856
H26   H     H_    0.663380 0.251231 0.565536 0.214758
H27   H     H_    0.646667 0.123282 0.607097 0.108916
H28   H     H_    0.548645 0.832503 0.391162 0.182241
H29   H     H_    0.414329 0.805255 0.346972 0.147523
H30   H     H_    0.459210 0.975525 0.364589 0.131922
H31   H     H_    0.338252 0.758733 0.425941 0.211591
H32   H     H_    0.279659 0.910162 0.403738 0.143119
H33   H     H_    0.487389 0.147487 0.263214 0.176007
H34   H     H_    0.649295 0.630604 0.355209 0.109129
H35   H     H_    0.375884 0.148357 0.306672 0.144371
H36   H     H_    0.335484 0.078368 0.247160 0.146583
H37   H     H_    0.237707 0.310666 0.250516 0.151976
H38   H     H_    0.348513 0.302165 0.208716 0.165562
H39   H     H_    0.467911 0.196287 0.777334 0.191918
H40   H     H_    0.510197 0.128518 0.720844 0.157650
H41   H     H_    0.594391 0.073362 0.778197 0.137707
H42   H     H_    0.717876 0.234119 0.738382 0.135660
H43   H     H_    0.676719 0.307043 0.791780 0.173134
H44   H     H_    0.477440 0.845338 0.741361 0.168783
H45   H     H_    0.187145 0.381167 0.863582 0.163070
H46   H     H_    0.365601 0.860600 0.687379 0.144726
H47   H     H_    0.322797 0.912496 0.745316 0.152044
H48   H     H_    0.236863 0.681709 0.719558 0.158787
H49   H     H_    0.333804 0.680874 0.776401 0.178289
H50   H     H_    0.527399 0.852404 0.258384 0.164101
H51   H     H_    0.645439 0.849839 0.310568 0.155146
H52   H     H_    0.684014 0.900204 0.251657 0.158779
H53   H     H_    0.758344 0.658045 0.275478 0.167891
H54   H     H_    0.655237 0.672938 0.220202 0.175136
H55   H     H_    0.093858 0.199077 0.896910 0.152189
H56   H     H_    0.791520 0.353860 0.136600 0.163161
H57   H     H_    0.209654 0.125166 0.943090 0.165134
H58   H     H_    0.050784 0.148140 0.954941 0.135871
H59   H     H_    0.167279 0.321387 0.996878 0.155320
H60   H     H_    0.072455 0.405999 0.947041 0.134497
H61   H     H_    0.875357 0.160424 0.104695 0.154364
H62   H     H_    0.757589 0.098796 0.058633 0.165456
H63   H     H_    0.917412 0.105032 0.047162 0.136731
H64   H     H_    0.808424 0.290086 0.003802 0.155561
H65   H     H_    0.906315 0.364509 0.053178 0.135952
H66   H     H_    0.081719 0.188122 0.552613 0.075119
H67   H     H_    0.190256 0.547584 0.016288 0.110770
H68   H     H_    0.761986 0.726897 0.428894 0.115790
H69   H     H_    0.950009 0.149678 0.484225 0.111533
H70   H     H_    0.171911 0.805638 0.477626 0.120233
H71   H     H_    0.793419 0.518601 0.982940 0.110046
H72   H     H_    0.200148 0.623326 0.330330 0.184012
N1    N     N_R   0.497334 0.489637 0.201094 -0.402573
N2    N     N_R   0.486772 0.484689 0.798334 -0.397341
N3    N     N_R   0.500000 0.852070 0.500000 -0.241925
N4    N     N_R   0.500000 0.147930 0.500000 -0.228592
O1    O     O_R   0.319640 0.618740 0.500000 -0.536594
O2    O     O_2   0.688145 0.573079 0.809526 -0.527965
O3    O     O_2   0.282096 0.405903 0.786520 -0.520692
O4    O     O_2   0.698487 0.389933 0.213436 -0.513122
O5    O     O_2   0.210366 0.317171 0.578383 -0.474614
O6    O     O_2   0.876776 0.858176 0.463845 -0.514805
O7    O     O_2   0.807346 0.236262 0.443054 -0.443665
O8    O     O_2   0.086906 0.766311 0.411501 -0.541466
O9    O     O_R   0.680360 0.381260 0.500000 -0.468661
O10   O     O_R   0.680360 0.618740 0.500000 -0.540785
O11   O     O_R   0.319640 0.381260 0.500000 -0.476131
O12   O     O_R   0.500020 0.618770 0.430260 -0.532813
O13   O     O_R   0.499980 0.381230 0.569740 -0.492786
O14   O     O_R   0.499980 0.618770 0.569740 -0.522322
O15   O     O_R   0.500020 0.381230 0.430260 -0.495342
O16   O     O_2   0.297202 0.592319 0.189422 -0.522797

loop_
_geom_bond_atom_site_label_1
_geom_bond_atom_site_label_2
_ccdc_geom_bond_type
C2    C35   A    
C69   H59   S    
C40   C47   S    
C66   C68   S    
C77   H12   S    
C34   C56   A    
C23   C45   A    
C72   H63   S    
C57   H25   S    
C20   C73   S    
C35   N2    A    
C49   H10   S    
C53   C54   S    
C72   H62   S    
C57   H22   S    
C14   H45   S    
C58   H32   S    
C44   N1    S    
C22   C75   S    
Cu1   O14   S    
C74   H68   S    
C28   C29   A    
C24   C26   A    
C5    C11   A    
C17   O13   A    
C12   O10   A    
C38   H34   S    
C11   C14   A    
C36   C66   S    
C33   C78   A    
C15   C78   A    
C4    C41   A    
C1    O11   A    
C59   H30   S    
C75   O7    D    
C65   H44   S    
C68   H52   S    
C73   O5    D    
C31   N1    A    
C66   H54   S    
C3    C38   A    
C53   H21   S    
C64   H48   S    
C22   C25   A    
C45   C67   A    
C28   N3    A    
C19   H71   S    
C54   H17   S    
C52   H14   S    
Cu1   O12   S    
Cu2   O11   S    
C33   O4    S    
C50   H8    S    
C51   H16   S    
C2    C34   A    
C69   H60   S    
C40   C42   A    
Cu1   O10   S    
C27   C30   A    
C41   C43   A    
C42   C44   A    
Cu2   O13   S    
C41   C49   S    
C62   H43   S    
C63   H41   S    
C27   C51   S    
Cu2   N4    S    
C32   O2    S    
C53   H20   S    
C72   H61   S    
C46   N2    S    
C55   H26   S    
C58   H31   S    
C70   H58   S    
C52   H13   S    
C18   H67   S    
C42   C60   S    
C12   O9    A    
C74   O6    D    
C17   O14   A    
C24   C76   S    
C15   H56   S    
C29   C55   S    
C58   C59   S    
C21   C74   S    
C8    C18   A    
C56   C77   A    
C51   C52   S    
C55   H27   S    
C60   C61   S    
C68   H51   S    
C5    C9    A    
C62   C63   S    
C66   H53   S    
C63   H39   S    
C47   C48   S    
C4    C39   A    
C76   H70   S    
C19   C77   A    
C61   H36   S    
C60   H37   S    
C47   H4    S    
C68   H50   S    
C50   H7    S    
C29   N4    A    
C32   N2    A    
C4    C17   S    
C30   N3    A    
C71   H65   S    
C20   C22   A    
C3    C40   A    
C67   H1    S    
C7    C19   A    
C13   C15   A    
C48   H72   S    
C61   H33   S    
C1    C26   S    
C54   H19   S    
C36   C44   A    
C31   C45   A    
C36   C38   A    
C47   H5    S    
Cu2   O9    S    
C62   H42   S    
C37   C64   S    
C27   N4    A    
C7    C9    A    
C57   H24   S    
C21   C25   A    
C65   H47   S    
C16   O12   A    
C49   H9    S    
Cu1   O1    S    
C5    C8    A    
C28   C53   S    
C11   C69   S    
C39   H23   S    
C6    C7    A    
C10   C23   A    
C13   C71   S    
C73   H66   S    
C59   H28   S    
C48   H3    S    
C12   C25   S    
C64   C65   S    
C55   C57   S    
C18   C67   A    
C71   C72   S    
C37   C39   A    
C61   H35   S    
C65   H46   S    
C6    C13   A    
C63   H40   S    
C16   O15   A    
C70   H55   S    
C20   C26   A    
C75   H69   S    
C30   C58   S    
C1    O1    A    
C59   H29   S    
C48   H2    S    
C9    C34   A    
C33   N1    A    
C23   C78   A    
C69   C70   S    
C2    C14   A    
C43   C46   A    
C35   O3    S    
C76   O8    D    
C6    C10   A    
C50   H6    S    
Cu1   N3    S    
Cu1   Cu2   S    
C64   H49   S    
C70   H57   S    
C8    C10   A    
C49   C50   S    
C31   O16   S    
C21   C24   A    
C54   H18   S    
C52   H11   S    
Cu2   O15   S    
C37   C46   A    
C60   H38   S    
C32   C56   A    
C3    C16   S    
C43   C62   S    
C51   H15   S    
C71   H64   S    
