data_mof_unit_32117.cif
_audit_creation_date              2012-12-11T17:36:15-0500
_audit_creation_method            fapswitch 2.2
_symmetry_space_group_name_H-M    P1
_symmetry_Int_Tables_number       1
_space_group_crystal_system       triclinic
_cell_length_a                    25.820932
_cell_length_b                    6.893458
_cell_length_c                    21.645329
_cell_angle_alpha                 89.999848
_cell_angle_beta                  96.472639
_cell_angle_gamma                 89.999734
_cell_volume                      3828.21305015

loop_
_atom_site_label
_atom_site_type_symbol
_atom_type_description
_atom_site_fract_x
_atom_site_fract_y
_atom_site_fract_z
_atom_type_partial_charge
O1    O     O_R   0.208650 0.594520 0.175450 -0.529483
O2    O     O_R   0.791350 0.405480 0.824550 -0.536212
O3    O     O_R   0.291350 0.094520 0.324550 -0.529487
O4    O     O_R   0.708650 0.905480 0.675450 -0.536213
O5    O     O_R   0.192980 0.260780 0.300160 -0.510257
O6    O     O_R   0.807020 0.739220 0.699840 -0.521886
O7    O     O_R   0.307020 0.760780 0.199840 -0.510255
O8    O     O_R   0.692980 0.239220 0.800160 -0.521886
C1    C     C_R   0.179148 0.432796 0.318949 0.720501
C2    C     C_R   0.820907 0.567334 0.681233 0.748140
C3    C     C_R   0.320852 0.932796 0.181050 0.720504
C4    C     C_R   0.679093 0.067334 0.818767 0.748138
O9    O     O_R   0.202550 0.264660 0.174420 -0.543943
O10   O     O_R   0.797450 0.735340 0.825580 -0.537472
O11   O     O_R   0.297450 0.764660 0.325580 -0.543941
O12   O     O_R   0.702550 0.235340 0.674420 -0.537470
O13   O     O_R   0.300990 0.096480 0.197920 -0.551323
O14   O     O_R   0.699010 0.903520 0.802080 -0.523376
O15   O     O_R   0.199010 0.596480 0.302080 -0.551322
O16   O     O_R   0.800990 0.403520 0.697920 -0.523376
C5    C     C_R   0.190825 0.434447 0.150860 0.761053
C6    C     C_R   0.808888 0.565136 0.849373 0.768280
C7    C     C_R   0.309175 0.934446 0.349140 0.761055
C8    C     C_R   0.691112 0.065136 0.650627 0.768280
O17   O     O_3   0.282290 0.427760 0.257860 -0.364683
O18   O     O_3   0.717710 0.572240 0.742140 -0.365198
O19   O     O_3   0.217710 0.927760 0.242140 -0.364684
O20   O     O_3   0.782290 0.072240 0.757860 -0.365198
V1    V     V_3+5 0.244010 0.152080 0.248540 1.453838
V2    V     V_3+5 0.755990 0.847920 0.751460 1.497427
V3    V     V_3+5 0.255990 0.652080 0.251460 1.453843
V4    V     V_3+5 0.744010 0.347920 0.748540 1.497429
C9    C     C_R   0.658743 0.042401 0.589816 -0.106417
C10   C     C_R   0.341636 0.948666 0.410121 -0.078500
C11   C     C_R   0.841257 0.542397 0.910183 -0.106419
C12   C     C_R   0.158365 0.448672 0.089878 -0.078505
C13   C     C_R   0.649852 0.883565 0.488717 0.161122
C14   C     C_R   0.349676 0.027681 0.520491 0.164788
C15   C     C_R   0.850152 0.383516 0.011276 0.161125
C16   C     C_R   0.150327 0.527746 0.979512 0.164787
C17   C     C_R   0.681325 0.954314 0.540936 0.215760
C18   C     C_R   0.318637 0.005403 0.462942 0.138344
C19   C     C_R   0.818678 0.454288 0.959062 0.215758
C20   C     C_R   0.181365 0.505444 0.037060 0.138351
C21   C     C_R   0.604213 0.060866 0.585501 -0.299607
C22   C     C_R   0.395932 0.923404 0.414450 -0.287918
C23   C     C_R   0.895787 0.560879 0.914499 -0.299606
C24   C     C_R   0.104070 0.423389 0.085545 -0.287920
C25   C     C_R   0.570880 0.970620 0.536740 0.067060
C26   C     C_R   0.428089 0.935476 0.472264 0.038073
C27   C     C_R   0.929123 0.470619 0.963255 0.067061
C28   C     C_R   0.071915 0.435484 0.027731 0.038073
C29   C     C_R   0.594710 0.888368 0.486841 0.003489
C30   C     C_R   0.404025 0.993160 0.525035 0.051417
C31   C     C_R   0.905295 0.388329 0.013151 0.003489
C32   C     C_R   0.095978 0.493212 0.974964 0.051414
C33   C     C_R   0.514825 0.960874 0.535338 0.004116
C34   C     C_R   0.483655 0.902272 0.478895 0.000924
C35   C     C_R   0.985178 0.460893 0.964657 0.004117
C36   C     C_R   0.016349 0.402262 0.021096 0.000926
C37   C     C_R   0.509415 0.802936 0.433304 0.203799
C38   C     C_R   0.488254 0.993269 0.588806 0.172507
C39   C     C_R   0.990591 0.302880 0.066680 0.203796
C40   C     C_R   0.011750 0.493341 0.911191 0.172508
C41   C     C_R   0.563487 0.802432 0.437259 -0.172598
C42   C     C_R   0.434299 0.012401 0.582452 -0.129192
C43   C     C_R   0.936519 0.302364 0.062726 -0.172602
C44   C     C_R   0.065705 0.512486 0.917547 -0.129190
C45   C     C_R   0.443574 0.822853 0.102398 -0.187654
C46   C     C_R   0.556256 0.171746 0.897709 -0.185263
C47   C     C_R   0.056426 0.322856 0.397602 -0.187655
C48   C     C_R   0.943744 0.671747 0.602292 -0.185262
C49   C     C_R   0.404217 0.808693 0.142447 0.169380
C50   C     C_R   0.595533 0.189174 0.857675 0.135109
C51   C     C_R   0.095783 0.308694 0.357553 0.169382
C52   C     C_R   0.904468 0.689173 0.642327 0.135114
C53   C     C_R   0.362700 0.944708 0.138200 -0.097909
C54   C     C_R   0.637425 0.055174 0.861641 -0.046330
C55   C     C_R   0.137299 0.444709 0.361799 -0.097908
C56   C     C_R   0.862575 0.555174 0.638360 -0.046332
C57   C     C_R   0.361894 0.092730 0.092066 0.123727
C58   C     C_R   0.638930 0.906352 0.907080 0.128634
C59   C     C_R   0.138105 0.592733 0.407932 0.123724
C60   C     C_R   0.861070 0.406358 0.592919 0.128635
C61   C     C_R   0.401463 0.103334 0.052815 -0.110282
C62   C     C_R   0.599239 0.891122 0.946324 -0.196331
C63   C     C_R   0.098536 0.603339 0.447183 -0.110282
C64   C     C_R   0.900761 0.391130 0.553675 -0.196332
C65   C     C_R   0.442460 0.970305 0.057796 0.035621
C66   C     C_R   0.557830 0.022572 0.941827 0.071470
C67   C     C_R   0.057540 0.470309 0.442203 0.035622
C68   C     C_R   0.942170 0.522577 0.558173 0.071469
C69   C     C_1   0.483302 0.987117 0.017034 -0.033478
C70   C     C_1   0.517155 0.003611 0.982730 -0.029093
C71   C     C_1   0.016698 0.487123 0.482965 -0.033479
C72   C     C_1   0.982845 0.503616 0.517270 -0.029093
H1    H     H_    0.580849 0.725814 0.401126 0.145020
H2    H     H_    0.415933 0.039375 0.624244 0.185417
H3    H     H_    0.919158 0.225714 0.098854 0.145020
H4    H     H_    0.084071 0.539499 0.875758 0.185419
H5    H     H_    0.412343 0.905682 0.371336 0.130037
H6    H     H_    0.588964 0.142389 0.621657 0.137331
H7    H     H_    0.087657 0.405633 0.128658 0.130041
H8    H     H_    0.911033 0.642425 0.878346 0.137334
N1    N     N_3   0.263779 0.045819 0.457217 -0.677701
H9    H     H_    0.258490 0.191784 0.467958 0.227138
H10   H     H_    0.246607 0.960611 0.489223 0.247777
N2    N     N_3   0.736858 0.930790 0.545611 -0.668205
H11   H     H_    0.750334 0.995708 0.506811 0.243979
H12   H     H_    0.745165 0.782447 0.544381 0.242556
N3    N     N_3   0.236222 0.545870 0.042789 -0.677698
H13   H     H_    0.253397 0.460680 0.010781 0.247777
H14   H     H_    0.241509 0.691841 0.032056 0.227134
N4    N     N_3   0.763145 0.430761 0.954387 -0.668206
H15   H     H_    0.749669 0.495665 0.993189 0.243977
H16   H     H_    0.754839 0.282418 0.955613 0.242559
N5    N     N_3   0.675130 0.799605 0.439290 -0.691066
H17   H     H_    0.662435 0.871451 0.397798 0.231151
H18   H     H_    0.665233 0.652755 0.435209 0.232491
N6    N     N_3   0.326331 0.087793 0.574575 -0.692057
H19   H     H_    0.298296 0.985629 0.583758 0.235273
H20   H     H_    0.308172 0.221945 0.565623 0.236248
N7    N     N_3   0.824877 0.299524 0.060699 -0.691064
H21   H     H_    0.837573 0.371345 0.102195 0.231151
H22   H     H_    0.834774 0.152672 0.064771 0.232491
N8    N     N_3   0.173672 0.587899 0.925432 -0.692056
H23   H     H_    0.201710 0.485751 0.916245 0.235275
H24   H     H_    0.191828 0.722053 0.934391 0.236247
N9    N     N_3   0.483564 0.668657 0.389376 -0.680997
H25   H     H_    0.450097 0.609907 0.405035 0.249209
H26   H     H_    0.476135 0.734386 0.345786 0.222920
N10   N     N_3   0.512433 0.970739 0.651452 -0.682171
H27   H     H_    0.544169 0.875890 0.654070 0.243222
H28   H     H_    0.522049 0.106452 0.670962 0.226747
N11   N     N_3   0.016445 0.168569 0.110596 -0.680991
H29   H     H_    0.049915 0.109854 0.094933 0.249209
H30   H     H_    0.023871 0.234258 0.154193 0.222920
N12   N     N_3   0.987573 0.470859 0.848542 -0.682176
H31   H     H_    0.955841 0.375992 0.845915 0.243220
H32   H     H_    0.977953 0.606586 0.829045 0.226749
H33   H     H_    0.475256 0.718846 0.106541 0.125330
H34   H     H_    0.524273 0.274459 0.893928 0.127004
H35   H     H_    0.024744 0.218848 0.393460 0.125330
H36   H     H_    0.975727 0.774459 0.606074 0.127004
N13   N     N_3   0.407434 0.658478 0.188458 -0.659586
H37   H     H_    0.442813 0.673816 0.216691 0.217941
H38   H     H_    0.408029 0.524929 0.165635 0.234079
N14   N     N_3   0.591855 0.340251 0.811952 -0.662313
H39   H     H_    0.556575 0.323601 0.783614 0.225020
H40   H     H_    0.590704 0.473226 0.835002 0.234312
N15   N     N_3   0.092567 0.158476 0.311544 -0.659587
H41   H     H_    0.057187 0.173807 0.283311 0.217936
H42   H     H_    0.091973 0.024930 0.334369 0.234079
N16   N     N_3   0.908146 0.840247 0.688050 -0.662314
H43   H     H_    0.943425 0.823597 0.716388 0.225020
H44   H     H_    0.909295 0.973224 0.665001 0.234312
N17   N     N_3   0.320598 0.231753 0.082307 -0.666884
H45   H     H_    0.284854 0.158866 0.077672 0.230988
H46   H     H_    0.322671 0.325820 0.120343 0.266191
N18   N     N_3   0.681701 0.773154 0.914998 -0.643107
H47   H     H_    0.666765 0.632408 0.909642 0.245263
H48   H     H_    0.699646 0.787394 0.960528 0.225750
N19   N     N_3   0.179400 0.731757 0.417690 -0.666882
H49   H     H_    0.215144 0.658869 0.422326 0.230992
H50   H     H_    0.177327 0.825823 0.379654 0.266192
N20   N     N_3   0.818299 0.273162 0.585000 -0.643107
H51   H     H_    0.833235 0.132414 0.590350 0.245263
H52   H     H_    0.800353 0.287419 0.539471 0.225747
H53   H     H_    0.400097 0.217087 0.018071 0.139759
H54   H     H_    0.601047 0.776278 0.980720 0.125753
H55   H     H_    0.099902 0.717094 0.481927 0.139759
H56   H     H_    0.898953 0.276290 0.519277 0.125753

loop_
_geom_bond_atom_site_label_1
_geom_bond_atom_site_label_2
_ccdc_geom_bond_type
O17   V3    S    
C59   C63   A    
O1    C5    A    
C69   C70   T    
C64   H56   S    
C17   N2    S    
C63   C67   A    
O19   V1    S    
C9    C21   A    
O3    C7    A    
C71   C72   T    
C10   C18   A    
C68   C72   S    
C56   C60   A    
C11   C23   A    
C48   H36   S    
N4    H15   S    
N12   H31   S    
C25   C33   A    
N11   H29   S    
C5    C12   S    
C40   N12   S    
O7    C3    A    
C6    C11   S    
N1    H10   S    
C35   C40   A    
N8    H23   S    
C36   C39   A    
C63   H55   S    
C40   C44   A    
C50   N14   S    
N19   H50   S    
N14   H40   S    
C14   C18   A    
N5    H18   S    
C19   N4    S    
C48   C68   A    
C25   C29   A    
N7    H22   S    
C45   H33   S    
O1    V3    S    
O13   V1    S    
N2    H11   S    
O2    V4    S    
C1    C55   S    
O3    V1    S    
C46   C50   A    
C3    C53   S    
C1    O15   A    
N17   H45   S    
C15   C31   A    
C64   C68   A    
C2    O16   A    
N10   H27   S    
C16   C32   A    
C4    C54   S    
O2    C6    A    
N15   H41   S    
C45   C49   A    
C10   C22   A    
C21   C25   A    
C11   C19   A    
C16   C20   A    
N16   H44   S    
C37   N9    S    
C13   C29   A    
C34   C37   A    
O11   C7    A    
O15   V3    S    
C35   C36   A    
O12   C8    A    
N20   H52   S    
C46   C66   A    
O10   V2    S    
C45   C65   A    
O20   V4    S    
N13   H38   S    
N6    H20   S    
N13   H37   S    
O5    V1    S    
O17   V1    S    
C22   H5    S    
C39   C43   A    
C46   H34   S    
C66   C70   S    
C57   N17   S    
C38   C42   A    
C15   N7    S    
O19   V3    S    
O8    V4    S    
C38   N10   S    
N7    H21   S    
O7    V3    S    
N14   H39   S    
C62   C66   A    
C51   N15   S    
C2    C56   S    
O18   V4    S    
C23   C27   A    
C33   C38   A    
C58   C62   A    
C24   H7    S    
C65   C69   S    
C61   H53   S    
C49   N13   S    
N4    H16   S    
C26   C34   A    
N17   H46   S    
C44   H4    S    
O5    C1    A    
C58   N18   S    
C54   C58   A    
C31   C43   A    
C14   C30   A    
C53   C57   A    
O8    C4    A    
C7    C10   S    
C16   N8    S    
O9    C5    A    
C48   C52   A    
N3    H14   S    
C26   C30   A    
C47   C67   A    
N16   H43   S    
N12   H32   S    
O14   V2    S    
N10   H28   S    
O6    V2    S    
O18   V2    S    
C61   C65   A    
N20   H51   S    
C12   C20   A    
C27   C35   A    
C29   C41   A    
N6    H19   S    
C47   H35   S    
N9    H25   S    
O16   V4    S    
O9    V1    S    
N11   H30   S    
C59   N19   S    
C3    O13   A    
N8    H24   S    
C23   H8    S    
N3    H13   S    
C62   H54   S    
C52   C56   A    
O6    C2    A    
C15   C19   A    
O11   V3    S    
C30   C42   A    
C43   H3    S    
O12   V4    S    
N1    H9    S    
C22   C26   A    
C8    C9    S    
C9    C17   A    
N18   H47   S    
C42   H2    S    
O20   V2    S    
C14   N6    S    
C32   C44   A    
N5    H17   S    
C47   C51   A    
O10   C6    A    
C33   C34   A    
C60   C64   A    
O4    C8    A    
C52   N16   S    
N2    H12   S    
C12   C24   A    
C27   C31   A    
N15   H42   S    
C13   C17   A    
C18   N1    S    
C57   C61   A    
N19   H49   S    
C60   N20   S    
C21   H6    S    
C67   C71   S    
C55   C59   A    
C20   N3    S    
C37   C41   A    
C24   C28   A    
C13   N5    S    
C41   H1    S    
C28   C36   A    
C50   C54   A    
C4    O14   A    
C49   C53   A    
C51   C55   A    
O4    V2    S    
C28   C32   A    
C39   N11   S    
N18   H48   S    
N9    H26   S    
