data_mof_unit_41718.cif
_audit_creation_date              2013-03-05T16:33:33-0500
_audit_creation_method            fapswitch 2.2
_symmetry_space_group_name_H-M    P1
_symmetry_Int_Tables_number       1
_space_group_crystal_system       triclinic
_cell_length_a                    10.859671
_cell_length_b                    10.865899
_cell_length_c                    9.607164
_cell_angle_alpha                 90.25642
_cell_angle_beta                  89.34657
_cell_angle_gamma                 92.691113
_cell_volume                      1132.3135308

loop_
_atom_site_label
_atom_site_type_symbol
_atom_site_description
_atom_site_fract_x
_atom_site_fract_y
_atom_site_fract_z
_atom_type_partial_charge
O1    O     O_R   0.500000 0.319640 0.618810 -0.611185
O2    O     O_R   0.500010 0.319680 0.381230 -0.603587
C1    C     C_R   0.497930 0.262484 0.499847 0.842263
O3    O     O_R   0.319650 0.499970 0.618810 -0.587366
O4    O     O_R   0.319660 0.500010 0.381230 -0.561220
C2    C     C_R   0.262467 0.500258 0.500526 0.798290
Cu1   Cu    Cu3+1 0.499990 0.499980 0.640670 0.977282
Cu2   Cu    Cu3+1 0.500010 0.500020 0.359330 1.015846
O5    O     O_R   0.499990 0.680320 0.618770 -0.592909
O6    O     O_R   0.500000 0.680360 0.381190 -0.520444
O7    O     O_R   0.680340 0.499990 0.618770 -0.563178
O8    O     O_R   0.680350 0.500030 0.381190 -0.589244
C3    C     C_R   0.489917 0.736750 0.500331 0.849288
C4    C     C_R   0.737385 0.500116 0.499307 0.831279
C5    C     C_R   0.062009 0.511862 0.624830 0.048476
C6    C     C_R   0.129403 0.507793 0.500320 -0.054107
C7    C     C_R   0.066426 0.515011 0.373626 -0.103446
H1    H     H_    0.115474 0.516512 0.274830 0.213296
C8    C     C_R   0.938093 0.513047 0.372654 -0.172313
H2    H     H_    0.892139 0.510530 0.273485 0.201076
C9    C     C_R   0.870886 0.506578 0.498330 -0.058829
C10   C     C_R   0.934785 0.510488 0.623595 0.005221
C11   C     C_3   0.923665 0.426364 0.746795 0.144959
C12   C     C_3   0.063488 0.428841 0.748466 -0.405574
H3    H     H_    0.882453 0.469395 0.840347 0.120665
H4    H     H_    0.101747 0.477734 0.841350 0.229643
H5    H     H_    0.103875 0.338894 0.724399 0.242476
C13   C     C_R   0.510326 0.064483 0.622548 0.026970
C14   C     C_R   0.493832 0.128783 0.499367 -0.163788
C15   C     C_R   0.460577 0.063534 0.378348 -0.217422
H6    H     H_    0.438316 0.113532 0.285372 0.207051
C16   C     C_R   0.442631 0.935003 0.380187 0.376379
C17   C     C_R   0.474680 0.869893 0.501342 -0.200233
C18   C     C_R   0.501810 0.936027 0.623605 -0.141126
C19   C     C_3   0.423270 0.938286 0.754561 0.764620
C20   C     C_3   0.436437 0.077664 0.753769 0.212968
H7    H     H_    0.348109 0.124187 0.740467 0.115586
C21   C     C_R   0.602872 0.539333 0.071942 0.059205
N1    N     N_R   0.500790 0.500930 0.147930 -0.286550
C22   C     C_R   0.405414 0.444545 0.074724 0.488325
C23   C     C_R   0.405495 0.444490 0.927611 0.450646
N2    N     N_R   0.500790 0.500890 0.852020 -0.260427
C24   C     C_R   0.603739 0.536425 0.924850 0.050697
C25   C     C_3   0.674780 0.655742 0.910940 -0.405749
C26   C     C_3   0.666999 0.665343 0.068969 0.714389
H8    H     H_    0.769538 0.643901 0.870212 0.185950
H9    H     H_    0.623855 0.723317 0.852481 0.208462
O9    O     O_3   0.475541 0.883341 0.870574 -0.667597
H10   H     H_    0.563001 0.913730 0.876733 0.360730
O10   O     O_3   0.508625 0.125436 0.863507 -0.654103
H11   H     H_    0.514464 0.216024 0.851592 0.354182
O11   O     O_3   0.308427 0.382216 0.140252 -0.676781
H12   H     H_    0.342412 0.337723 0.219036 0.352694
O12   O     O_3   0.309871 0.379767 0.864913 -0.713529
H13   H     H_    0.341867 0.343254 0.779013 0.343714
O13   O     O_3   0.783592 0.668793 0.130069 -0.710272
H14   H     H_    0.770811 0.688796 0.229890 0.351413
O14   O     O_3   0.594534 0.761489 0.116071 -0.668038
H15   H     H_    0.509715 0.744906 0.081187 0.366042
N3    N     N_R   0.867461 0.304638 0.713610 0.161433
O15   O     O_R   0.777384 0.259250 0.790766 -0.315664
O16   O     O_R   0.905139 0.241577 0.607014 -0.333316
N4    N     N_R   0.378367 0.875183 0.266290 0.142770
O17   O     O_R   0.299331 0.783827 0.290661 -0.349453
O18   O     O_R   0.375934 0.928990 0.145656 -0.274111
O19   O     O_3   0.300925 0.895109 0.733753 -0.700357
H16   H     H_    0.301895 0.803877 0.729902 0.347633

loop_
_geom_bond_atom_site_label_1
_geom_bond_atom_site_label_2
_geom_bond_distance
_ccdc_geom_bond_type
O1    C1    1.298205 A    
O4    Cu2   1.967418 S    
C15   C16   1.401208 A    
C11   C12   1.517674 S    
N4    O18   1.301505 A    
C3    C17   1.463829 S    
C14   C15   1.401070 A    
C20   O10   1.404006 S    
Cu2   N1    2.030941 S    
C16   N4    1.440597 S    
C23   N2    1.378847 A    
O12   H13   0.981154 S    
C19   C20   1.514552 S    
C25   H9    1.099690 S    
Cu2   O8    1.972036 S    
C24   C25   1.482964 S    
C12   H5    1.112179 S    
C16   C17   1.419917 A    
C8    H2    1.080194 S    
C7    H1    1.082893 S    
C13   C18   1.394589 A    
C21   C24   1.413283 A    
C5    C12   1.495413 S    
C9    C10   1.395499 A    
O13   H14   0.992028 S    
Cu1   O7    1.967418 S    
C12   H4    1.111148 S    
C1    C14   1.451370 S    
C15   H6    1.083084 S    
O3    Cu1   1.972036 S    
O1    Cu1   1.969848 S    
O4    C2    1.297387 A    
C4    C9    1.448098 S    
Cu2   O6    1.969848 S    
C20   H7    1.113947 S    
C7    C8    1.392958 A    
O8    C4    1.298965 A    
O19   H16   0.992393 S    
O2    C1    1.299928 A    
C11   H3    1.110590 S    
C11   N3    1.465770 S    
C23   O12   1.370283 S    
O7    C4    1.297960 A    
C26   O14   1.407248 S    
O3    C2    1.301261 A    
C6    C7    1.407215 A    
N2    C24   1.365082 A    
C19   O9    1.404677 S    
C2    C6    1.451206 S    
N4    O17   1.301684 A    
C13   C14   1.394527 A    
Cu1   Cu2   2.702879 S    
C17   C18   1.401192 A    
O11   H12   0.984496 S    
C13   C20   1.496573 S    
N3    O16   1.302376 A    
C18   C19   1.512669 S    
Cu1   N2    2.030570 S    
N1    C22   1.376933 A    
Cu1   O5    1.971756 S    
O5    C3    1.303088 A    
C10   C11   1.499037 S    
O9    H10   0.993121 S    
C21   C26   1.506942 S    
C22   C23   1.413324 A    
C19   O19   1.404278 S    
O10   H11   0.990453 S    
O14   H15   0.992033 S    
C22   O11   1.373336 S    
C5    C10   1.381178 A    
O2    Cu2   1.971754 S    
C25   C26   1.522983 S    
C5    C6    1.396806 A    
C26   O13   1.400507 S    
C25   H8    1.109678 S    
N3    O15   1.300385 A    
C8    C9    1.404018 A    
O6    C3    1.301813 A    
C21   N1    1.369978 A    
