data_mof_unit_56450.cif
_audit_creation_date              2013-03-05T16:21:43-0500
_audit_creation_method            fapswitch 2.2
_symmetry_space_group_name_H-M    P1
_symmetry_Int_Tables_number       1
_space_group_crystal_system       triclinic
_cell_length_a                    13.021751
_cell_length_b                    15.074305
_cell_length_c                    13.840694
_cell_angle_alpha                 89.642137
_cell_angle_beta                  97.74461
_cell_angle_gamma                 89.041674
_cell_volume                      2691.58597879

loop_
_atom_site_label
_atom_site_type_symbol
_atom_site_description
_atom_site_fract_x
_atom_site_fract_y
_atom_site_fract_z
_atom_type_partial_charge
O1    O     O_R   0.500010 0.371450 0.581430 -0.541720
O2    O     O_R   0.499990 0.628550 0.418570 -0.555661
O3    O     O_R   0.500010 0.371460 0.418560 -0.573124
O4    O     O_R   0.499990 0.628540 0.581440 -0.565981
C1    C     C_R   0.498987 0.329726 0.500331 0.916265
C2    C     C_R   0.499917 0.670529 0.499736 0.875062
O5    O     O_R   0.349000 0.499980 0.568210 -0.549572
O6    O     O_R   0.651000 0.500020 0.431790 -0.611634
O7    O     O_R   0.349000 0.499990 0.405340 -0.505400
O8    O     O_R   0.651000 0.500010 0.594660 -0.541088
C3    C     C_R   0.299733 0.505170 0.479450 0.927400
C4    C     C_R   0.699928 0.495375 0.519486 0.856444
Cu1   Cu    Cu3+1 0.500000 0.499990 0.596430 1.103299
Cu2   Cu    Cu3+1 0.500000 0.500010 0.403570 1.091681
C5    C     C_R   0.813744 0.489299 0.531993 -0.221285
C6    C     C_R   0.185283 0.511093 0.463597 -0.217226
C7    C     C_R   0.013724 0.548496 0.376470 0.279921
C8    C     C_R   0.983625 0.448471 0.618561 0.272955
C9    C     C_R   0.122153 0.542255 0.376075 0.319512
C10   C     C_R   0.874573 0.445753 0.611711 0.334051
C11   C     C_R   0.137405 0.483662 0.543395 -0.119799
C12   C     C_R   0.861665 0.525410 0.456905 -0.194886
C13   C     C_R   0.030205 0.483855 0.540387 -0.061326
C14   C     C_R   0.968571 0.519618 0.457801 -0.038126
H1    H     H_    0.813881 0.557120 0.395899 0.219453
H2    H     H_    0.185071 0.459824 0.608676 0.244072
C15   C     C_R   0.465103 0.089997 0.567035 -0.202602
C16   C     C_R   0.465553 0.913486 0.430999 -0.199772
H3    H     H_    0.421724 0.049704 0.611871 0.220025
H4    H     H_    0.421831 0.956114 0.376364 0.219469
C17   C     C_R   0.449419 0.181704 0.563097 0.321352
C18   C     C_R   0.450981 0.822272 0.428158 0.325019
C19   C     C_R   0.505248 0.232860 0.502591 -0.178680
C20   C     C_R   0.507430 0.767607 0.500684 -0.192647
C21   C     C_R   0.572408 0.190963 0.445288 -0.227441
C22   C     C_R   0.573901 0.806406 0.576566 -0.248816
H5    H     H_    0.614564 0.230454 0.398648 0.210201
H6    H     H_    0.616207 0.764652 0.632885 0.211644
C23   C     C_R   0.586190 0.098957 0.447941 0.472869
C24   C     C_R   0.586082 0.898320 0.580638 0.480353
C25   C     C_R   0.532279 0.048524 0.509992 -0.025757
C26   C     C_R   0.531802 0.951702 0.506344 -0.028274
C27   C     C_R   0.563543 0.565195 0.117632 0.354045
C28   C     C_R   0.560304 0.431598 0.898631 0.359872
C29   C     C_R   0.555994 0.563083 0.218686 -0.006143
C30   C     C_R   0.552716 0.433662 0.795686 0.038959
H7    H     H_    0.596336 0.611708 0.266014 0.182518
H8    H     H_    0.589320 0.381589 0.758800 0.222630
N1    N     N_R   0.500000 0.500020 0.258690 -0.247953
N2    N     N_R   0.500000 0.499980 0.741310 -0.266055
C31   C     C_R   0.450674 0.436283 0.199629 0.524527
C32   C     C_R   0.451350 0.565713 0.787675 0.501599
C33   C     C_R   0.455279 0.436800 0.098739 -0.259273
C34   C     C_R   0.457163 0.566229 0.889905 -0.263052
H9    H     H_    0.413866 0.387034 0.053510 0.227352
H10   H     H_    0.416886 0.618087 0.924507 0.223274
C35   C     C_R   0.511799 0.500724 0.055968 0.003615
C36   C     C_R   0.511981 0.499744 0.947180 0.001778
N3    N     N_R   0.396506 0.365957 0.239072 0.143441
O9    O     O_R   0.305212 0.381141 0.264015 -0.265872
O10   O     O_R   0.425741 0.284307 0.226845 -0.300848
N4    N     N_R   0.392874 0.634920 0.733658 0.147164
O11   O     O_R   0.423056 0.716400 0.745871 -0.298727
O12   O     O_R   0.297413 0.620678 0.696928 -0.316794
S1    S     S_3+6 0.817073 0.380465 0.697000 0.083202
O13   O     O_2   0.784844 0.440778 0.773953 -0.231823
O14   O     O_2   0.724096 0.333977 0.646087 -0.337901
O15   O     O_3   0.900148 0.302554 0.750570 -0.409102
H11   H     H_    0.860058 0.268988 0.794129 0.409759
S2    S     S_3+6 0.165114 0.572208 0.261749 0.149234
O16   O     O_2   0.279288 0.579760 0.260253 -0.195261
O17   O     O_2   0.124801 0.504117 0.187926 -0.196769
O18   O     O_3   0.111343 0.671201 0.225405 -0.403650
H12   H     H_    0.122633 0.677612 0.156365 0.402719
N5    N     N_R   0.947972 0.582005 0.292077 0.156954
O19   O     O_R   0.914058 0.663741 0.290612 -0.253588
O20   O     O_R   0.907294 0.527249 0.225976 -0.243222
N6    N     N_R   0.046910 0.414508 0.704152 0.158415
O21   O     O_R   0.043144 0.451988 0.788046 -0.231312
O22   O     O_R   0.104123 0.343462 0.699326 -0.220378
S3    S     S_3+6 0.353583 0.228163 0.628426 0.098557
O23   O     O_2   0.291037 0.297420 0.566643 -0.252608
O24   O     O_2   0.281887 0.157690 0.655286 -0.188455
O25   O     O_3   0.410714 0.275505 0.730971 -0.481626
H13   H     H_    0.457604 0.228873 0.763892 0.369665
S4    S     S_3+6 0.352907 0.781157 0.340210 0.102486
O26   O     O_2   0.287373 0.719433 0.390375 -0.227910
O27   O     O_2   0.285100 0.855267 0.292772 -0.202976
O28   O     O_3   0.406999 0.726362 0.253913 -0.465737
H14   H     H_    0.455893 0.768717 0.230813 0.361286
S5    S     S_3+6 0.668505 0.048784 0.371330 0.087600
O29   O     O_2   0.602835 0.012580 0.283230 -0.241173
O30   O     O_2   0.741287 0.115861 0.339099 -0.216130
O31   O     O_3   0.737813 0.965267 0.430927 -0.474161
H15   H     H_    0.771744 0.934336 0.380465 0.400981
S6    S     S_3+6 0.666839 0.944736 0.679961 0.086802
O32   O     O_2   0.599736 0.981235 0.751123 -0.239889
O33   O     O_2   0.739474 0.875085 0.730132 -0.219353
O34   O     O_3   0.736266 0.027377 0.640535 -0.466051
H16   H     H_    0.766851 0.058090 0.700377 0.399488
S7    S     S_3+6 0.639872 0.647263 0.071627 0.081410
O35   O     O_2   0.569609 0.718806 0.022128 -0.248022
O36   O     O_2   0.711799 0.687351 0.153172 -0.207460
O37   O     O_3   0.709968 0.601803 0.990478 -0.449577
H17   H     H_    0.741472 0.652664 0.960480 0.403755
S8    S     S_3+6 0.631368 0.344124 0.963896 0.081066
O38   O     O_2   0.556860 0.277834 0.994572 -0.246705
O39   O     O_2   0.701299 0.298664 0.900982 -0.233703
O40   O     O_3   0.703326 0.384437 0.063507 -0.456507
H18   H     H_    0.730391 0.331437 0.101982 0.401380

loop_
_geom_bond_atom_site_label_1
_geom_bond_atom_site_label_2
_geom_bond_distance
_ccdc_geom_bond_type
C11   H2    1.080790 S    
C6    C11   1.402859 A    
C15   H3    1.083674 S    
C25   C26   1.460802 S    
N5    O19   1.301010 A    
S3    O23   1.502407 D    
C23   C25   1.407335 A    
O5    C3    1.308281 A    
S7    O35   1.502790 D    
O1    C1    1.288706 A    
C21   H5    1.083540 S    
N6    O22   1.301578 A    
Cu2   N1    2.005239 S    
S8    O38   1.502761 D    
S6    O34   1.681998 S    
O18   H12   0.990579 S    
C16   C26   1.394718 A    
O4    Cu1   1.947584 S    
C22   C24   1.397848 A    
N4    O12   1.299898 A    
C19   C21   1.402660 A    
C5    C12   1.394598 A    
C28   C36   1.415515 A    
O15   H11   0.990884 S    
S1    O14   1.502696 D    
C12   H1    1.082592 S    
C1    C19   1.461000 S    
N2    C32   1.375318 A    
C13   C14   1.404237 A    
C17   C19   1.413952 A    
S2    O16   1.495903 D    
C8    C10   1.411707 A    
C8    N6    1.435203 S    
C29   H7    1.080953 S    
N3    O9    1.298976 A    
S7    O36   1.502934 D    
Cu1   Cu2   2.669314 S    
O2    C2    1.292903 A    
C24   S6    1.769809 S    
C23   S5    1.770461 S    
O37   H17   0.990431 S    
S3    O24   1.503390 D    
C32   C34   1.406805 A    
C30   H8    1.077984 S    
C33   H9    1.083464 S    
C5    C10   1.419054 A    
C34   H10   1.083609 S    
N3    O10   1.301057 A    
C7    C14   1.408264 A    
S4    O27   1.503458 D    
C15   C17   1.393695 A    
C8    C13   1.415481 A    
C10   S1    1.780753 S    
C16   C18   1.391240 A    
O25   H13   0.990574 S    
O4    C2    1.292352 A    
S5    O29   1.502945 D    
C33   C35   1.398105 A    
S4    O26   1.501409 D    
C28   C30   1.415025 A    
N1    C31   1.375807 A    
S4    O28   1.680665 S    
C2    C20   1.468309 S    
S6    O33   1.503267 D    
C31   C33   1.405699 A    
C18   C20   1.413335 A    
C21   C23   1.395130 A    
O7    Cu2   1.969742 S    
C27   S7    1.767961 S    
N4    O11   1.300966 A    
S5    O30   1.503331 D    
N5    O20   1.300896 A    
C3    C6    1.477974 S    
C15   C25   1.397621 A    
O34   H16   0.990467 S    
C4    C5    1.470038 S    
C29   N1    1.366496 A    
O6    C4    1.293493 A    
S1    O15   1.682195 S    
C18   S4    1.764575 S    
S6    O32   1.502988 D    
S2    O18   1.682515 S    
C27   C29   1.415460 A    
O3    Cu2   1.947584 S    
O8    C4    1.292846 A    
S7    O37   1.682032 S    
O7    C3    1.283157 A    
C12   C14   1.391755 A    
O1    Cu1   1.950032 S    
C22   H6    1.083420 S    
S3    O25   1.680173 S    
C34   C36   1.398589 A    
O6    Cu2   1.952397 S    
N6    O21   1.300959 A    
O3    C1    1.293175 A    
O8    Cu1   1.969740 S    
C28   S8    1.769185 S    
C30   N2    1.365812 A    
C17   S3    1.774318 S    
C11   C13   1.390895 A    
C16   H4    1.083763 S    
C32   N4    1.427368 S    
O40   H18   0.990355 S    
S5    O31   1.681753 S    
C35   C36   1.506186 S    
S8    O39   1.502457 D    
C6    C9    1.440632 A    
C24   C26   1.406856 A    
C7    C9    1.414249 A    
C20   C22   1.404964 A    
O31   H15   0.990343 S    
O2    Cu2   1.950029 S    
C27   C35   1.415704 A    
Cu1   N2    2.005240 S    
O5    Cu1   1.952398 S    
C31   N3    1.428635 S    
S1    O13   1.502315 D    
C7    N5    1.435690 S    
C9    S2    1.805204 S    
S2    O17   1.503219 D    
O28   H14   0.990535 S    
S8    O40   1.682091 S    
