data_mof_unit_57304.cif
_audit_creation_date              2012-12-10T20:31:06-0500
_audit_creation_method            fapswitch 2.2
_symmetry_space_group_name_H-M    P1
_symmetry_Int_Tables_number       1
_space_group_crystal_system       triclinic
_cell_length_a                    14.946456
_cell_length_b                    10.671436
_cell_length_c                    9.869847
_cell_angle_alpha                 90.033752
_cell_angle_beta                  90.114849
_cell_angle_gamma                 90.057355
_cell_volume                      1574.23783706

loop_
_atom_site_label
_atom_site_type_symbol
_atom_type_description
_atom_site_fract_x
_atom_site_fract_y
_atom_site_fract_z
_atom_type_partial_charge
C1    C     C_R   0.502681 0.259997 0.500063 0.885157
C2    C     C_R   0.184454 0.446439 0.602681 -0.265028
C3    C     C_R   0.231302 0.507166 0.500591 -0.065500
C4    C     C_R   0.326821 0.500181 0.499920 0.887842
C5    C     C_R   0.187824 0.579638 0.403340 -0.223928
C6    C     C_R   0.512177 0.063946 0.623401 0.102034
C7    C     C_R   0.516561 0.128588 0.501178 -0.109718
C8    C     C_R   0.537862 0.064781 0.381244 -0.207543
C9    C     C_R   0.538011 0.935140 0.381295 -0.221859
C10   C     C_R   0.516759 0.871407 0.501244 -0.101195
C11   C     C_R   0.512278 0.936197 0.623439 0.138886
C12   C     C_R   0.907155 0.603559 0.410637 -0.148370
C13   C     C_3   0.444387 0.928927 0.734259 -0.505176
C14   C     C_3   0.444258 0.070987 0.734187 -0.383081
C15   C     C_R   0.424005 0.527332 0.071110 0.109151
C16   C     C_R   0.502762 0.739998 0.500066 0.859498
C17   C     C_R   0.576975 0.481113 0.072057 -0.092127
C18   C     C_R   0.576968 0.481089 0.928307 -0.097985
C19   C     C_R   0.424000 0.527275 0.928532 0.101443
C20   C     C_3   0.337696 0.457072 0.923474 0.438184
C21   C     C_3   0.337680 0.457426 0.077085 -0.514630
C22   C     C_R   0.673147 0.505049 0.500208 0.872796
C23   C     C_R   0.952702 0.393164 0.706730 -0.179746
C24   C     C_R   0.813127 0.596762 0.407281 0.416506
C25   C     C_R   0.768685 0.520138 0.502515 -0.166895
C26   C     C_R   0.815081 0.457283 0.603863 -0.298633
C27   C     C_R   0.907025 0.461695 0.607686 0.169508
C28   C     C_R   0.953709 0.532193 0.509328 -0.071561
C29   C     C_R   0.045219 0.390050 0.706382 -0.205655
C30   C     C_R   0.092385 0.455152 0.606744 0.165356
C31   C     C_R   0.047070 0.528506 0.508734 0.043736
C32   C     C_R   0.095278 0.594912 0.408695 -0.090817
C33   C     C_R   0.049641 0.673254 0.316156 0.372574
C34   C     C_R   0.956406 0.678538 0.318126 0.446195
F1    F     F_    0.347983 0.337812 0.870325 -0.660399
H1    H     H_    0.548660 0.885897 0.286677 0.179720
H2    H     H_    0.779315 0.400467 0.677267 0.163333
H3    H     H_    0.345049 0.362811 0.122981 0.240426
H4    H     H_    0.916779 0.340034 0.782828 0.149712
H5    H     H_    0.079841 0.334861 0.782281 0.161798
H6    H     H_    0.219696 0.389854 0.676772 0.188935
H7    H     H_    0.227355 0.624374 0.325447 0.156146
H8    H     H_    0.548387 0.113929 0.286582 0.177869
H9    H     H_    0.710889 0.695356 0.350790 0.326710
H10   H     H_    0.148115 0.782416 0.267487 0.321590
H11   H     H_    0.877958 0.817038 0.287115 0.349762
H12   H     H_    0.379902 0.887291 0.700128 0.206863
H13   H     H_    0.472610 0.888024 0.828671 0.212427
H14   H     H_    0.379702 0.112124 0.699963 0.229617
H15   H     H_    0.472385 0.112264 0.828569 0.231112
H16   H     H_    0.638797 0.464006 0.125907 0.173622
H17   H     H_    0.638770 0.463918 0.874772 0.148708
H18   H     H_    0.282237 0.511730 0.877297 0.076257
H19   H     H_    0.282966 0.515220 0.120346 0.169549
N1    N     N_R   0.499390 0.499140 0.142800 -0.095653
N2    N     N_R   0.499390 0.499180 0.857150 -0.083707
O1    O     O_R   0.500010 0.316790 0.614690 -0.584007
O2    O     O_3   0.093465 0.748669 0.223955 -0.713060
O3    O     O_3   0.915931 0.761582 0.230750 -0.653965
O4    O     O_R   0.500000 0.316760 0.385350 -0.622677
O5    O     O_R   0.367850 0.499990 0.614680 -0.602821
O6    O     O_R   0.367840 0.499950 0.385340 -0.621736
O7    O     O_R   0.500000 0.683240 0.614650 -0.619879
O8    O     O_R   0.499990 0.683210 0.385310 -0.624960
O9    O     O_R   0.632160 0.500050 0.614660 -0.633142
O10   O     O_R   0.632150 0.500010 0.385320 -0.610896
O11   O     O_3   0.766167 0.661664 0.309250 -0.741620
Zn1   Zn    Zn3+2 0.500010 0.500020 0.653130 0.985253
Zn2   Zn    Zn3+2 0.499990 0.499980 0.346870 0.959695

loop_
_geom_bond_atom_site_label_1
_geom_bond_atom_site_label_2
_ccdc_geom_bond_type
C19   N2    A    
C8    C9    A    
C13   H13   S    
C5    H7    S    
C22   O9    A    
C2    H6    S    
C29   C30   A    
C16   O7    A    
C1    O1    A    
H11   O3    S    
C6    C14   S    
C9    C10   A    
C17   N1    A    
C31   C32   A    
C24   O11   S    
C8    H8    S    
C18   N2    A    
C30   C31   A    
C2    C30   A    
O9    Zn1   S    
N2    Zn1   S    
C32   C33   A    
C5    C32   A    
C17   C18   A    
C18   H17   S    
C7    C8    A    
C26   H2    S    
N1    Zn2   S    
O8    Zn2   S    
C24   C25   A    
C15   C19   A    
C11   C13   S    
O5    Zn1   S    
C17   H16   S    
C26   C27   A    
C33   O2    S    
C10   C16   S    
O4    Zn2   S    
C12   C28   A    
C23   H4    S    
C23   C29   A    
C29   H5    S    
C33   C34   A    
C6    C7    A    
C23   C27   A    
C6    C11   A    
C21   H19   S    
H10   O2    S    
O10   Zn2   S    
C10   C11   A    
C14   H15   S    
O1    Zn1   S    
C12   C34   A    
C3    C4    S    
C14   H14   S    
C9    H1    S    
C4    O6    A    
C15   C21   S    
C20   C21   S    
C1    O4    A    
C27   C28   A    
C13   H12   S    
C12   C24   A    
O7    Zn1   S    
C22   O10   A    
H9    O11   S    
C2    C3    A    
C16   O8    A    
C13   C14   S    
C25   C26   A    
C1    C7    S    
C34   O3    S    
C4    O5    A    
C20   F1    S    
C28   C31   A    
C21   H3    S    
C19   C20   S    
O6    Zn2   S    
C20   H18   S    
C3    C5    A    
C22   C25   S    
C15   N1    A    
