data_mof_unit_53556.cif
_audit_creation_date              2012-10-26T19:31:25-0400
_audit_creation_method            fapswitch 2.2
_symmetry_space_group_name_H-M    P1
_symmetry_Int_Tables_number       1
_space_group_crystal_system       triclinic
_cell_length_a                    14.619608
_cell_length_b                    15.88631
_cell_length_c                    17.380779
_cell_angle_alpha                 89.913522
_cell_angle_beta                  85.211866
_cell_angle_gamma                 90.239638
_cell_volume                      4022.58452719

loop_
_atom_site_label
_atom_site_type_symbol
_atom_type_description
_atom_site_fract_x
_atom_site_fract_y
_atom_site_fract_z
_atom_type_partial_charge
C1    C     C_R   0.500164 0.660471 0.500023 0.533778
C2    C     C_3   0.563207 0.028271 0.448191 0.126461
C3    C     C_3   0.499638 0.916613 0.499139 0.011504
C4    C     C_3   0.499048 0.083321 0.501440 0.008237
C5    C     C_1   0.500238 0.825231 0.499542 -0.021194
C6    C     C_1   0.498980 0.174726 0.500989 -0.021873
C7    C     C_3   0.023752 0.464952 0.566505 -0.140559
C8    C     C_3   0.976292 0.534943 0.433129 -0.141983
C9    C     C_3   0.963718 0.545209 0.560927 -0.140046
C10   C     C_3   0.036372 0.454647 0.438716 -0.141094
C11   C     C_3   0.968324 0.422451 0.505225 0.297898
C12   C     C_R   0.499794 0.339518 0.500086 0.547012
C13   C     C_3   0.031776 0.577404 0.494454 0.299122
C14   C     C_3   0.908459 0.501107 0.499755 -0.006792
C15   C     C_3   0.091567 0.498707 0.499929 -0.005726
C16   C     C_R   0.487421 0.500848 0.650203 0.549168
C17   C     C_R   0.512685 0.500682 0.349620 0.555586
C18   C     C_1   0.805839 0.500458 0.499893 0.154962
C19   C     C_1   0.194176 0.499452 0.499949 0.160269
C20   C     C_R   0.478800 0.499934 0.734562 0.039492
C21   C     C_R   0.521042 0.504079 0.265000 0.036065
C22   C     C_R   0.549955 0.464387 0.772845 -0.165089
C23   C     C_3   0.417627 0.027199 0.482978 0.280837
C24   C     C_R   0.443860 0.527938 0.227524 -0.166771
C25   C     C_R   0.543341 0.459683 0.852715 -0.124466
C26   C     C_R   0.447383 0.530078 0.147656 -0.122965
C27   C     C_R   0.465560 0.491071 0.895660 0.015933
C28   C     C_R   0.527854 0.506665 0.103518 0.017145
C29   C     C_R   0.393305 0.524945 0.858035 -0.105081
C30   C     C_R   0.605987 0.485055 0.140185 -0.107654
C31   C     C_R   0.399754 0.531308 0.777543 0.133621
C32   C     C_R   0.603829 0.484072 0.220729 0.129309
C33   C     C_2   0.459033 0.490759 0.980080 -0.133595
C34   C     C_3   0.580933 0.972790 0.517579 0.293253
C35   C     C_2   0.532899 0.505010 0.018973 -0.132828
C36   C     C_3   0.003837 0.720723 0.481098 0.009205
C37   C     C_3   0.019815 0.760651 0.400953 -0.258705
C38   C     C_3   0.957445 0.836287 0.392609 -0.498094
C39   C     C_3   0.998996 0.279129 0.513040 0.007573
C40   C     C_3   0.995766 0.221772 0.442754 -0.261205
C41   C     C_3   0.067266 0.152086 0.443014 -0.491165
C42   C     C_3   0.747809 0.528424 0.265425 -0.283715
C43   C     C_3   0.346079 0.657119 0.718132 -0.274923
C44   C     C_3   0.273170 0.999117 0.441911 0.007419
C45   C     C_3   0.481852 0.972303 0.428156 -0.156273
C46   C     C_3   0.260778 0.012832 0.356300 -0.259755
C47   C     C_3   0.192617 0.949814 0.327244 -0.494361
C48   C     C_3   0.721463 0.001934 0.562864 0.012737
C49   C     C_3   0.821219 0.972888 0.556406 -0.258429
C50   C     C_3   0.883475 0.036662 0.592073 -0.494404
C51   C     C_3   0.685820 0.000441 0.347459 -0.301261
C52   C     C_3   0.315150 0.998966 0.655298 -0.297341
C53   C     C_3   0.516719 0.027656 0.572394 -0.136169
C54   C     C_1   0.500415 0.749892 0.499826 -0.023258
C55   C     C_1   0.499295 0.250077 0.500535 -0.014866
C56   C     C_3   0.435316 0.971630 0.552347 0.132997
Cu1   Cu    Cu3+1 0.409780 0.500000 0.499990 1.000617
Cu2   Cu    Cu3+1 0.590220 0.500000 0.500010 0.998968
H1    H     H_    0.610383 0.438953 0.740881 0.132694
H2    H     H_    0.598698 0.430667 0.880694 0.110858
H3    H     H_    0.468768 0.948815 0.369983 0.096296
H4    H     H_    0.530294 0.050838 0.630581 0.094422
H5    H     H_    0.934466 0.583820 0.610092 0.104863
H6    H     H_    0.065829 0.416302 0.389457 0.100879
H7    H     H_    0.012025 0.769925 0.525406 0.145862
H8    H     H_    0.931530 0.697518 0.490219 0.116447
H9    H     H_    0.092498 0.781549 0.391136 0.175604
H10   H     H_    0.006499 0.713215 0.356306 0.152836
H11   H     H_    0.884207 0.817542 0.403537 0.154253
H12   H     H_    0.380412 0.545623 0.260037 0.133497
H13   H     H_    0.968664 0.862049 0.333135 0.142282
H14   H     H_    0.973726 0.886292 0.433962 0.136783
H15   H     H_    0.984340 0.240901 0.566260 0.143987
H16   H     H_    0.070011 0.304811 0.514898 0.118864
H17   H     H_    0.926373 0.192889 0.442746 0.176769
H18   H     H_    0.008833 0.259734 0.389177 0.161477
H19   H     H_    0.137459 0.179567 0.440315 0.169615
H20   H     H_    0.061985 0.110964 0.391977 0.142322
H21   H     H_    0.055651 0.113074 0.496002 0.141375
H22   H     H_    0.716199 0.408291 0.230708 0.239796
H23   H     H_    0.042836 0.434679 0.620464 0.105359
H24   H     H_    0.777288 0.551048 0.208039 0.114836
H25   H     H_    0.804514 0.506085 0.298874 0.140463
H26   H     H_    0.713074 0.581527 0.297320 0.168562
H27   H     H_    0.263751 0.563497 0.770166 0.238256
H28   H     H_    0.351816 0.696889 0.770085 0.126455
H29   H     H_    0.289028 0.681130 0.685991 0.150970
H30   H     H_    0.410608 0.662098 0.679836 0.162548
H31   H     H_    0.205465 0.005814 0.475376 0.142207
H32   H     H_    0.296143 0.933238 0.451278 0.118363
H33   H     H_    0.235523 0.077707 0.347427 0.172657
H34   H     H_    0.956748 0.564525 0.379031 0.090385
H35   H     H_    0.327903 0.005885 0.322038 0.158866
H36   H     H_    0.217963 0.884554 0.333532 0.147316
H37   H     H_    0.184409 0.961888 0.265272 0.144960
H38   H     H_    0.124616 0.956270 0.360221 0.144321
H39   H     H_    0.698345 0.012094 0.624769 0.131543
H40   H     H_    0.718062 0.062699 0.530972 0.158469
H41   H     H_    0.826325 0.911286 0.586145 0.173289
H42   H     H_    0.844773 0.964699 0.494467 0.161096
H43   H     H_    0.880339 0.098443 0.562461 0.154679
H44   H     H_    0.955401 0.013876 0.585795 0.134988
H45   H     H_    0.599904 0.514152 0.988030 0.116138
H46   H     H_    0.862267 0.044715 0.654481 0.148075
H47   H     H_    0.608683 0.109723 0.359457 0.253491
H48   H     H_    0.740454 0.032615 0.309971 0.130909
H49   H     H_    0.640830 0.964984 0.310360 0.131470
H50   H     H_    0.719198 0.955940 0.385536 0.192442
H51   H     H_    0.324019 0.893265 0.584552 0.241474
H52   H     H_    0.268093 0.966174 0.699093 0.129259
H53   H     H_    0.273802 0.039378 0.619336 0.168758
H54   H     H_    0.362939 0.038777 0.686040 0.153077
H55   H     H_    0.391579 0.481852 0.010089 0.114734
H56   H     H_    0.333357 0.549462 0.891437 0.093827
H57   H     H_    0.668721 0.468051 0.106176 0.095092
H58   H     H_    0.387136 0.550849 0.120979 0.107458
N1    N     N_1   0.725810 0.500000 0.500030 -0.191973
N2    N     N_1   0.274190 0.500000 0.499970 -0.190122
N3    N     N_2   0.683955 0.460019 0.256287 -0.488644
N4    N     N_2   0.327585 0.570575 0.740719 -0.495558
N5    N     N_2   0.633057 0.062367 0.392723 -0.517587
N6    N     N_2   0.365561 0.937399 0.607818 -0.512838
O1    O     O_R   0.423830 0.620920 0.499990 -0.493527
O2    O     O_3   0.929714 0.340916 0.511397 -0.560301
O3    O     O_3   0.332253 0.061869 0.467744 -0.569479
O4    O     O_3   0.666770 0.938890 0.532297 -0.567921
O5    O     O_R   0.576170 0.379080 0.500010 -0.483808
O6    O     O_R   0.576200 0.620920 0.500000 -0.497508
O7    O     O_R   0.423800 0.379080 0.500000 -0.494290
O8    O     O_R   0.414980 0.500010 0.613590 -0.463451
O9    O     O_R   0.585020 0.499990 0.386410 -0.467195
O10   O     O_R   0.567350 0.500010 0.613600 -0.513112
O11   O     O_R   0.432650 0.499990 0.386400 -0.513498
O12   O     O_3   0.071272 0.658621 0.489744 -0.565288

loop_
_geom_bond_atom_site_label_1
_geom_bond_atom_site_label_2
_ccdc_geom_bond_type
C29   H56   S    
Cu2   O6    S    
C8    C13   S    
C23   C45   S    
C4    C53   S    
C17   O9    A    
C13   O12   S    
C14   C18   S    
C11   O2    S    
C42   H24   S    
C1    O6    A    
C6    C55   T    
C1    C54   S    
C24   H12   S    
C23   C56   S    
C12   O5    A    
C27   C33   S    
C15   C19   S    
C48   H39   S    
C43   H30   S    
Cu1   O7    S    
C36   C37   S    
C24   C26   A    
C35   H45   S    
C10   C15   S    
C41   H19   S    
C11   C14   S    
C36   H8    S    
C42   N3    S    
C53   C56   S    
C49   H41   S    
C52   H54   S    
C37   H10   S    
C27   C29   A    
C53   H4    S    
C39   H16   S    
C9    C13   S    
C38   H13   S    
C52   N6    S    
C19   N2    T    
Cu2   O10   S    
C51   H50   S    
C22   C25   A    
C47   H38   S    
C8    H34   S    
C25   H2    S    
C16   O8    A    
C34   O4    S    
C43   N4    S    
C23   O3    S    
C2    C34   S    
C7    C15   S    
C38   H11   S    
Cu2   O5    S    
Cu1   O11   S    
C16   O10   A    
C44   C46   S    
C7    C11   S    
C30   H57   S    
C2    C45   S    
C21   C32   A    
C38   H14   S    
C44   O3    S    
C12   O7    A    
C5    C54   T    
C42   H26   S    
C28   C35   S    
C4    C6    S    
C41   H20   S    
C4    C23   S    
C36   H7    S    
C46   H33   S    
C52   H53   S    
C3    C45   S    
Cu2   N1    S    
C17   C21   S    
C39   O2    S    
C40   H18   S    
C56   N6    S    
H27   N4    S    
C2    C4    S    
C9    C14   S    
C1    O1    A    
C37   C38   S    
Cu1   O1    S    
C3    C56   S    
Cu1   O8    S    
C52   H52   S    
Cu2   O9    S    
C16   C20   S    
H47   N5    S    
C18   N1    T    
C50   H43   S    
C51   H49   S    
C48   C49   S    
C7    H23   S    
C20   C22   A    
C50   H44   S    
C13   C15   S    
C17   O11   A    
C51   N5    S    
C32   N3    S    
C22   H1    S    
C44   H32   S    
C2    N5    S    
C7    C9    S    
C46   C47   S    
C40   C41   S    
C8    C14   S    
C9    H5    S    
C43   H28   S    
C33   H55   S    
C10   H6    S    
C42   H25   S    
C3    C5    S    
C36   O12   S    
C41   H21   S    
C25   C27   A    
C48   H40   S    
C26   C28   A    
C3    C34   S    
C40   H17   S    
C43   H29   S    
C28   C30   A    
C29   C31   A    
C49   H42   S    
C30   C32   A    
Cu1   Cu2   S    
C46   H35   S    
C51   H48   S    
C37   H9    S    
C45   H3    S    
C33   C35   D    
C47   H36   S    
C39   H15   S    
H51   N6    S    
C26   H58   S    
C31   N4    S    
H22   N3    S    
C12   C55   S    
C10   C11   S    
C44   H31   S    
C48   O4    S    
C39   C40   S    
C34   C53   S    
C8    C10   S    
C49   C50   S    
C21   C24   A    
C47   H37   S    
C50   H46   S    
Cu1   N2    S    
C20   C31   A    
