data_mof_unit_19849.cif
_audit_creation_date              2012-12-11T17:09:36-0500
_audit_creation_method            fapswitch 2.2
_symmetry_space_group_name_H-M    P1
_symmetry_Int_Tables_number       1
_space_group_crystal_system       triclinic
_cell_length_a                    14.818822
_cell_length_b                    6.96034
_cell_length_c                    13.47805
_cell_angle_alpha                 89.965132
_cell_angle_beta                  99.879589
_cell_angle_gamma                 90.019346
_cell_volume                      1369.56456383

loop_
_atom_site_label
_atom_site_type_symbol
_atom_type_description
_atom_site_fract_x
_atom_site_fract_y
_atom_site_fract_z
_atom_type_partial_charge
O1    O     O_R   0.586930 0.505770 0.416350 -0.531925
O2    O     O_R   0.413070 0.005770 0.583650 -0.556689
O3    O     O_R   0.397900 0.173100 0.389630 -0.532582
O4    O     O_R   0.602100 0.673100 0.610370 -0.537923
C1    C     C_R   0.364474 0.345398 0.362787 0.714715
C2    C     C_R   0.635552 0.845381 0.637183 0.713170
O5    O     O_R   0.585280 0.175870 0.404330 -0.505997
O6    O     O_R   0.414720 0.675870 0.595670 -0.529734
O7    O     O_R   0.601790 0.008380 0.598460 -0.543951
O8    O     O_R   0.398210 0.508380 0.401540 -0.537457
C3    C     C_R   0.613424 0.345189 0.381594 0.745052
C4    C     C_R   0.389118 0.845574 0.621529 0.697026
O9    O     O_3   0.505200 0.340120 0.563670 -0.394560
O10   O     O_3   0.494800 0.840120 0.436330 -0.344207
V1    V     V_3+5 0.499040 0.064180 0.488190 1.468075
V2    V     V_3+5 0.500960 0.564180 0.511810 1.438083
C5    C     C_R   0.272172 0.024052 0.698371 -0.084015
C6    C     C_R   0.750831 0.494905 0.327008 -0.096029
C7    C     C_R   0.324816 0.858922 0.695133 -0.166221
C8    C     C_R   0.681972 0.354890 0.313439 -0.197157
C9    C     C_R   0.319850 0.719149 0.769387 0.465848
C10   C     C_R   0.677461 0.232387 0.229353 0.519210
C11   C     C_R   0.246793 0.723044 0.824921 -0.261983
C12   C     C_R   0.747619 0.235401 0.169974 -0.282430
H1    H     H_    0.243106 0.612092 0.880380 0.135479
H2    H     H_    0.743240 0.137132 0.107016 0.134606
C13   C     C_R   0.184598 0.878153 0.816166 -0.127115
C14   C     C_R   0.817062 0.376416 0.185098 -0.144201
C15   C     C_R   0.198938 0.030595 0.752254 0.018156
C16   C     C_R   0.817541 0.505170 0.264972 0.011646
C17   C     C_3   0.221198 0.231340 0.786183 -0.370863
C18   C     C_3   0.816293 0.719951 0.261095 -0.430532
C19   C     C_3   0.308228 0.212464 0.742980 0.387003
C20   C     C_3   0.741232 0.710150 0.324960 0.395271
H3    H     H_    0.232598 0.248711 0.869501 0.185498
H4    H     H_    0.794588 0.779302 0.184135 0.179871
H5    H     H_    0.171801 0.335811 0.744703 0.115330
H6    H     H_    0.881107 0.782376 0.302161 0.134220
H7    H     H_    0.316065 0.324571 0.686159 0.081716
H8    H     H_    0.763267 0.773060 0.401058 0.055567
C21   C     C_1   0.783364 0.877217 0.783027 -0.197395
C22   C     C_1   0.216650 0.377179 0.216938 -0.191123
C23   C     C_1   0.716017 0.860097 0.716945 -0.198664
C24   C     C_1   0.284003 0.360105 0.283019 -0.186980
O11   O     O_R   0.101720 0.231700 0.098560 -0.534999
O12   O     O_R   0.898280 0.731700 0.901440 -0.536229
O13   O     O_R   0.914700 0.558980 0.095690 -0.541130
O14   O     O_R   0.085300 0.058980 0.904310 -0.541020
C25   C     C_R   0.885040 0.389741 0.116627 0.724022
C26   C     C_R   0.114995 0.889930 0.883209 0.716856
O15   O     O_R   0.102080 0.561590 0.110390 -0.537066
O16   O     O_R   0.897920 0.061590 0.889610 -0.538200
O17   O     O_R   0.086950 0.728940 0.916330 -0.542182
O18   O     O_R   0.913050 0.228940 0.083670 -0.540410
C27   C     C_R   0.136058 0.391964 0.137313 0.730839
C28   C     C_R   0.863949 0.891982 0.862667 0.728506
O19   O     O_3   0.994770 0.394510 0.936380 -0.370414
O20   O     O_3   0.005230 0.894510 0.063620 -0.368161
V3    V     V_3+5 0.000970 0.670520 0.011800 1.408098
V4    V     V_3+5 0.999030 0.170520 0.988200 1.409390
O21   O     O_3   0.392050 0.593439 0.794721 -0.555380
C29   C     C_3   0.441201 0.642567 0.890737 -0.248673
H9    H     H_    0.453946 0.800044 0.899176 0.138490
H10   H     H_    0.509207 0.571959 0.901036 0.137760
H11   H     H_    0.405113 0.589299 0.951136 0.146349
O22   O     O_3   0.601482 0.117965 0.201078 -0.526947
C30   C     C_3   0.539111 0.210289 0.124935 -0.287979
H12   H     H_    0.572742 0.288312 0.068858 0.109063
H13   H     H_    0.494388 0.308650 0.159390 0.125123
H14   H     H_    0.493922 0.099901 0.082856 0.169389
O23   O     O_3   0.382275 0.189461 0.824612 -0.544822
C31   C     C_3   0.468086 0.194875 0.793031 -0.126059
H15   H     H_    0.520723 0.233810 0.858724 0.114869
H16   H     H_    0.487158 0.050842 0.768926 0.101237
H17   H     H_    0.471546 0.303699 0.733899 0.178992
O24   O     O_3   0.654984 0.787199 0.278286 -0.504494
C32   C     C_3   0.611783 0.693177 0.189075 -0.083873
H18   H     H_    0.575772 0.798956 0.135336 0.159438
H19   H     H_    0.658610 0.615288 0.147409 0.080880
H20   H     H_    0.558146 0.596259 0.207900 0.102924

loop_
_geom_bond_atom_site_label_1
_geom_bond_atom_site_label_2
_ccdc_geom_bond_type
O11   V4    S    
O12   V3    S    
C13   C15   A    
C5    C15   A    
O1    C3    A    
O2    C4    A    
C2    O7    A    
O17   V3    S    
O13   C25   A    
O18   V4    S    
C32   H18   S    
O5    C3    A    
C19   H7    S    
C5    C19   S    
C20   H8    S    
C18   H4    S    
C10   C12   A    
C7    C9    A    
C12   H2    S    
O19   V3    S    
O20   V4    S    
C25   O18   A    
C6    C8    A    
C10   O22   S    
C29   H10   S    
O16   V4    S    
C17   C19   S    
C6    C16   A    
O10   V2    S    
C11   C13   A    
C9    O21   S    
C13   C26   S    
O14   C26   A    
O22   C30   S    
O6    V2    S    
C21   C23   T    
C22   C24   T    
C31   H17   S    
O14   V4    S    
C32   H19   S    
C9    C11   A    
C3    C8    S    
C26   O17   A    
C30   H12   S    
O24   C32   S    
C31   H16   S    
O19   V4    S    
O20   V3    S    
C17   H5    S    
C30   H13   S    
C18   C20   S    
O4    V2    S    
C21   C28   S    
C29   H9    S    
C22   C27   S    
C14   C25   S    
O6    C4    A    
O1    V2    S    
O2    V1    S    
C6    C20   S    
O4    C2    A    
C1    C24   S    
C8    C10   A    
C18   H6    S    
C2    C23   S    
O9    V1    S    
C17   H3    S    
O15   V3    S    
O3    V1    S    
C32   H20   S    
C29   H11   S    
C12   C14   A    
C31   H15   S    
O3    C1    A    
C30   H14   S    
C14   C16   A    
O7    V1    S    
C1    O8    A    
C15   C17   S    
O8    V2    S    
C16   C18   S    
C4    C7    S    
O5    V1    S    
C5    C7    A    
O15   C27   A    
C11   H1    S    
O21   C29   S    
C19   O23   S    
O13   V3    S    
O23   C31   S    
O11   C27   A    
O9    V2    S    
O12   C28   A    
O10   V1    S    
O16   C28   A    
C20   O24   S    
