data_mof_unit_37411.cif
_audit_creation_date              2012-12-11T14:28:16-0500
_audit_creation_method            fapswitch 2.2
_symmetry_space_group_name_H-M    P1
_symmetry_Int_Tables_number       1
_space_group_crystal_system       triclinic
_cell_length_a                    10.688641
_cell_length_b                    19.957103
_cell_length_c                    18.727
_cell_angle_alpha                 89.881326
_cell_angle_beta                  90.562154
_cell_angle_gamma                 90.216755
_cell_volume                      3994.50794831

loop_
_atom_site_label
_atom_site_type_symbol
_atom_type_description
_atom_site_fract_x
_atom_site_fract_y
_atom_site_fract_z
_atom_type_partial_charge
C1    C     C_R   0.314195 0.938080 0.636307 0.570809
C2    C     C_R   0.315002 0.937200 0.863588 0.564903
C3    C     C_R   0.313841 0.064737 0.362855 0.567241
C4    C     C_R   0.313950 0.063649 0.136694 0.569807
C5    C     C_R   0.814195 0.438080 0.636307 0.570809
C6    C     C_R   0.815002 0.437200 0.863588 0.564902
C7    C     C_R   0.813841 0.564737 0.362855 0.567244
C8    C     C_R   0.813950 0.563649 0.136694 0.569807
C9    C     C_3   0.163957 0.702623 0.479410 -0.146376
C10   C     C_3   0.150398 0.727333 0.037032 -0.137911
C11   C     C_3   0.163128 0.264770 0.541303 -0.130730
C12   C     C_3   0.143595 0.303538 0.981504 -0.133973
C13   C     C_3   0.663956 0.202625 0.479409 -0.146382
C14   C     C_3   0.650398 0.227333 0.037032 -0.137911
C15   C     C_3   0.663131 0.764775 0.541301 -0.130731
C16   C     C_3   0.643595 0.803538 0.981504 -0.133973
C17   C     C_3   0.062724 0.737241 0.433270 0.024716
C18   C     C_3   0.014175 0.724918 0.061209 0.018304
C19   C     C_3   0.026388 0.274236 0.562375 0.022855
C20   C     C_3   0.035916 0.271611 0.937817 0.023950
C21   C     C_3   0.562721 0.237241 0.433271 0.024714
C22   C     C_3   0.514175 0.224918 0.061209 0.018305
C23   C     C_3   0.526390 0.774236 0.562376 0.022856
C24   C     C_3   0.535916 0.771611 0.937817 0.023950
C25   C     C_R   0.311041 0.042678 0.437667 -0.040365
C26   C     C_R   0.313866 0.040220 0.062312 -0.033002
C27   C     C_R   0.313308 0.963957 0.562342 -0.026148
C28   C     C_R   0.314819 0.961435 0.938081 -0.033339
C29   C     C_R   0.811042 0.542679 0.437667 -0.040365
C30   C     C_R   0.813866 0.540220 0.062312 -0.033002
C31   C     C_R   0.813308 0.463958 0.562342 -0.026149
C32   C     C_R   0.814818 0.461435 0.938081 -0.033339
C33   C     C_R   0.541692 0.049070 0.445951 -0.087093
C34   C     C_R   0.547493 0.040442 0.059878 -0.067546
C35   C     C_R   0.545339 0.959083 0.555250 -0.077268
C36   C     C_R   0.545480 0.950317 0.951074 -0.082134
C37   C     C_R   0.041694 0.549068 0.445949 -0.087093
C38   C     C_R   0.047493 0.540442 0.059878 -0.067546
C39   C     C_R   0.045341 0.459083 0.555249 -0.077271
C40   C     C_R   0.045480 0.450316 0.951074 -0.082134
C41   C     C_R   0.654438 0.024577 0.469947 -0.101822
C42   C     C_R   0.657891 0.009702 0.041724 -0.086616
C43   C     C_R   0.656348 0.980816 0.526532 -0.093713
C44   C     C_R   0.657013 0.964624 0.986622 -0.093325
C45   C     C_R   0.154440 0.524573 0.469943 -0.101831
C46   C     C_R   0.157890 0.509702 0.041724 -0.086616
C47   C     C_R   0.156349 0.480812 0.526528 -0.093719
C48   C     C_R   0.157012 0.464624 0.986622 -0.093325
C49   C     C_R   0.427362 0.982334 0.530148 -0.003506
C50   C     C_R   0.429297 0.976918 0.972946 -0.009991
C51   C     C_R   0.425820 0.025049 0.470946 -0.008083
C52   C     C_R   0.429378 0.019430 0.032255 -0.003461
C53   C     C_R   0.927363 0.482334 0.530147 -0.003508
C54   C     C_R   0.929297 0.476918 0.972946 -0.009991
C55   C     C_R   0.925821 0.525049 0.470945 -0.008084
C56   C     C_R   0.929378 0.519430 0.032255 -0.003461
C57   C     C_R   0.195960 0.983712 0.530570 0.013773
C58   C     C_R   0.197588 0.982057 0.968257 0.012364
C59   C     C_R   0.193300 0.028215 0.472223 -0.002623
C60   C     C_R   0.196964 0.027801 0.025211 0.005592
C61   C     C_R   0.695961 0.483713 0.530570 0.013771
C62   C     C_R   0.697588 0.482057 0.968257 0.012364
C63   C     C_R   0.693301 0.528216 0.472223 -0.002623
C64   C     C_R   0.696964 0.527801 0.025211 0.005592
C65   C     C_R   0.078023 0.964918 0.559706 0.278832
C66   C     C_R   0.077825 0.961149 0.940558 0.263730
C67   C     C_R   0.070882 0.056207 0.454114 0.255384
C68   C     C_R   0.076388 0.056590 0.042151 0.238213
C69   C     C_R   0.578024 0.464918 0.559705 0.278841
C70   C     C_R   0.577825 0.461149 0.940558 0.263730
C71   C     C_R   0.570882 0.556208 0.454114 0.255386
C72   C     C_R   0.576388 0.556590 0.042151 0.238213
C73   C     C_R   0.980357 0.009579 0.558617 -0.125395
C74   C     C_R   0.975596 0.002512 0.944662 -0.136784
C75   C     C_R   0.974845 0.053498 0.503871 -0.148045
C76   C     C_R   0.974321 0.049308 0.996339 -0.166437
C77   C     C_R   0.480356 0.509579 0.558616 -0.125388
C78   C     C_R   0.475596 0.502512 0.944662 -0.136784
C79   C     C_R   0.474844 0.553498 0.503871 -0.148045
C80   C     C_R   0.474321 0.549308 0.996339 -0.166438
C81   C     C_R   0.130791 0.758642 0.644714 0.539058
C82   C     C_R   0.136547 0.759370 0.857539 0.542197
C83   C     C_R   0.142450 0.239258 0.359100 0.539775
C84   C     C_R   0.130039 0.241398 0.145039 0.537404
C85   C     C_R   0.630792 0.258642 0.644714 0.539059
C86   C     C_R   0.636547 0.259369 0.857539 0.542196
C87   C     C_R   0.642448 0.739258 0.359100 0.539773
C88   C     C_R   0.630038 0.741398 0.145039 0.537404
C89   C     C_R   0.496671 0.786800 0.637648 0.525297
C90   C     C_R   0.502948 0.784964 0.862675 0.528584
C91   C     C_R   0.538059 0.227131 0.357174 0.539733
C92   C     C_R   0.493105 0.212488 0.138089 0.523679
C93   C     C_R   0.996671 0.286800 0.637648 0.525299
C94   C     C_R   0.002948 0.284964 0.862675 0.528584
C95   C     C_R   0.038061 0.727132 0.357173 0.539732
C96   C     C_R   0.993105 0.712488 0.138089 0.523678
C97   C     C_3   0.084186 0.804821 0.469283 -0.065570
C98   C     C_3   0.984148 0.789645 0.020101 -0.091752
C99   C     C_3   0.987372 0.211985 0.520496 -0.104326
C100  C     C_3   0.062318 0.202273 0.968934 -0.079351
C101  C     C_3   0.584180 0.304820 0.469284 -0.065556
C102  C     C_3   0.484148 0.289645 0.020101 -0.091751
C103  C     C_3   0.487379 0.711983 0.520498 -0.104325
C104  C     C_3   0.562318 0.702273 0.968934 -0.079351
C105  C     C_3   0.185792 0.771127 0.515739 -0.111517
C106  C     C_3   0.121131 0.792141 0.995690 -0.096540
C107  C     C_3   0.125071 0.202570 0.498094 -0.105345
C108  C     C_3   0.169035 0.233690 0.013229 -0.117277
C109  C     C_3   0.685788 0.271128 0.515739 -0.111525
C110  C     C_3   0.621131 0.292142 0.995690 -0.096542
C111  C     C_3   0.625078 0.702572 0.498094 -0.105348
C112  C     C_3   0.669035 0.733690 0.013229 -0.117277
C113  C     C_3   0.086176 0.752839 0.570832 0.065078
C114  C     C_3   0.084974 0.749557 0.929771 0.070205
C115  C     C_3   0.099983 0.247751 0.432679 0.059229
C116  C     C_3   0.077115 0.248782 0.073088 0.065919
C117  C     C_3   0.586176 0.252839 0.570833 0.065073
C118  C     C_3   0.584974 0.249557 0.929771 0.070204
C119  C     C_3   0.599981 0.747751 0.432679 0.059230
C120  C     C_3   0.577115 0.748782 0.073088 0.065919
C121  C     C_3   0.984268 0.786586 0.525372 -0.076319
C122  C     C_3   0.948860 0.747555 0.953015 -0.144963
C123  C     C_3   0.963924 0.256743 0.453898 -0.146039
C124  C     C_3   0.970073 0.216504 0.030047 -0.095357
C125  C     C_3   0.484267 0.286584 0.525374 -0.076309
C126  C     C_3   0.448860 0.247555 0.953015 -0.144962
C127  C     C_3   0.463921 0.756739 0.453900 -0.146035
C128  C     C_3   0.470073 0.716505 0.030047 -0.095357
C129  C     C_3   0.960788 0.718843 0.488005 -0.149593
C130  C     C_3   0.976317 0.682398 0.995562 -0.173173
C131  C     C_3   0.001892 0.319683 0.497071 -0.167801
C132  C     C_3   0.942202 0.286107 0.997419 -0.160941
C133  C     C_3   0.460790 0.218842 0.488006 -0.149597
C134  C     C_3   0.476317 0.182398 0.995563 -0.173173
C135  C     C_3   0.501884 0.819681 0.497071 -0.167804
C136  C     C_3   0.442202 0.786107 0.997419 -0.160941
C137  C     C_3   0.062528 0.686047 0.534657 -0.024364
C138  C     C_3   0.112217 0.685359 0.971722 -0.002040
C139  C     C_3   0.138739 0.309397 0.475962 0.004702
C140  C     C_3   0.049177 0.317025 0.041566 -0.015434
C141  C     C_3   0.562531 0.186047 0.534657 -0.024359
C142  C     C_3   0.612217 0.185359 0.971722 -0.002039
C143  C     C_3   0.638731 0.809400 0.475961 0.004692
C144  C     C_3   0.549177 0.817025 0.041566 -0.015434
Cr1   Cr    Cr6+3 0.488160 0.884660 0.750000 1.008467
Cr2   Cr    Cr6+3 0.488160 0.115340 0.250000 1.005474
Cr3   Cr    Cr6+3 0.988160 0.384660 0.750000 1.008468
Cr4   Cr    Cr6+3 0.988160 0.615340 0.250000 1.005470
Cr5   Cr    Cr6+3 0.173480 0.883120 0.750000 1.044336
Cr6   Cr    Cr6+3 0.173480 0.116880 0.250000 1.074949
Cr7   Cr    Cr6+3 0.673480 0.383120 0.750000 1.044337
Cr8   Cr    Cr6+3 0.673480 0.616880 0.250000 1.074949
Cr9   Cr    Cr6+3 0.333410 0.727260 0.750000 1.046772
Cr10  Cr    Cr6+3 0.333410 0.272740 0.250000 1.051731
Cr11  Cr    Cr6+3 0.833410 0.227260 0.750000 1.046772
Cr12  Cr    Cr6+3 0.833410 0.772740 0.250000 1.051733
H1    H     H_    0.272438 0.796438 0.533026 0.104783
H2    H     H_    0.172541 0.839906 0.001288 0.151473
H3    H     H_    0.182964 0.157311 0.502283 0.118508
H4    H     H_    0.255687 0.207783 0.027377 0.107160
H5    H     H_    0.772434 0.296440 0.533023 0.104784
H6    H     H_    0.672541 0.339906 0.001286 0.151475
H7    H     H_    0.682966 0.657312 0.502284 0.118509
H8    H     H_    0.755687 0.707783 0.027377 0.107160
H9    H     H_    0.903075 0.005187 0.595029 0.099198
H10   H     H_    0.893036 0.993573 0.912412 0.134914
H11   H     H_    0.891278 0.082459 0.497270 0.082046
H12   H     H_    0.890094 0.077311 0.004694 0.122952
H13   H     H_    0.403073 0.505186 0.595028 0.099198
H14   H     H_    0.393035 0.493573 0.912412 0.134914
H15   H     H_    0.391276 0.582458 0.497269 0.082044
H16   H     H_    0.390093 0.577311 0.004694 0.122951
H17   H     H_    0.094721 0.853466 0.441065 0.152470
H18   H     H_    0.930123 0.832784 0.040709 0.139644
H19   H     H_    0.919682 0.177530 0.545448 0.137225
H20   H     H_    0.071803 0.157152 0.935073 0.145785
H21   H     H_    0.594711 0.353464 0.441066 0.152486
H22   H     H_    0.430123 0.332784 0.040709 0.139644
H23   H     H_    0.419694 0.677526 0.545452 0.137228
H24   H     H_    0.571803 0.657152 0.935073 0.145785
H25   H     H_    0.910108 0.819590 0.545347 0.128235
H26   H     H_    0.869253 0.755540 0.915597 0.124653
H27   H     H_    0.884986 0.253150 0.415181 0.122218
H28   H     H_    0.902616 0.180526 0.052033 0.110667
H29   H     H_    0.410105 0.319583 0.545354 0.128241
H30   H     H_    0.369253 0.255540 0.915597 0.124654
H31   H     H_    0.384982 0.753143 0.415184 0.122217
H32   H     H_    0.402616 0.680526 0.052033 0.110667
H33   H     H_    0.871504 0.695531 0.471468 0.088067
H34   H     H_    0.911979 0.639632 0.990416 0.105878
H35   H     H_    0.940077 0.362918 0.489537 0.111882
H36   H     H_    0.856160 0.312398 0.983884 0.084026
H37   H     H_    0.371508 0.195529 0.471472 0.088065
H38   H     H_    0.411980 0.139632 0.990416 0.105878
H39   H     H_    0.440069 0.862917 0.489540 0.111877
H40   H     H_    0.356160 0.812398 0.983884 0.084027
H41   H     H_    0.236204 0.668311 0.458607 0.099556
H42   H     H_    0.227056 0.721631 0.076294 0.131293
H43   H     H_    0.240599 0.266386 0.580955 0.124488
H44   H     H_    0.219272 0.334259 0.958576 0.104191
H45   H     H_    0.736204 0.168316 0.458605 0.099559
H46   H     H_    0.727057 0.221632 0.076294 0.131293
H47   H     H_    0.740600 0.766396 0.580955 0.124492
H48   H     H_    0.719272 0.834259 0.958576 0.104190
H49   H     H_    0.738525 0.039097 0.442938 0.117746
H50   H     H_    0.744078 0.022805 0.068954 0.099682
H51   H     H_    0.742518 0.959680 0.545832 0.115229
H52   H     H_    0.743080 0.941346 0.971102 0.091877
H53   H     H_    0.238527 0.539092 0.442934 0.117744
H54   H     H_    0.244078 0.522806 0.068954 0.099682
H55   H     H_    0.242519 0.459678 0.545830 0.115241
H56   H     H_    0.243079 0.441346 0.971102 0.091877
H57   H     H_    0.547842 0.089755 0.410538 0.173339
H58   H     H_    0.558506 0.081967 0.094286 0.164092
H59   H     H_    0.555849 0.919800 0.592937 0.164738
H60   H     H_    0.552124 0.913717 0.910860 0.164900
H61   H     H_    0.047845 0.589754 0.410537 0.173340
H62   H     H_    0.058506 0.581967 0.094286 0.164092
H63   H     H_    0.055851 0.419802 0.592938 0.164743
H64   H     H_    0.052124 0.413717 0.910860 0.164899
O1    O     O_R   0.575450 0.828820 0.667950 -0.543183
O2    O     O_R   0.575450 0.828820 0.832050 -0.544674
O3    O     O_R   0.575450 0.171180 0.332050 -0.556465
O4    O     O_R   0.575450 0.171180 0.167950 -0.549254
O5    O     O_R   0.075450 0.328820 0.667950 -0.543183
O6    O     O_R   0.075450 0.328820 0.832050 -0.544674
O7    O     O_R   0.075450 0.671180 0.332050 -0.556466
O8    O     O_R   0.075450 0.671180 0.167950 -0.549254
O9    O     O_R   0.416860 0.942890 0.674680 -0.503367
O10   O     O_R   0.416860 0.942890 0.825320 -0.509013
O11   O     O_R   0.416860 0.057110 0.325320 -0.504957
O12   O     O_R   0.416860 0.057110 0.174680 -0.504967
O13   O     O_R   0.916860 0.442890 0.674680 -0.503366
O14   O     O_R   0.916860 0.442890 0.825320 -0.509012
O15   O     O_R   0.916860 0.557110 0.325320 -0.504959
O16   O     O_R   0.916860 0.557110 0.174680 -0.504967
O17   O     O_R   0.213790 0.953680 0.668330 -0.454326
O18   O     O_R   0.213790 0.953680 0.831670 -0.449095
O19   O     O_R   0.213790 0.046320 0.331670 -0.425284
O20   O     O_R   0.213790 0.046320 0.168330 -0.427820
O21   O     O_R   0.713790 0.453680 0.668330 -0.454327
O22   O     O_R   0.713790 0.453680 0.831670 -0.449095
O23   O     O_R   0.713790 0.546320 0.331670 -0.425283
O24   O     O_R   0.713790 0.546320 0.168330 -0.427820
O25   O     O_R   0.121360 0.817890 0.672660 -0.487682
O26   O     O_R   0.121360 0.817890 0.827340 -0.478485
O27   O     O_R   0.121360 0.182110 0.327340 -0.475539
O28   O     O_R   0.121360 0.182110 0.172660 -0.472353
O29   O     O_R   0.621360 0.317890 0.672660 -0.487682
O30   O     O_R   0.621360 0.317890 0.827340 -0.478486
O31   O     O_R   0.621360 0.682110 0.327340 -0.475539
O32   O     O_R   0.621360 0.682110 0.172660 -0.472353
O33   O     O_R   0.206850 0.711370 0.665820 -0.516832
O34   O     O_R   0.206850 0.711370 0.834180 -0.504353
O35   O     O_R   0.206850 0.288630 0.334180 -0.500991
O36   O     O_R   0.206850 0.288630 0.165820 -0.519680
O37   O     O_R   0.706850 0.211370 0.665820 -0.516832
O38   O     O_R   0.706850 0.211370 0.834180 -0.504354
O39   O     O_R   0.706850 0.788630 0.334180 -0.500986
O40   O     O_R   0.706850 0.788630 0.165820 -0.519679
O41   O     O_R   0.457710 0.733190 0.672630 -0.483234
O42   O     O_R   0.457710 0.733190 0.827370 -0.479558
O43   O     O_R   0.457710 0.266810 0.327370 -0.481208
O44   O     O_R   0.457710 0.266810 0.172630 -0.484049
O45   O     O_R   0.957710 0.233190 0.672630 -0.483234
O46   O     O_R   0.957710 0.233190 0.827370 -0.479558
O47   O     O_R   0.957710 0.766810 0.327370 -0.481211
O48   O     O_R   0.957710 0.766810 0.172630 -0.484048
O49   O     O_3   0.331690 0.831680 0.750000 -0.347774
O50   O     O_3   0.331690 0.168320 0.250000 -0.347247
O51   O     O_3   0.831690 0.331680 0.750000 -0.347774
O52   O     O_3   0.831690 0.668320 0.250000 -0.347246
C145  C     C_1   0.042132 0.630139 0.584235 0.213139
N1    N     N_1   0.026080 0.588770 0.626518 -0.254078
C146  C     C_1   0.175369 0.628422 0.939013 0.230481
N2    N     N_1   0.223651 0.585400 0.908801 -0.307598
C147  C     C_1   0.232211 0.358384 0.451600 0.222640
N3    N     N_1   0.307601 0.395202 0.430808 -0.296883
C148  C     C_1   0.027793 0.370619 0.093674 0.220276
N4    N     N_1   0.010110 0.410458 0.137161 -0.248963
C149  C     C_1   0.542130 0.130142 0.584232 0.213145
N5    N     N_1   0.526070 0.088776 0.626512 -0.254087
C150  C     C_1   0.675370 0.128422 0.939013 0.230481
N6    N     N_1   0.723653 0.085400 0.908801 -0.307599
C151  C     C_1   0.732176 0.858395 0.451587 0.222656
N7    N     N_1   0.807533 0.895221 0.430778 -0.296859
C152  C     C_1   0.527793 0.870618 0.093674 0.220276
N8    N     N_1   0.510110 0.910458 0.137161 -0.248961
O53   O     O_3   0.043810 0.089524 0.392213 -0.647001
H65   H     H_    0.952994 0.099286 0.387603 0.309016
O54   O     O_3   0.054440 0.093578 0.101092 -0.660518
H66   H     H_    0.966137 0.087921 0.116331 0.305817
O55   O     O_3   0.060281 0.903802 0.590110 -0.687101
H67   H     H_    0.979116 0.903065 0.615582 0.311464
O56   O     O_3   0.060852 0.899929 0.910327 -0.692953
H68   H     H_    0.971104 0.891998 0.898587 0.311029
O57   O     O_3   0.543811 0.589525 0.392213 -0.647001
H69   H     H_    0.452995 0.599287 0.387604 0.309015
O58   O     O_3   0.554440 0.593579 0.101092 -0.660518
H70   H     H_    0.466136 0.587921 0.116331 0.305817
O59   O     O_3   0.560281 0.403802 0.590109 -0.687097
H71   H     H_    0.479115 0.403064 0.615579 0.311465
O60   O     O_3   0.560852 0.399930 0.910327 -0.692955
H72   H     H_    0.471104 0.391999 0.898585 0.311030

loop_
_geom_bond_atom_site_label_1
_geom_bond_atom_site_label_2
_ccdc_geom_bond_type
C6    C32   S    
Cr1   O10   S    
C7    C29   S    
C119  C143  S    
C70   O60   S    
Cr4   O52   S    
O54   H66   S    
C120  C144  S    
C110  C118  S    
C36   C50   A    
O59   H71   S    
C4    O12   A    
C16   C144  S    
Cr8   O24   S    
C57   C59   A    
Cr1   O1    S    
C8    O24   A    
C58   C60   A    
C62   C70   A    
C61   C63   A    
C38   H62   S    
C62   C64   A    
Cr10  O43   S    
C23   C103  S    
C48   H56   S    
C49   C51   A    
C34   C42   A    
C84   O36   A    
C50   C52   A    
C23   C89   S    
C88   O32   A    
C97   C105  S    
C40   H64   S    
C144  C152  S    
C73   C75   A    
C42   C44   A    
C20   C132  S    
C21   C133  S    
C116  C140  S    
Cr3   O6    S    
Cr10  O35   S    
C45   C47   A    
C112  H8    S    
C46   C48   A    
C115  C123  S    
Cr2   O50   S    
C27   C57   A    
C87   O39   A    
C112  C120  S    
Cr11  O38   S    
C33   H57   S    
C29   C55   A    
C46   H54   S    
C30   C56   A    
C100  C124  S    
C15   C111  S    
Cr11  O51   S    
O60   H72   S    
C104  C128  S    
C12   C20   S    
C13   C21   S    
C85   C117  S    
C92   O44   A    
C63   C71   A    
C113  C137  S    
C36   C44   A    
C33   C51   A    
C80   H16   S    
C37   C45   A    
C130  C138  S    
C91   O43   A    
C39   C47   A    
C40   C48   A    
Cr9   O33   S    
C133  C141  S    
C139  C147  S    
C24   C90   S    
C15   H47   S    
C28   C58   A    
C67   O53   S    
C98   C106  S    
C33   C41   A    
C111  H7    S    
C10   C18   S    
C76   H12   S    
C95   O7    A    
C2    C28   S    
C32   C62   A    
C93   O5    A    
C134  H38   S    
C129  C137  S    
C126  C134  S    
Cr6   O19   S    
C68   O54   S    
C83   O27   A    
C10   C138  S    
C81   O33   A    
Cr10  O50   S    
C130  H34   S    
C96   O48   A    
C14   C142  S    
C85   O29   A    
Cr5   O26   S    
C47   H55   S    
C69   C77   A    
Cr4   O8    S    
Cr6   O50   S    
C71   C79   A    
C110  H6    S    
Cr6   O28   S    
C74   C76   A    
C96   O8    A    
C105  C113  S    
C124  H28   S    
C89   O1    A    
C78   C80   A    
C9    C105  S    
C66   C74   A    
C78   H14   S    
C124  C132  S    
C125  H29   S    
C20   C94   S    
C97   C121  S    
C59   C67   A    
C129  H33   S    
C35   C49   A    
C101  C125  S    
C35   C43   A    
C132  H36   S    
C24   C136  S    
C135  C143  S    
C6    O14   A    
C127  H31   S    
C84   C116  S    
C147  N3    T    
C1    O9    A    
C9    H41   S    
Cr7   O30   S    
Cr2   O11   S    
C100  C108  S    
C82   O26   A    
C83   C115  S    
C103  C127  S    
C73   H9    S    
C3    O11   A    
C104  C112  S    
C94   O6    A    
C1    O17   A    
C45   H53   S    
C71   O57   S    
C87   C119  S    
O55   H67   S    
Cr7   O21   S    
Cr2   O4    S    
C95   O47   A    
Cr12  O48   S    
C57   C65   A    
O53   H65   S    
C12   H44   S    
C15   C143  S    
C40   C54   A    
C102  H22   S    
C10   C106  S    
C67   C75   A    
C72   O58   S    
Cr8   O32   S    
C14   C110  S    
Cr1   O9    S    
C102  C126  S    
C68   C76   A    
C138  C146  S    
C84   O28   A    
Cr4   O15   S    
C85   O37   A    
C14   C22   S    
C72   C80   A    
C16   H48   S    
C36   H60   S    
C14   H46   S    
C114  C138  S    
C90   O42   A    
C38   C46   A    
C99   H19   S    
Cr10  O44   S    
C2    O10   A    
C37   C55   A    
Cr3   O14   S    
C38   C56   A    
C133  H37   S    
C150  N6    T    
C22   C92   S    
C6    O22   A    
C25   C59   A    
C17   C97   S    
C27   C49   A    
C119  C127  S    
C29   C63   A    
C30   C64   A    
C41   C43   A    
C31   C61   A    
C146  N2    T    
C37   H61   S    
Cr3   O5    S    
C109  C117  S    
Cr10  O36   S    
C11   C19   S    
C127  C135  S    
C136  H40   S    
C128  C136  S    
Cr11  O37   S    
C93   O45   A    
C101  C109  S    
C103  C111  S    
C79   H15   S    
C11   C139  S    
C86   O38   A    
Cr3   O51   S    
C9    C137  S    
C105  H1    S    
C100  H20   S    
C148  N4    T    
C12   C140  S    
C17   C95   S    
C13   C141  S    
C88   C120  S    
C19   C93   S    
Cr12  O39   S    
C77   C79   A    
Cr5   O25   S    
C32   C54   A    
C7    O15   A    
C43   H51   S    
C126  H30   S    
C97   H17   S    
Cr8   O23   S    
C35   H59   S    
C34   H58   S    
O56   H68   S    
Cr1   O2    S    
C83   O35   A    
C117  C141  S    
O58   H70   S    
C151  N7    T    
C142  C150  S    
C134  C142  S    
C152  N8    T    
C20   C100  S    
C92   O4    A    
Cr5   O18   S    
C4    O20   A    
C86   C118  S    
C141  C149  S    
C69   O59   S    
C8    O16   A    
C22   C134  S    
C143  C151  S    
Cr6   O20   S    
C102  C110  S    
C91   O3    A    
C74   H10   S    
C16   C112  S    
C121  H25   S    
C21   C91   S    
C39   H63   S    
C19   C99   S    
C116  C124  S    
C123  C131  S    
C128  H32   S    
C121  C129  S    
C4    C26   S    
C120  C128  S    
Cr12  O52   S    
C132  C140  S    
C99   C107  S    
C34   C52   A    
C23   C135  S    
C8    C30   S    
C108  C116  S    
Cr5   O49   S    
C136  C144  S    
C24   C104  S    
C39   C53   A    
C66   O56   S    
C42   H50   S    
C103  H23   S    
C11   H43   S    
Cr11  O46   S    
C101  H21   S    
C88   O40   A    
C135  H39   S    
C60   C68   A    
C81   C113  S    
Cr5   O17   S    
C82   O34   A    
C3    O19   A    
C86   O30   A    
Cr9   O34   S    
C70   C78   A    
C18   C96   S    
O57   H69   S    
Cr7   O29   S    
Cr2   O12   S    
C106  C114  S    
C111  C119  S    
C90   O2    A    
C98   H18   S    
C44   H52   S    
C65   C73   A    
Cr1   O49   S    
C5    C31   S    
C28   C50   A    
C58   C66   A    
C13   C109  S    
C21   C101  S    
C15   C23   S    
C12   C108  S    
C16   C24   S    
C5    O13   A    
C140  C148  S    
Cr4   O7    S    
C10   H42   S    
C53   C55   A    
C19   C131  S    
Cr6   O27   S    
C94   O46   A    
C54   C56   A    
C17   C129  S    
C81   O25   A    
C131  C139  S    
C82   C114  S    
C2    O18   A    
C149  N5    T    
C106  H2    S    
Cr4   O16   S    
C25   C51   A    
C26   C52   A    
C125  C133  S    
C145  N1    T    
C113  C121  S    
Cr11  O45   S    
C31   C53   A    
Cr9   O42   S    
C107  C115  S    
C98   C122  S    
Cr3   O13   S    
C9    C17   S    
C11   C107  S    
Cr9   O41   S    
C99   C123  S    
C61   C69   A    
Cr9   O49   S    
C115  C139  S    
C118  C142  S    
C107  H3    S    
C108  H4    S    
C131  H35   S    
C118  C126  S    
C22   C102  S    
C87   O31   A    
C109  H5    S    
Cr7   O22   S    
Cr2   O3    S    
Cr7   O51   S    
C104  H24   S    
Cr12  O47   S    
C26   C60   A    
Cr8   O52   S    
C137  C145  S    
C13   H45   S    
C64   C72   A    
C41   H49   S    
C18   C130  S    
C114  C122  S    
C65   O55   S    
C122  H26   S    
C3    C25   S    
C89   O41   A    
C77   H13   S    
C123  H27   S    
C7    O23   A    
C1    C27   S    
C75   H11   S    
C18   C98   S    
C5    O21   A    
C117  C125  S    
C122  C130  S    
Cr8   O31   S    
Cr12  O40   S    
