data_mof_unit_44230.cif
_audit_creation_date              2012-10-26T18:32:03-0400
_audit_creation_method            fapswitch 2.2
_symmetry_space_group_name_H-M    P1
_symmetry_Int_Tables_number       1
_space_group_crystal_system       triclinic
_cell_length_a                    12.426588
_cell_length_b                    13.319073
_cell_length_c                    14.282963
_cell_angle_alpha                 94.065874
_cell_angle_beta                  107.977331
_cell_angle_gamma                 117.107411
_cell_volume                      1938.09717923

loop_
_atom_site_label
_atom_site_type_symbol
_atom_type_description
_atom_site_fract_x
_atom_site_fract_y
_atom_site_fract_z
_atom_type_partial_charge
C1    C     C_R   0.652384 0.714526 0.511162 0.600579
C2    C     C_R   0.228905 0.531512 0.020747 0.060013
C3    C     C_R   0.160685 0.516430 0.086881 -0.002509
C4    C     C_R   0.618208 0.516633 0.686737 0.590328
C5    C     C_R   0.344868 0.526181 0.049824 0.381293
C6    C     C_R   0.394199 0.507153 0.144322 -0.090950
C7    C     C_R   0.205851 0.485540 0.176570 -0.104630
C8    C     C_R   0.153892 0.960896 0.385664 -0.084189
C9    C     C_R   0.254695 0.162548 0.471874 -0.009963
C10   C     C_R   0.751163 0.921211 0.598962 0.338395
C11   C     C_R   0.860311 0.031736 0.639188 -0.036900
C12   C     C_R   0.871126 0.535015 0.926949 -0.041488
C13   C     C_R   0.964824 0.063275 0.608840 0.324525
C14   C     C_R   0.955715 0.987737 0.527338 0.002636
C15   C     C_R   0.843324 0.874536 0.485676 -0.130701
C16   C     C_R   0.346204 0.285540 0.486104 0.528202
C17   C     C_R   0.055441 0.018716 0.487597 -0.001705
C18   C     C_R   0.050046 0.933195 0.418060 0.040867
C19   C     C_R   0.937254 0.824084 0.376322 0.395157
C20   C     C_R   0.832384 0.798478 0.404611 -0.059148
C21   C     C_R   0.155358 0.133890 0.508726 -0.080550
C22   C     C_R   0.257188 0.074998 0.414056 -0.142632
C23   C     C_R   0.812693 0.537015 0.997506 -0.018798
C24   C     C_R   0.745408 0.839032 0.527213 -0.005469
C25   C     C_R   0.258343 0.684761 0.665227 -0.103834
C26   C     C_R   0.653685 0.342197 0.361951 0.059968
C27   C     C_R   0.730466 0.308642 0.330395 -0.117856
C28   C     C_R   0.382370 0.484081 0.313460 0.518490
C29   C     C_R   0.866063 0.368457 0.381955 -0.066375
C30   C     C_R   0.928036 0.463705 0.466686 -0.004094
C31   C     C_R   0.845585 0.496518 0.496726 0.192341
C32   C     C_R   0.068627 0.527332 0.522654 -0.013863
C33   C     C_R   0.123567 0.621492 0.607325 -0.091283
C34   C     C_R   0.993202 0.538031 0.959479 -0.026795
C35   C     C_R   0.044549 0.653275 0.634823 -0.118712
C36   C     C_R   0.910680 0.594394 0.582203 0.386734
C37   C     C_R   0.158892 0.502582 0.499576 0.040901
C38   C     C_R   0.340602 0.655696 0.639207 0.572527
C39   C     C_R   0.684937 0.526336 0.794337 0.001909
C40   C     C_R   0.325267 0.488105 0.208461 -0.073099
C41   C     C_R   0.694274 0.537882 0.966557 -0.061705
C42   C     C_R   0.631623 0.533943 0.865882 -0.098694
C43   C     C_R   0.802935 0.525935 0.825012 -0.090301
C44   C     C_R   0.047960 0.529346 0.059843 -0.021991
C45   C     C_R   0.990426 0.538020 0.129886 0.391349
C46   C     C_R   0.873655 0.539392 0.098176 0.444757
C47   C     C_R   0.064189 0.553076 0.895797 -0.127717
C48   C     C_R   0.180649 0.551706 0.926698 -0.083401
Cu1   Cu    Cu3+1 0.416420 0.526630 0.522910 1.104042
Cu2   Cu    Cu3+1 0.583580 0.473370 0.477090 1.025680
F1    F     F_    0.819403 0.542323 0.166860 -0.550380
F2    F     F_    0.412369 0.542631 0.988111 -0.650412
F3    F     F_    0.925106 0.744274 0.303305 -0.562145
F4    F     F_    0.657332 0.892032 0.638038 -0.556543
F5    F     F_    0.076729 0.163267 0.666740 -0.643998
F6    F     F_    0.470862 0.715871 0.695848 -0.544592
F7    F     F_    0.853849 0.640735 0.621330 -0.619794
F8    F     F_    0.050982 0.556556 0.231512 -0.607902
H1    H     H_    0.333643 0.095858 0.384900 0.135686
H2    H     H_    0.148822 0.456815 0.222654 0.206186
H3    H     H_    0.087487 0.726321 0.699479 0.154411
H4    H     H_    0.299818 0.756351 0.730618 0.134874
H5    H     H_    0.126758 0.432663 0.436390 0.127330
H6    H     H_    0.487058 0.509358 0.167900 0.173504
H7    H     H_    0.232015 0.564970 0.875566 0.181461
H8    H     H_    0.649587 0.541265 0.020044 0.224807
H9    H     H_    0.540184 0.534209 0.843684 0.202492
H10   H     H_    0.837788 0.514648 0.767129 0.156716
H11   H     H_    0.152766 0.895590 0.334986 0.198565
H12   H     H_    0.867801 0.091301 0.699802 0.177320
H13   H     H_    0.742581 0.717701 0.361863 0.167967
H14   H     H_    0.548632 0.294987 0.321049 0.126662
H15   H     H_    0.920184 0.338295 0.353983 0.115798
H16   H     H_    0.684488 0.235629 0.265412 0.117822
H17   H     H_    0.035154 0.570935 0.822636 0.115214
H18   H     H_    0.151967 0.204260 0.546808 0.215707
N1    N     N_R   0.290690 0.566960 0.557640 -0.237242
N2    N     N_R   0.709100 0.433710 0.442970 -0.230590
O1    O     O_R   0.545970 0.684450 0.528810 -0.389675
O2    O     O_R   0.687130 0.639470 0.490120 -0.449823
O3    O     O_R   0.519670 0.535100 0.660030 -0.450663
O4    O     O_R   0.660830 0.490120 0.621340 -0.449012
O5    O     O_R   0.312870 0.360530 0.509880 -0.531448
O6    O     O_R   0.454030 0.315550 0.471190 -0.520503
O7    O     O_R   0.339170 0.509880 0.378660 -0.505359
O8    O     O_R   0.480330 0.464900 0.339970 -0.523780

loop_
_geom_bond_atom_site_label_1
_geom_bond_atom_site_label_2
_ccdc_geom_bond_type
C27   C29   A    
C26   H14   S    
C41   C42   A    
C19   C20   A    
C11   H12   S    
Cu2   O6    S    
C45   C46   A    
C21   H18   S    
C8    H11   S    
C26   N2    A    
C9    C16   S    
C12   C43   A    
C3    C7    A    
C5    C6    A    
C9    C22   A    
C29   H15   S    
C28   C40   S    
C6    H6    S    
C16   O6    A    
C18   C19   A    
Cu1   O3    S    
C4    O3    A    
C35   C36   A    
C43   H10   S    
C8    C22   A    
C7    C40   A    
C20   H13   S    
C48   H7    S    
C27   H16   S    
C19   F3    S    
C23   C46   A    
C13   C14   A    
C14   C17   A    
Cu2   N2    S    
C37   H5    S    
C39   C42   A    
C15   C20   A    
C45   F8    S    
C3    C44   A    
Cu1   O7    S    
C34   C44   A    
C36   F7    S    
C22   H1    S    
C39   C43   A    
C2    C48   A    
C37   N1    A    
C46   F1    S    
C16   O5    A    
C8    C18   A    
Cu1   O1    S    
C29   C30   A    
C25   C38   A    
C47   C48   A    
C12   C23   A    
C4    C39   S    
C17   C18   A    
C26   C27   A    
C38   F6    S    
C35   H3    S    
C32   C37   A    
C15   C24   A    
C28   O8    A    
C42   H9    S    
C1    O1    A    
C6    C40   A    
C2    C5    A    
C12   C34   A    
C7    H2    S    
C44   C45   A    
Cu2   O4    S    
C31   N2    A    
C5    F2    S    
C14   C15   A    
Cu2   O2    S    
C41   H8    S    
C38   N1    A    
C23   C41   A    
C10   C24   A    
C32   C33   A    
Cu1   O5    S    
C2    C3    A    
C47   H17   S    
C30   C32   A    
C11   C13   A    
C9    C21   A    
C30   C31   A    
C33   C35   A    
Cu1   N1    S    
C25   H4    S    
C10   F4    S    
C17   C21   A    
C10   C11   A    
Cu2   O8    S    
C4    O4    A    
C1    C24   S    
Cu1   Cu2   S    
C28   O7    A    
C1    O2    A    
C31   C36   A    
C34   C47   A    
C25   C33   A    
C13   F5    S    
