data_mof_unit_31633.cif
_audit_creation_date              2012-12-10T18:09:55-0500
_audit_creation_method            fapswitch 2.2
_symmetry_space_group_name_H-M    P1
_symmetry_Int_Tables_number       1
_space_group_crystal_system       triclinic
_cell_length_a                    10.716452
_cell_length_b                    12.737719
_cell_length_c                    13.076584
_cell_angle_alpha                 82.222971
_cell_angle_beta                  92.986274
_cell_angle_gamma                 102.51403
_cell_volume                      1726.0820464

loop_
_atom_site_label
_atom_site_type_symbol
_atom_type_description
_atom_site_fract_x
_atom_site_fract_y
_atom_site_fract_z
_atom_type_partial_charge
C1    C     C_R   0.485711 0.439084 0.691218 1.060129
C2    C     C_R   0.503331 0.440849 0.976713 -0.134372
C3    C     C_R   0.547079 0.456639 0.875067 -0.266327
C4    C     C_R   0.741517 0.500137 0.502238 1.174380
C5    C     C_R   0.555176 0.520311 0.041889 -0.043228
C6    C     C_R   0.670274 0.596038 0.014855 -0.330259
C7    C     C_R   0.727137 0.595271 0.921396 -0.038615
C8    C     C_R   0.665292 0.527524 0.851344 0.790408
C9    C     C_R   0.492781 0.530279 0.130303 0.677743
C10   C     C_R   0.670121 0.672341 0.175096 0.313363
C11   C     C_R   0.472542 0.398916 0.800919 -0.321272
C12   C     C_3   0.120932 0.499058 0.500761 -0.755240
C13   C     C_R   0.352950 0.100455 0.322345 0.480562
C14   C     C_R   0.655499 0.799045 0.630674 0.609469
C15   C     C_R   0.694683 0.903360 0.656467 0.488727
C16   C     C_R   0.519008 0.560787 0.308955 1.016396
C17   C     C_R   0.641879 0.986740 0.604716 0.536095
C18   C     C_R   0.546140 0.965328 0.526543 -0.231936
C19   C     C_R   0.512510 0.857249 0.500491 -0.222040
C20   C     C_R   0.484884 0.046055 0.471083 -0.013616
C21   C     C_R   0.406283 0.020736 0.382720 -0.379806
C22   C     C_R   0.375269 0.914968 0.359661 0.625456
C23   C     C_3   0.065324 0.503347 0.387027 0.704052
C24   C     C_R   0.425381 0.835543 0.417661 0.703936
C25   C     C_R   0.494330 0.150190 0.500621 0.072901
C26   C     C_R   0.361700 0.198522 0.357863 0.560624
C27   C     C_R   0.258183 0.499290 0.500176 1.155446
C28   C     C_3   0.905568 0.397932 0.576415 0.673119
C29   C     C_3   0.050557 0.396384 0.573172 0.784513
C30   C     C_3   0.918878 0.499744 0.388960 0.804398
C31   C     C_3   0.957933 0.605015 0.544516 1.018576
C32   C     C_3   0.878302 0.500039 0.503172 -0.751608
C33   C     C_3   0.100512 0.603231 0.545846 0.980865
C34   C     C_R   0.726250 0.671679 0.081377 0.762918
C35   C     C_R   0.555296 0.596342 0.201706 -0.419394
C36   C     C_R   0.374583 0.309105 0.832673 0.517544
C37   C     C_R   0.350410 0.278992 0.937100 0.542607
C38   C     C_R   0.413642 0.344216 0.009179 0.593634
F1    F     F_    0.831626 0.302595 0.546430 -0.613884
F2    F     F_    0.726274 0.524941 0.763949 -0.554305
F3    F     F_    0.286644 0.884064 0.285164 -0.504288
F4    F     F_    0.711691 0.720060 0.678744 -0.533527
F5    F     F_    0.693883 0.087841 0.627393 -0.561128
F6    F     F_    0.787433 0.924518 0.730075 -0.498688
F7    F     F_    0.382958 0.737796 0.388369 -0.550545
F8    F     F_    0.104059 0.401125 0.671992 -0.528135
F9    F     F_    0.936868 0.697483 0.482463 -0.501643
F10   F     F_    0.921974 0.612422 0.643163 -0.474533
F11   F     F_    0.150024 0.604933 0.646088 -0.540627
F12   F     F_    0.163677 0.697884 0.488664 -0.508306
F13   F     F_    0.894586 0.592338 0.329489 -0.494168
F14   F     F_    0.124406 0.601008 0.330722 -0.476560
F15   F     F_    0.836781 0.744163 0.056292 -0.515636
F16   F     F_    0.369111 0.479143 0.147488 -0.567324
F17   F     F_    0.302220 0.250805 0.762911 -0.514228
F18   F     F_    0.397732 0.305748 0.110360 -0.532946
F19   F     F_    0.262943 0.187600 0.968547 -0.491659
H1    H     H_    0.817756 0.649112 0.900880 0.262757
H2    H     H_    0.545548 0.176034 0.568636 0.246096
H3    H     H_    0.667887 0.771736 0.273420 0.356065
H4    H     H_    0.869826 0.331112 0.717971 0.425372
H5    H     H_    0.294049 0.327015 0.342747 0.382953
H6    H     H_    0.345097 0.052455 0.188557 0.388599
H7    H     H_    0.021474 0.283762 0.479065 0.369614
H8    H     H_    0.869381 0.343845 0.372644 0.376347
H9    H     H_    0.159093 0.446670 0.289383 0.424479
N1    N     N_R   0.433240 0.222190 0.444680 -0.240460
N2    N     N_R   0.566070 0.776970 0.554790 -0.186073
O1    O     O_R   0.468120 0.366740 0.627160 -0.585516
O2    O     O_3   0.871725 0.403437 0.677873 -0.588823
O3    O     O_3   0.299568 0.270856 0.300493 -0.579430
O4    O     O_3   0.291108 0.085541 0.228587 -0.529824
O5    O     O_3   0.069190 0.298174 0.544097 -0.588942
O6    O     O_3   0.844791 0.412029 0.342554 -0.658709
O7    O     O_3   0.088546 0.417398 0.338354 -0.758967
O8    O     O_R   0.510770 0.544830 0.662520 -0.568045
O9    O     O_R   0.663880 0.410950 0.482330 -0.574452
O10   O     O_R   0.706530 0.589040 0.517700 -0.510079
O11   O     O_R   0.489230 0.455170 0.337480 -0.608029
O12   O     O_R   0.531880 0.633260 0.372840 -0.588822
O13   O     O_R   0.293470 0.410960 0.482300 -0.626284
O14   O     O_R   0.336120 0.589050 0.517670 -0.500542
O15   O     O_3   0.732986 0.744801 0.239547 -0.566450
Zn1   Zn    Zn3+2 0.471520 0.381090 0.476390 1.086182
Zn2   Zn    Zn3+2 0.528480 0.618910 0.523610 1.162966

loop_
_geom_bond_atom_site_label_1
_geom_bond_atom_site_label_2
_ccdc_geom_bond_type
H4    O2    S    
C30   F13   S    
C26   O3    S    
C12   C29   S    
C25   N1    A    
C7    C8    A    
C4    O10   A    
C12   C23   S    
O12   Zn2   S    
C26   N1    A    
C28   C29   S    
C15   F6    S    
C16   C35   S    
O11   Zn1   S    
C30   O6    S    
H3    O15   S    
C22   F3    S    
C29   O5    S    
C20   C25   A    
C33   F11   S    
C10   O15   S    
C18   C19   A    
C1    C11   S    
H7    O5    S    
C31   C33   S    
C10   C35   A    
C7    H1    S    
C14   F4    S    
N1    Zn1   S    
C31   F9    S    
C21   C22   A    
N2    Zn2   S    
C12   C27   S    
C23   C30   S    
C28   C32   S    
C3    C8    A    
O9    Zn1   S    
C33   F12   S    
C1    O1    A    
H8    O6    S    
C6    C34   A    
C16   O12   A    
C11   C36   A    
C17   F5    S    
C5    C9    A    
C37   C38   A    
C2    C38   A    
C31   C32   S    
C27   O13   A    
C17   C18   A    
C13   C21   A    
C19   N2    A    
C10   C34   A    
H6    O4    S    
C4    C32   S    
O10   Zn2   S    
C31   F10   S    
C22   C24   A    
C13   C26   A    
C2    C5    A    
C24   F7    S    
O13   Zn1   S    
C9    C35   A    
C15   C17   A    
C36   C37   A    
C1    O8    A    
C27   O14   A    
C28   O2    S    
C23   O7    S    
C6    C7    A    
C13   O4    S    
O14   Zn2   S    
C8    F2    S    
C28   F1    S    
C29   F8    S    
C16   O11   A    
C2    C3    A    
C4    O9    A    
C36   F17   S    
C30   C32   S    
C23   F14   S    
C5    C6    A    
H9    O7    S    
H5    O3    S    
C19   C24   A    
C18   C20   A    
C3    C11   A    
C38   F18   S    
C20   C21   A    
C34   F15   S    
O1    Zn1   S    
C14   N2    A    
C14   C15   A    
C9    F16   S    
C25   H2    S    
C12   C33   S    
O8    Zn2   S    
C37   F19   S    
