data_mof_unit_31967.cif
_audit_creation_date              2012-12-10T20:41:55-0500
_audit_creation_method            fapswitch 2.2
_symmetry_space_group_name_H-M    P1
_symmetry_Int_Tables_number       1
_space_group_crystal_system       triclinic
_cell_length_a                    15.11463
_cell_length_b                    15.127249
_cell_length_c                    9.873712
_cell_angle_alpha                 89.808817
_cell_angle_beta                  90.609552
_cell_angle_gamma                 90.048147
_cell_volume                      2257.41182321

loop_
_atom_site_label
_atom_site_type_symbol
_atom_type_description
_atom_site_fract_x
_atom_site_fract_y
_atom_site_fract_z
_atom_type_partial_charge
C1    C     C_R   0.379313 0.880926 0.499490 0.884988
C2    C     C_R   0.382226 0.121872 0.499006 0.882541
C3    C     C_R   0.879313 0.380926 0.499490 0.884988
C4    C     C_R   0.882227 0.621872 0.499006 0.882541
C5    C     C_3   0.328921 0.247763 0.747601 -0.525560
C6    C     C_3   0.374097 0.698633 0.658320 -0.524629
C7    C     C_3   0.828910 0.747752 0.747610 -0.525555
C8    C     C_3   0.874101 0.198630 0.658309 -0.524645
C9    C     C_R   0.424046 0.017982 0.070732 0.157162
C10   C     C_R   0.924044 0.517975 0.070732 0.157159
C11   C     C_R   0.575897 0.989008 0.073163 -0.130261
C12   C     C_R   0.075899 0.489019 0.073163 -0.130255
C13   C     C_R   0.576135 0.990112 0.929315 -0.115122
C14   C     C_R   0.076137 0.490124 0.929315 -0.115114
C15   C     C_R   0.423674 0.016898 0.927753 0.182057
C16   C     C_R   0.923672 0.516890 0.927753 0.182058
C17   C     C_3   0.340147 0.962625 0.927903 0.184587
C18   C     C_3   0.840150 0.462610 0.927903 0.184589
C19   C     C_3   0.339787 0.967718 0.082132 -0.614294
C20   C     C_3   0.839789 0.467703 0.082132 -0.614297
C21   C     C_R   0.619443 0.120366 0.500533 0.865710
C22   C     C_R   0.619327 0.879389 0.500558 0.872503
C23   C     C_R   0.119443 0.620366 0.500533 0.865708
C24   C     C_R   0.119327 0.379389 0.500558 0.872501
C25   C     C_R   0.320881 0.256100 0.597324 0.091200
C26   C     C_R   0.304649 0.760470 0.607536 0.129489
C27   C     C_R   0.820876 0.756096 0.597333 0.091202
C28   C     C_R   0.804651 0.260469 0.607535 0.129500
C29   C     C_R   0.323373 0.194371 0.493357 -0.085366
C30   C     C_R   0.309534 0.818855 0.499814 -0.078520
C31   C     C_R   0.823376 0.694373 0.493357 -0.085370
C32   C     C_R   0.809533 0.318856 0.499814 -0.078521
C33   C     C_R   0.268324 0.204617 0.379177 -0.233202
C34   C     C_R   0.243818 0.819935 0.399002 -0.239901
C35   C     C_R   0.768333 0.704627 0.379170 -0.233205
C36   C     C_R   0.743818 0.319935 0.399002 -0.239903
C37   C     C_R   0.701455 0.766557 0.381615 -0.236543
C38   C     C_R   0.678988 0.255120 0.400387 -0.226813
C39   C     C_R   0.201446 0.266547 0.381623 -0.236539
C40   C     C_R   0.178987 0.755120 0.400388 -0.226815
C41   C     C_R   0.688606 0.816559 0.499090 -0.107010
C42   C     C_R   0.680473 0.191127 0.503501 -0.103764
C43   C     C_R   0.188605 0.316558 0.499090 -0.107004
C44   C     C_R   0.180473 0.691128 0.503501 -0.103764
C45   C     C_R   0.751193 0.813100 0.603551 0.065412
C46   C     C_R   0.739034 0.198402 0.612860 0.066953
C47   C     C_R   0.251199 0.313106 0.603543 0.065405
C48   C     C_R   0.239032 0.698404 0.612860 0.066956
C49   C     C_3   0.747981 0.807691 0.755648 -0.210189
C50   C     C_3   0.801148 0.129986 0.671140 -0.212676
C51   C     C_3   0.247993 0.307704 0.755641 -0.210191
C52   C     C_3   0.301143 0.629990 0.671150 -0.212679
H1    H     H_    0.272847 0.161248 0.292357 0.167965
H2    H     H_    0.244181 0.868553 0.318292 0.156076
H3    H     H_    0.772863 0.661265 0.292344 0.167970
H4    H     H_    0.744181 0.368553 0.318292 0.156078
H5    H     H_    0.286064 0.009010 0.124671 0.186044
H6    H     H_    0.348909 0.902816 0.133431 0.214817
H7    H     H_    0.786063 0.508991 0.124670 0.186045
H8    H     H_    0.848916 0.402803 0.133431 0.214818
H9    H     H_    0.657073 0.771509 0.295218 0.165227
H10   H     H_    0.629805 0.253329 0.319810 0.156589
H11   H     H_    0.157057 0.271493 0.295233 0.165224
H12   H     H_    0.129803 0.753331 0.319813 0.156589
H13   H     H_    0.763364 0.872176 0.803755 0.148619
H14   H     H_    0.809382 0.072121 0.603017 0.137735
H15   H     H_    0.263379 0.372190 0.803739 0.148613
H16   H     H_    0.309379 0.572122 0.603032 0.137732
H17   H     H_    0.390300 0.279656 0.786789 0.185711
H18   H     H_    0.423467 0.682042 0.579618 0.182347
H19   H     H_    0.890287 0.779644 0.786808 0.185712
H20   H     H_    0.923468 0.182043 0.579603 0.182348
H21   H     H_    0.318827 0.179261 0.784384 0.222688
H22   H     H_    0.403221 0.721653 0.755565 0.230300
H23   H     H_    0.818815 0.679248 0.784384 0.222686
H24   H     H_    0.903226 0.221647 0.755554 0.230300
H25   H     H_    0.636540 0.976838 0.128753 0.157168
H26   H     H_    0.136543 0.476856 0.128753 0.157171
H27   H     H_    0.637418 0.980284 0.876041 0.158242
H28   H     H_    0.137421 0.480303 0.876041 0.158244
N1    N     N_R   0.499140 1.000000 0.142800 -0.102519
N2    N     N_R   0.999140 0.500000 0.142800 -0.102521
N3    N     N_R   0.499160 1.000000 0.857150 -0.116052
N4    N     N_R   0.999160 0.500000 0.857150 -0.116051
O1    O     O_R   0.408400 0.908380 0.614690 -0.579711
O2    O     O_R   0.408400 0.091620 0.614690 -0.613082
O3    O     O_R   0.908400 0.408380 0.614690 -0.579707
O4    O     O_R   0.908400 0.591620 0.614690 -0.613084
O5    O     O_R   0.408370 0.908370 0.385350 -0.630849
O6    O     O_R   0.408370 0.091630 0.385350 -0.623548
O7    O     O_R   0.908370 0.408370 0.385350 -0.630850
O8    O     O_R   0.908370 0.591630 0.385350 -0.623549
O9    O     O_R   0.591610 0.091610 0.614650 -0.619879
O10   O     O_R   0.591610 0.908390 0.614650 -0.617179
O11   O     O_R   0.091610 0.591610 0.614650 -0.619881
O12   O     O_R   0.091610 0.408390 0.614650 -0.617175
O13   O     O_R   0.591590 0.091600 0.385310 -0.624275
O14   O     O_R   0.591590 0.908400 0.385310 -0.631749
O15   O     O_R   0.091590 0.591600 0.385310 -0.624275
O16   O     O_R   0.091590 0.408400 0.385310 -0.631748
Zn1   Zn    Zn3+2 0.500010 1.000000 0.653130 0.966604
Zn2   Zn    Zn3+2 0.000010 0.500000 0.653130 0.966606
Zn3   Zn    Zn3+2 0.499980 1.000000 0.346870 0.931559
Zn4   Zn    Zn3+2 0.999980 0.500000 0.346870 0.931558
C53   C     C_R   0.669686 0.759729 0.817021 0.215880
C54   C     C_R   0.629592 0.686122 0.754075 -0.142203
C55   C     C_R   0.562919 0.639066 0.819858 -0.182067
C56   C     C_R   0.534718 0.665503 0.947730 -0.137795
C57   C     C_R   0.573966 0.738129 0.010955 -0.163883
C58   C     C_R   0.642282 0.783840 0.947198 -0.158727
H29   H     H_    0.651217 0.663535 0.656031 0.143804
H30   H     H_    0.532974 0.582153 0.771525 0.140210
H31   H     H_    0.482888 0.629521 0.998431 0.158811
H32   H     H_    0.552180 0.758251 0.110198 0.136513
H33   H     H_    0.675220 0.836990 0.000663 0.115074
C59   C     C_R   0.787264 0.105346 0.818477 0.207646
C60   C     C_R   0.735768 0.157226 0.906026 -0.147199
C61   C     C_R   0.736230 0.140271 0.045282 -0.157063
C62   C     C_R   0.786350 0.070558 0.098405 -0.124943
C63   C     C_R   0.834929 0.016688 0.012027 -0.199248
C64   C     C_R   0.836291 0.034628 0.873069 -0.212622
H34   H     H_    0.697080 0.212238 0.867978 0.124744
H35   H     H_    0.697667 0.181246 0.112034 0.142119
H36   H     H_    0.786477 0.057554 0.206296 0.137749
H37   H     H_    0.873259 0.962267 0.053085 0.139502
H38   H     H_    0.877441 0.994652 0.808294 0.124370
C65   C     C_R   0.169699 0.259745 0.817024 0.215884
C66   C     C_R   0.129602 0.186136 0.754090 -0.142199
C67   C     C_R   0.062925 0.139090 0.819878 -0.182068
C68   C     C_R   0.034723 0.165539 0.947744 -0.137808
C69   C     C_R   0.073975 0.238167 0.010959 -0.163887
C70   C     C_R   0.142297 0.283868 0.947197 -0.158712
H39   H     H_    0.151227 0.163541 0.656050 0.143808
H40   H     H_    0.032976 0.082176 0.771554 0.140212
H41   H     H_    0.982888 0.129566 0.998448 0.158808
H42   H     H_    0.052187 0.258300 0.110195 0.136517
H43   H     H_    0.175237 0.337019 0.000654 0.115075
C71   C     C_R   0.287254 0.605357 0.818485 0.207667
C72   C     C_R   0.235764 0.657249 0.906025 -0.147199
C73   C     C_R   0.236224 0.640302 0.045280 -0.157061
C74   C     C_R   0.286336 0.570586 0.098411 -0.124924
C75   C     C_R   0.334908 0.516705 0.012042 -0.199278
C76   C     C_R   0.336271 0.534636 0.873084 -0.212634
H44   H     H_    0.197084 0.712265 0.867972 0.124740
H45   H     H_    0.197666 0.681287 0.112026 0.142110
H46   H     H_    0.286461 0.557589 0.206302 0.137753
H47   H     H_    0.373232 0.462282 0.053107 0.139505
H48   H     H_    0.377416 0.494650 0.808315 0.124366
N5    N     N_3   0.265483 0.007459 0.861427 -0.426725
H49   H     H_    0.208562 0.969612 0.877159 0.181865
H50   H     H_    0.254325 0.068200 0.908503 0.172997
N6    N     N_3   0.352502 0.872762 0.876902 -0.391588
H51   H     H_    0.407561 0.843686 0.924288 0.185212
H52   H     H_    0.297515 0.835316 0.904780 0.169963
N7    N     N_3   0.765482 0.507437 0.861426 -0.426725
H53   H     H_    0.754319 0.568178 0.908500 0.172998
H54   H     H_    0.708563 0.469587 0.877160 0.181865
N8    N     N_3   0.852513 0.372747 0.876903 -0.391589
H55   H     H_    0.797527 0.335297 0.904776 0.169967
H56   H     H_    0.907572 0.343675 0.924294 0.185211

loop_
_geom_bond_atom_site_label_1
_geom_bond_atom_site_label_2
_ccdc_geom_bond_type
C23   O15   A    
C53   C58   A    
C13   H27   S    
C6    H18   S    
C22   O14   A    
O12   Zn2   S    
N7    H54   S    
N4    Zn2   S    
C55   H30   S    
C68   H41   S    
C14   N4    A    
O7    Zn4   S    
C66   C67   A    
N5    H49   S    
C62   H36   S    
C11   N1    A    
C28   C46   A    
C33   C39   A    
C49   H13   S    
C2    C29   S    
C18   N8    S    
C32   C36   A    
C35   C37   A    
C38   C42   A    
C71   C76   A    
N5    H50   S    
C7    H19   S    
C22   C41   S    
C54   C55   A    
O14   Zn3   S    
C29   C33   A    
C8    H24   S    
C7    C27   S    
C56   C57   A    
C25   C29   A    
C3    O7    A    
C42   C46   A    
C2    O6    A    
C61   C62   A    
C5    H17   S    
C11   H25   S    
C65   C70   A    
C37   C41   A    
C9    C19   S    
O16   Zn4   S    
O10   Zn1   S    
C10   C20   S    
C12   H26   S    
C52   C71   S    
C55   C56   A    
C14   H28   S    
C20   H8    S    
C25   C47   A    
C40   C44   A    
C50   C59   S    
C52   H16   S    
O11   Zn2   S    
C26   C48   A    
C27   C45   A    
O15   Zn4   S    
O5    Zn3   S    
N8    H56   S    
C22   O10   A    
C6    H22   S    
C54   H29   S    
C19   H6    S    
C33   H1    S    
C76   H48   S    
C8    H20   S    
C59   C64   A    
C30   C34   A    
C27   C31   A    
C28   C32   A    
C73   C74   A    
C7    C49   S    
C69   H42   S    
O9    Zn1   S    
C63   H37   S    
C7    H23   S    
C70   H43   S    
C3    O3    A    
C10   N2    A    
C16   N4    A    
C19   H5    S    
C23   C44   S    
C67   H40   S    
N2    Zn4   S    
C38   H10   S    
C56   H31   S    
C60   H34   S    
C36   H4    S    
O3    Zn2   S    
C21   O13   A    
C72   H44   S    
O4    Zn2   S    
C45   C49   S    
C72   C73   A    
C12   N2    A    
C51   H15   S    
C20   H7    S    
C50   H14   S    
C35   H3    S    
O13   Zn3   S    
C74   H46   S    
C5    C25   S    
C57   H32   S    
C12   C14   A    
C34   H2    S    
C49   C53   S    
N8    H55   S    
C8    C28   S    
C31   C35   A    
C1    O1    A    
C65   C66   A    
C8    C50   S    
O1    Zn1   S    
C63   C64   A    
C67   C68   A    
N1    Zn3   S    
C15   C17   S    
C13   N3    A    
C1    O5    A    
C37   H9    S    
N3    Zn1   S    
C24   O16   A    
C75   H47   S    
C17   N5    S    
N6    H52   S    
C73   H45   S    
C47   C51   S    
C62   C63   A    
C26   C30   A    
C4    O4    A    
C39   H11   S    
C53   C54   A    
C46   C50   S    
C60   C61   A    
C40   H12   S    
C51   C65   S    
C24   O12   A    
C68   C69   A    
C9    C15   A    
C64   H38   S    
C10   C16   A    
C66   H39   S    
C11   C13   A    
C6    C26   S    
C21   O9    A    
C15   N3    A    
C36   C38   A    
C1    C30   S    
C17   C19   S    
C23   O11   A    
C59   C60   A    
C2    O2    A    
C18   C20   S    
C61   H35   S    
C5    H21   S    
C3    C32   S    
O6    Zn3   S    
C4    C31   S    
C71   C72   A    
O8    Zn4   S    
C21   C42   S    
C17   N6    S    
C44   C48   A    
C48   C52   S    
N6    H51   S    
C39   C43   A    
C16   C18   S    
C57   C58   A    
N7    H53   S    
C24   C43   S    
C41   C45   A    
C75   C76   A    
C34   C40   A    
C6    C52   S    
C74   C75   A    
O2    Zn1   S    
C43   C47   A    
C58   H33   S    
C18   N7    S    
C69   C70   A    
C9    N1    A    
C5    C51   S    
C4    O8    A    
