data_mof_unit_51717.cif
_audit_creation_date              2012-12-11T15:20:04-0500
_audit_creation_method            fapswitch 2.2
_symmetry_space_group_name_H-M    P1
_symmetry_Int_Tables_number       1
_space_group_crystal_system       triclinic
_cell_length_a                    16.647737
_cell_length_b                    16.642738
_cell_length_c                    42.832181
_cell_angle_alpha                 90.067183
_cell_angle_beta                  89.918523
_cell_angle_gamma                 120.133186
_cell_volume                      10263.5093795

loop_
_atom_site_label
_atom_site_type_symbol
_atom_type_description
_atom_site_fract_x
_atom_site_fract_y
_atom_site_fract_z
_atom_type_partial_charge
C1    C     C_R   0.583393 0.426608 0.794511 0.567654
C2    C     C_R   0.843732 0.417009 0.705536 0.564401
C3    C     C_R   0.574100 0.158554 0.794870 0.566951
C4    C     C_R   0.583753 0.426353 0.705265 0.577260
C5    C     C_R   0.843212 0.416602 0.794600 0.557566
C6    C     C_R   0.573379 0.156763 0.705399 0.567451
C7    C     C_R   0.425546 0.584933 0.295159 0.566687
C8    C     C_R   0.416536 0.843100 0.205361 0.561348
C9    C     C_R   0.159184 0.574291 0.295102 0.566534
C10   C     C_R   0.426615 0.583377 0.205498 0.568978
C11   C     C_R   0.415148 0.840844 0.295093 0.564560
C12   C     C_R   0.158636 0.574131 0.205110 0.569236
C13   C     C_R   0.082807 0.500793 0.121497 0.269500
C14   C     C_R   0.401473 0.895805 0.380169 0.295772
C15   C     C_R   0.483429 0.587718 0.120599 0.270402
C16   C     C_R   0.104803 0.505732 0.380157 0.295424
C17   C     C_R   0.421252 0.954507 0.127242 0.286334
C18   C     C_R   0.493017 0.599798 0.380416 0.295890
C19   C     C_R   0.473095 0.040715 0.627113 0.289429
C20   C     C_R   0.956120 0.421689 0.872368 0.288815
C21   C     C_R   0.568371 0.525211 0.626614 0.273873
C22   C     C_R   0.500723 0.081832 0.878421 0.269278
C23   C     C_R   0.966901 0.435874 0.628590 0.291010
C24   C     C_R   0.588303 0.482739 0.879482 0.270737
C25   C     C_R   0.113799 0.500054 0.152007 0.225754
C26   C     C_R   0.378537 0.878807 0.348383 0.256304
C27   C     C_R   0.491384 0.616725 0.151580 0.248477
C28   C     C_R   0.121587 0.499773 0.348352 0.256051
C29   C     C_R   0.403010 0.931172 0.159276 0.216520
C30   C     C_R   0.499291 0.622402 0.348577 0.256209
C31   C     C_R   0.478398 0.078104 0.657012 0.263413
C32   C     C_R   0.932468 0.403603 0.840371 0.217616
C33   C     C_R   0.602925 0.518498 0.656039 0.268249
C34   C     C_R   0.499975 0.113144 0.847956 0.225783
C35   C     C_R   0.930921 0.405306 0.658722 0.263553
C36   C     C_R   0.617092 0.491001 0.848465 0.248976
C37   C     C_R   0.070718 0.614355 0.167347 -0.179338
C38   C     C_R   0.535297 0.911704 0.336795 -0.151104
C39   C     C_R   0.402602 0.456450 0.168200 -0.186240
C40   C     C_R   0.088631 0.623535 0.336930 -0.150383
C41   C     C_R   0.524316 0.890985 0.159985 -0.167717
C42   C     C_R   0.375502 0.465260 0.337107 -0.150665
C43   C     C_R   0.622172 0.077714 0.666548 -0.167857
C44   C     C_R   0.891428 0.524344 0.839976 -0.168273
C45   C     C_R   0.454653 0.379638 0.667205 -0.167711
C46   C     C_R   0.614126 0.070064 0.832443 -0.180052
C47   C     C_R   0.916482 0.542508 0.665641 -0.164421
C48   C     C_R   0.456759 0.402522 0.831965 -0.186756
C49   C     C_R   0.036586 0.612108 0.137408 0.167245
C50   C     C_R   0.559589 0.933075 0.368144 0.196724
C51   C     C_R   0.412484 0.427370 0.138332 0.175479
C52   C     C_R   0.067277 0.626315 0.368299 0.196473
C53   C     C_R   0.545014 0.917158 0.128821 0.157254
C54   C     C_R   0.372285 0.441283 0.368507 0.196832
C55   C     C_R   0.617101 0.040563 0.636917 0.177314
C56   C     C_R   0.917990 0.544976 0.871104 0.156852
C57   C     C_R   0.421735 0.384111 0.637730 0.177639
C58   C     C_R   0.611899 0.035631 0.862331 0.167421
C59   C     C_R   0.953504 0.573786 0.635976 0.175807
C60   C     C_R   0.427925 0.412240 0.861897 0.175167
C61   C     C_R   0.043324 0.555923 0.114340 0.219275
C62   C     C_R   0.492328 0.922601 0.390094 0.210275
C63   C     C_R   0.449340 0.492629 0.113604 0.175922
C64   C     C_R   0.077792 0.569527 0.390159 0.210732
C65   C     C_R   0.492136 0.946746 0.112101 0.224955
C66   C     C_R   0.428909 0.508848 0.390435 0.210830
C67   C     C_R   0.544726 0.025290 0.616603 0.198227
C68   C     C_R   0.948114 0.492255 0.887661 0.224259
C69   C     C_R   0.479359 0.454686 0.616884 0.203116
C70   C     C_R   0.555832 0.042249 0.885468 0.219205
C71   C     C_R   0.975214 0.518945 0.616802 0.200864
C72   C     C_R   0.493326 0.448782 0.886581 0.175612
C73   C     C_R   0.892978 0.450541 0.824785 -0.065686
C74   C     C_R   0.555839 0.100957 0.676454 -0.066814
C75   C     C_R   0.551523 0.441579 0.825038 -0.054704
C76   C     C_R   0.900291 0.456208 0.676799 -0.067758
C77   C     C_R   0.559818 0.110327 0.825065 -0.054251
C78   C     C_R   0.546152 0.443616 0.676195 -0.050837
C79   C     C_R   0.444483 0.882210 0.326630 -0.066106
C80   C     C_R   0.110783 0.559942 0.174845 -0.053879
C81   C     C_R   0.437050 0.556048 0.326833 -0.065317
C82   C     C_R   0.450269 0.892379 0.175063 -0.063476
C83   C     C_R   0.118037 0.562263 0.326669 -0.065696
C84   C     C_R   0.441704 0.551301 0.175031 -0.054726
C85   C     C_R   0.064702 0.622755 0.030817 0.030545
C86   C     C_R   0.572311 0.043877 0.466442 0.029770
C87   C     C_R   0.382158 0.389532 0.033077 0.026530
C88   C     C_R   0.956184 0.524034 0.466529 0.029326
C89   C     C_R   0.597952 0.044285 0.034308 0.036476
C90   C     C_R   0.470291 0.428633 0.466656 0.029772
C91   C     C_R   0.585714 0.072928 0.531568 0.032220
C92   C     C_R   0.045742 0.597843 0.965446 0.036618
C93   C     C_R   0.485048 0.413711 0.531752 0.027150
C94   C     C_R   0.622879 0.063356 0.968937 0.030399
C95   C     C_R   0.927418 0.506602 0.531653 0.032723
C96   C     C_R   0.390424 0.381379 0.967153 0.026555
C97   C     C_R   0.078048 0.629778 0.063307 0.442889
C98   C     C_R   0.559793 0.027775 0.434155 0.427894
C99   C     C_R   0.378073 0.400249 0.065638 0.442114
C100  C     C_R   0.972315 0.528851 0.434224 0.426996
C101  C     C_R   0.582435 0.035564 0.066746 0.481392
C102  C     C_R   0.466925 0.441629 0.434392 0.427758
C103  C     C_R   0.586668 0.085732 0.563975 0.485059
C104  C     C_R   0.037027 0.582388 0.933006 0.481578
C105  C     C_R   0.496492 0.412019 0.564157 0.489394
C106  C     C_R   0.629870 0.076776 0.936448 0.443088
C107  C     C_R   0.914873 0.494591 0.564056 0.486479
C108  C     C_R   0.401096 0.377395 0.934583 0.442081
C109  C     C_R   0.937947 0.483035 0.070706 0.487503
C110  C     C_R   0.488266 0.862852 0.442403 0.478459
C111  C     C_R   0.538033 0.521054 0.065426 0.483931
C112  C     C_R   0.136798 0.626450 0.442451 0.479470
C113  C     C_R   0.438828 0.892033 0.059325 0.423539
C114  C     C_R   0.373282 0.512456 0.442905 0.477421
C115  C     C_R   0.520983 0.921608 0.572564 0.427292
C116  C     C_R   0.893732 0.438539 0.940440 0.423168
C117  C     C_R   0.397979 0.477145 0.573014 0.427615
C118  C     C_R   0.483227 0.936566 0.929066 0.487449
C119  C     C_R   0.078079 0.598835 0.572613 0.424476
C120  C     C_R   0.522310 0.537216 0.934847 0.483736
C121  C     C_R   0.922684 0.473611 0.038320 0.034561
C122  C     C_R   0.501017 0.876493 0.474850 0.016070
C123  C     C_R   0.537015 0.525903 0.032808 0.016481
C124  C     C_R   0.123033 0.624843 0.474909 0.016611
C125  C     C_R   0.450728 0.900140 0.026784 0.020495
C126  C     C_R   0.373979 0.499223 0.475341 0.015044
C127  C     C_R   0.517296 0.905908 0.540141 0.029770
C128  C     C_R   0.901822 0.450396 0.972981 0.020674
C129  C     C_R   0.386311 0.481484 0.540602 0.028741
C130  C     C_R   0.473896 0.921167 0.961447 0.034746
C131  C     C_R   0.093666 0.610681 0.540195 0.031141
C132  C     C_R   0.527189 0.535976 0.967460 0.016403
C133  C     C_R   0.988522 0.542374 0.018259 -0.036804
C134  C     C_R   0.541223 0.967508 0.486907 -0.035079
C135  C     C_R   0.459323 0.457795 0.016578 -0.044354
C136  C     C_R   0.032306 0.571230 0.486982 -0.035123
C137  C     C_R   0.530495 0.977060 0.014257 -0.031951
C138  C     C_R   0.424737 0.459056 0.487251 -0.036223
C139  C     C_R   0.548645 0.982155 0.519587 -0.030647
C140  C     C_R   0.978604 0.530269 0.985503 -0.031854
C141  C     C_R   0.431539 0.450890 0.519915 -0.036861
C142  C     C_R   0.542589 0.987051 0.981501 -0.036740
C143  C     C_R   0.017746 0.563281 0.519660 -0.030103
C144  C     C_R   0.458861 0.458350 0.983671 -0.044373
C145  C     C_R   0.127325 0.692560 0.010561 -0.136077
C146  C     C_R   0.612385 0.134220 0.478747 -0.125674
C147  C     C_R   0.310014 0.315671 0.016346 -0.127267
C148  C     C_R   0.866174 0.470672 0.478852 -0.125785
C149  C     C_R   0.679692 0.117658 0.021454 -0.124004
C150  C     C_R   0.520482 0.388560 0.478817 -0.124772
C151  C     C_R   0.618688 0.148541 0.510891 -0.121403
C152  C     C_R   0.118987 0.679663 0.978295 -0.124083
C153  C     C_R   0.528036 0.381485 0.510939 -0.121429
C154  C     C_R   0.692609 0.126036 0.989187 -0.135954
C155  C     C_R   0.852022 0.461666 0.510996 -0.121258
C156  C     C_R   0.316389 0.309335 0.983868 -0.127232
C157  C     C_R   0.844723 0.396008 0.025487 -0.122626
C158  C     C_R   0.472414 0.801366 0.495543 -0.146628
C159  C     C_R   0.609103 0.599922 0.016215 -0.136229
C160  C     C_R   0.197813 0.673438 0.495590 -0.144856
C161  C     C_R   0.385503 0.832381 0.006523 -0.154705
C162  C     C_R   0.327130 0.527101 0.496170 -0.145285
C163  C     C_R   0.480557 0.815862 0.527761 -0.147805
C164  C     C_R   0.834151 0.385047 0.993248 -0.154382
C165  C     C_R   0.333015 0.518155 0.528367 -0.142931
C166  C     C_R   0.396436 0.843041 0.974284 -0.122705
C167  C     C_R   0.183302 0.666739 0.527810 -0.143603
C168  C     C_R   0.601377 0.607797 0.984063 -0.136312
Cr1   Cr    Cr6+3 0.530290 0.262330 0.750000 1.028986
Cr2   Cr    Cr6+3 0.732040 0.469710 0.750000 1.017597
Cr3   Cr    Cr6+3 0.737670 0.267960 0.750000 1.044027
Cr4   Cr    Cr6+3 0.262330 0.530290 0.250000 1.027135
Cr5   Cr    Cr6+3 0.469710 0.732040 0.250000 1.019934
Cr6   Cr    Cr6+3 0.267960 0.737670 0.250000 1.039082
H1    H     H_    0.772555 0.325309 0.984200 0.150592
H2    H     H_    0.456140 0.756051 0.542955 0.157590
H3    H     H_    0.656186 0.667373 0.972014 0.182951
H4    H     H_    0.242818 0.704143 0.543002 0.158851
H5    H     H_    0.343706 0.790222 0.959440 0.170842
H6    H     H_    0.297243 0.541875 0.543667 0.158287
H7    H     H_    0.442200 0.730914 0.486882 0.165326
H8    H     H_    0.791959 0.343190 0.040332 0.170746
H9    H     H_    0.286898 0.557268 0.487636 0.164827
H10   H     H_    0.325871 0.770664 0.015576 0.150889
H11   H     H_    0.268011 0.715804 0.486916 0.165759
H12   H     H_    0.668760 0.654549 0.028274 0.182956
H13   H     H_    0.865205 0.563371 0.828034 0.203628
H14   H     H_    0.681243 0.093116 0.681170 0.180294
H15   H     H_    0.405656 0.368782 0.813689 0.146276
H16   H     H_    0.895625 0.583812 0.679262 0.177490
H17   H     H_    0.660106 0.067247 0.815112 0.168853
H18   H     H_    0.410019 0.322383 0.682412 0.172642
H19   H     H_    0.586825 0.915189 0.320529 0.163105
H20   H     H_    0.067795 0.660405 0.184626 0.168907
H21   H     H_    0.327611 0.413438 0.320868 0.162996
H22   H     H_    0.563542 0.865205 0.172053 0.202954
H23   H     H_    0.085124 0.671586 0.320723 0.164183
H24   H     H_    0.368673 0.405460 0.186506 0.146478
H25   H     H_    0.169832 0.734136 0.963435 0.166954
H26   H     H_    0.648166 0.219026 0.519500 0.162844
H27   H     H_    0.261972 0.249559 0.971794 0.164305
H28   H     H_    0.781857 0.418363 0.519618 0.163156
H29   H     H_    0.757005 0.182210 0.980058 0.155461
H30   H     H_    0.568973 0.351996 0.519426 0.164528
H31   H     H_    0.637181 0.194084 0.463561 0.163620
H32   H     H_    0.183416 0.757018 0.019682 0.155146
H33   H     H_    0.555786 0.364284 0.463533 0.164580
H34   H     H_    0.734079 0.168581 0.036310 0.166857
H35   H     H_    0.806520 0.433961 0.463673 0.163825
H36   H     H_    0.250091 0.261377 0.028407 0.164289
N1    N     N_R   0.016778 0.558650 0.082580 -0.342692
N2    N     N_R   0.515569 0.937999 0.422730 -0.365103
N3    N     N_R   0.456029 0.466454 0.081656 -0.355581
N4    N     N_R   0.061985 0.576902 0.422788 -0.364494
N5    N     N_R   0.503977 0.959628 0.078791 -0.341150
N6    N     N_R   0.421245 0.485625 0.423094 -0.365144
N7    N     N_R   0.552041 0.010244 0.583863 -0.356471
N8    N     N_R   0.961198 0.503851 0.920967 -0.341310
N9    N     N_R   0.455679 0.446326 0.584205 -0.348417
N10   N     N_R   0.558720 0.015534 0.917192 -0.342748
N11   N     N_R   0.990067 0.538734 0.583931 -0.354620
N12   N     N_R   0.467428 0.455354 0.918581 -0.355733
O1    O     O_R   0.509640 0.171340 0.784000 -0.479773
O2    O     O_R   0.661700 0.490360 0.716000 -0.473785
O3    O     O_R   0.828660 0.338300 0.784000 -0.458996
O4    O     O_R   0.509640 0.171340 0.716000 -0.475471
O5    O     O_R   0.661700 0.490360 0.784000 -0.485321
O6    O     O_R   0.828660 0.338300 0.716000 -0.469448
O7    O     O_R   0.171340 0.509640 0.284000 -0.482456
O8    O     O_R   0.490360 0.661700 0.216000 -0.483316
O9    O     O_R   0.338300 0.828660 0.284000 -0.482317
O10   O     O_R   0.171340 0.509640 0.216000 -0.477957
O11   O     O_R   0.490360 0.661700 0.284000 -0.482536
O12   O     O_R   0.338300 0.828660 0.216000 -0.456500
O13   O     O_R   0.539230 0.345420 0.781810 -0.492759
O14   O     O_R   0.806190 0.460770 0.718190 -0.499960
O15   O     O_R   0.654580 0.193810 0.781810 -0.502092
O16   O     O_R   0.539230 0.345420 0.718190 -0.500042
O17   O     O_R   0.806190 0.460770 0.781810 -0.506441
O18   O     O_R   0.654580 0.193810 0.718190 -0.496531
O19   O     O_R   0.345420 0.539230 0.281810 -0.494016
O20   O     O_R   0.460770 0.806190 0.218190 -0.506218
O21   O     O_R   0.193810 0.654580 0.281810 -0.491914
O22   O     O_R   0.345420 0.539230 0.218190 -0.492745
O23   O     O_R   0.460770 0.806190 0.281810 -0.493216
O24   O     O_R   0.193810 0.654580 0.218190 -0.502347
O25   O     O_3   0.666667 0.333333 0.750000 -0.242065
O26   O     O_3   0.333333 0.666667 0.250000 -0.242415
O27   O     O_2   0.145814 0.697473 0.074447 -0.520981
O28   O     O_2   0.585737 0.093241 0.416175 -0.502116
O29   O     O_2   0.304672 0.353282 0.079373 -0.500750
O30   O     O_2   0.907064 0.488120 0.416230 -0.503019
O31   O     O_2   0.638707 0.095041 0.084338 -0.467886
O32   O     O_2   0.506693 0.416221 0.416318 -0.502229
O33   O     O_2   0.617325 0.163978 0.574622 -0.436881
O34   O     O_2   0.096389 0.638807 0.915406 -0.468131
O35   O     O_2   0.543819 0.381115 0.574660 -0.434731
O36   O     O_2   0.697548 0.144577 0.925297 -0.519605
O37   O     O_2   0.837124 0.444256 0.574718 -0.436318
O38   O     O_2   0.353948 0.304075 0.920826 -0.500805
O39   O     O_2   0.882569 0.423049 0.088371 -0.469489
O40   O     O_2   0.451905 0.784287 0.431607 -0.400594
O41   O     O_2   0.610645 0.568695 0.079569 -0.458783
O42   O     O_2   0.215193 0.670791 0.431634 -0.401803
O43   O     O_2   0.370945 0.824349 0.070450 -0.541137
O44   O     O_2   0.331054 0.548726 0.432248 -0.402328
O45   O     O_2   0.494309 0.856497 0.590720 -0.518771
O46   O     O_2   0.826153 0.370567 0.929320 -0.541230
O47   O     O_2   0.358628 0.502518 0.591261 -0.533210
O48   O     O_2   0.423262 0.881193 0.911407 -0.469882
O49   O     O_2   0.142760 0.640063 0.590768 -0.528695
O50   O     O_2   0.570117 0.609898 0.920738 -0.458992
Br1   Br    Br    0.903911 0.640083 0.891331 -0.461032
Br2   Br    Br    0.716134 0.021448 0.623488 -0.440372
Br3   Br    Br    0.301103 0.381949 0.866751 -0.454394
Br4   Br    Br    0.963376 0.686767 0.620848 -0.471903
Br5   Br    Br    0.688641 0.983030 0.871256 -0.460612
Br6   Br    Br    0.301386 0.286338 0.625307 -0.488086
Br7   Br    Br    0.683653 0.969981 0.380912 -0.500150
Br8   Br    Br    0.984188 0.688948 0.128328 -0.461317
Br9   Br    Br    0.285105 0.317059 0.381341 -0.501513
Br10  Br    Br    0.640516 0.903366 0.108778 -0.460919
Br11  Br    Br    0.030297 0.713258 0.381220 -0.497554
Br12  Br    Br    0.381942 0.300390 0.133631 -0.457442
O51   O     O_3   0.159100 0.451242 0.158109 -0.542485
C169  C     C_3   0.092355 0.357104 0.163316 0.021896
H37   H     H_    0.049558 0.324898 0.142087 0.186632
H38   H     H_    0.045885 0.349877 0.183190 0.135007
C170  C     C_3   0.142213 0.304328 0.171347 -0.347202
H39   H     H_    0.184626 0.333939 0.192758 0.158299
H40   H     H_    0.090656 0.230000 0.175516 0.104505
H41   H     H_    0.188353 0.309444 0.151757 0.206849
O52   O     O_3   0.288112 0.849265 0.339439 -0.489702
C171  C     C_3   0.282709 0.927742 0.329931 0.019086
H42   H     H_    0.337340 0.970406 0.312424 0.121081
H43   H     H_    0.290059 0.972225 0.350330 0.130153
C172  C     C_3   0.188689 0.895747 0.314919 -0.346468
H44   H     H_    0.132394 0.856944 0.332112 0.194998
H45   H     H_    0.184690 0.956939 0.306748 0.092948
H46   H     H_    0.178827 0.850057 0.294633 0.162249
O53   O     O_3   0.548828 0.709441 0.158849 -0.518541
C173  C     C_3   0.640135 0.724712 0.162552 0.052585
H47   H     H_    0.672826 0.732061 0.139262 0.214281
H48   H     H_    0.641313 0.667015 0.175485 0.122091
C174  C     C_3   0.699212 0.813098 0.181248 -0.362547
H49   H     H_    0.665074 0.810013 0.203860 0.157703
H50   H     H_    0.768196 0.820559 0.186001 0.112431
H51   H     H_    0.710188 0.874964 0.168017 0.185254
O54   O     O_3   0.151010 0.438906 0.339316 -0.490316
C175  C     C_3   0.072431 0.354686 0.329863 0.020115
H52   H     H_    0.030027 0.366444 0.312282 0.124554
H53   H     H_    0.027749 0.317792 0.350259 0.129524
C176  C     C_3   0.104181 0.292271 0.315008 -0.347266
H54   H     H_    0.142582 0.274863 0.332297 0.194257
H55   H     H_    0.042923 0.226873 0.306832 0.094946
H56   H     H_    0.150150 0.327910 0.294753 0.159603
O55   O     O_3   0.335161 0.941073 0.174420 -0.547100
C177  C     C_3   0.376655 0.031445 0.187104 0.010366
H57   H     H_    0.406431 0.084907 0.168322 0.185775
H58   H     H_    0.432322 0.043245 0.204049 0.124923
C178  C     C_3   0.303165 0.042983 0.204345 -0.350831
H59   H     H_    0.273004 0.991406 0.223563 0.156402
H60   H     H_    0.334901 0.113995 0.214381 0.111268
H61   H     H_    0.246998 0.032518 0.187984 0.172832
O56   O     O_3   0.560408 0.712815 0.339528 -0.490001
C179  C     C_3   0.644632 0.718485 0.330229 0.020900
H62   H     H_    0.632952 0.663354 0.312989 0.123926
H63   H     H_    0.681711 0.712131 0.350779 0.130865
C180  C     C_3   0.706739 0.812100 0.314871 -0.346624
H64   H     H_    0.724156 0.868941 0.331805 0.194436
H65   H     H_    0.772132 0.816195 0.306827 0.096016
H66   H     H_    0.670896 0.821049 0.294459 0.159562
O57   O     O_3   0.413864 0.103587 0.665131 -0.478475
C181  C     C_3   0.339035 0.028292 0.680606 0.015033
H67   H     H_    0.362939 0.008734 0.702073 0.121613
H68   H     H_    0.303777 0.966517 0.665110 0.124099
C182  C     C_3   0.268545 0.056467 0.690093 -0.336335
H69   H     H_    0.242274 0.074913 0.669057 0.195365
H70   H     H_    0.209196 0.997906 0.702315 0.089207
H71   H     H_    0.301410 0.117379 0.706007 0.159215
O58   O     O_3   0.942699 0.336098 0.825109 -0.545585
C183  C     C_3   0.030727 0.379103 0.810611 0.012733
H72   H     H_    0.087070 0.409830 0.828407 0.182652
H73   H     H_    0.038729 0.434331 0.794059 0.118609
C184  C     C_3   0.040938 0.306596 0.792167 -0.354101
H74   H     H_    0.986035 0.275351 0.774016 0.155351
H75   H     H_    0.109983 0.339556 0.780609 0.103150
H76   H     H_    0.034702 0.251028 0.808050 0.173943
O59   O     O_3   0.696263 0.575375 0.663098 -0.489457
C185  C     C_3   0.717196 0.667912 0.668128 0.035165
H77   H     H_    0.655685 0.673976 0.675008 0.092259
H78   H     H_    0.748420 0.708729 0.646560 0.193744
C186  C     C_3   0.789397 0.711361 0.693909 -0.351745
H79   H     H_    0.852227 0.707544 0.687785 0.174698
H80   H     H_    0.809571 0.785440 0.696896 0.102578
H81   H     H_    0.760578 0.674559 0.716320 0.158420
O60   O     O_3   0.451210 0.158548 0.841956 -0.542222
C187  C     C_3   0.357109 0.091856 0.836712 0.021532
H82   H     H_    0.324845 0.048896 0.857914 0.186446
H83   H     H_    0.349916 0.045513 0.816800 0.133153
C188  C     C_3   0.304416 0.141834 0.828731 -0.347125
H84   H     H_    0.334101 0.184416 0.807349 0.158587
H85   H     H_    0.230117 0.090320 0.824535 0.104090
H86   H     H_    0.309497 0.187855 0.848357 0.206883
O61   O     O_3   0.916575 0.320119 0.668694 -0.480137
C189  C     C_3   0.994491 0.334913 0.686326 0.010265
H87   H     H_    0.005552 0.380642 0.706829 0.115529
H88   H     H_    0.058477 0.366827 0.671747 0.122492
C190  C     C_3   0.978398 0.242030 0.698338 -0.339965
H89   H     H_    0.968796 0.195277 0.678405 0.185226
H90   H     H_    0.039199 0.252735 0.712280 0.086750
H91   H     H_    0.915487 0.208935 0.713360 0.161666
O62   O     O_3   0.709739 0.548497 0.841142 -0.518268
C191  C     C_3   0.724956 0.639831 0.837489 0.052425
H92   H     H_    0.732215 0.672393 0.860796 0.214160
H93   H     H_    0.667289 0.641029 0.824561 0.121398
C192  C     C_3   0.813359 0.699078 0.818817 -0.363573
H94   H     H_    0.810381 0.665054 0.796191 0.156350
H95   H     H_    0.820762 0.768075 0.814090 0.112204
H96   H     H_    0.875179 0.710052 0.832061 0.185219
O63   O     O_3   0.089249 0.446257 0.098338 -0.544012
C193  C     C_3   0.180176 0.491871 0.085903 -0.002083
H97   H     H_    0.226853 0.479547 0.101186 0.186322
H98   H     H_    0.209326 0.568284 0.083257 0.142711
C194  C     C_3   0.178253 0.452308 0.053690 -0.344795
H99   H     H_    0.132084 0.464079 0.037987 0.157014
H100  H     H_    0.249247 0.486935 0.043556 0.101450
H101  H     H_    0.152086 0.376550 0.055372 0.197273
O64   O     O_3   0.330572 0.873091 0.401492 -0.476618
C195  C     C_3   0.337992 0.954090 0.414970 0.000292
H102  H     H_    0.373443 0.016564 0.399606 0.122213
H103  H     H_    0.376252 0.969115 0.437374 0.145490
C196  C     C_3   0.241000 0.936476 0.422237 -0.328266
H104  H     H_    0.204813 0.876235 0.438287 0.192711
H105  H     H_    0.245634 0.998745 0.433542 0.113182
H106  H     H_    0.200114 0.921476 0.400382 0.191845
O65   O     O_3   0.515986 0.654383 0.097356 -0.492519
C197  C     C_3   0.439253 0.653589 0.083030 0.014004
H107  H     H_    0.413011 0.689743 0.098225 0.182942
H108  H     H_    0.381558 0.581909 0.078152 0.088115
C198  C     C_3   0.469174 0.703554 0.051866 -0.316976
H109  H     H_    0.497063 0.669742 0.036536 0.154357
H110  H     H_    0.408155 0.699818 0.040123 0.118171
H111  H     H_    0.523414 0.777260 0.055324 0.207841
O66   O     O_3   0.128160 0.458100 0.401412 -0.477812
C199  C     C_3   0.047626 0.383924 0.414984 0.000537
H112  H     H_    0.984640 0.356850 0.399899 0.124014
H113  H     H_    0.033378 0.406767 0.437624 0.146038
C200  C     C_3   0.065494 0.304515 0.421699 -0.327748
H114  H     H_    0.126368 0.328657 0.437426 0.194386
H115  H     H_    0.003701 0.246561 0.433162 0.113735
H116  H     H_    0.079543 0.278806 0.399605 0.191836
O67   O     O_3   0.373880 0.989053 0.110451 -0.539376
C201  C     C_3   0.277577 0.923609 0.109395 0.060413
H117  H     H_    0.241483 0.938343 0.128453 0.187671
H118  H     H_    0.261469 0.850129 0.111499 0.203677
C202  C     C_3   0.238318 0.933334 0.078486 -0.326495
H119  H     H_    0.272239 0.918470 0.058754 0.180317
H120  H     H_    0.162432 0.883474 0.077624 0.158316
H121  H     H_    0.250447 0.005012 0.075998 0.168454
O68   O     O_3   0.541026 0.671034 0.401659 -0.476795
C203  C     C_3   0.614367 0.663952 0.415384 -0.000059
H122  H     H_    0.641779 0.628597 0.400174 0.123012
H123  H     H_    0.590532 0.625795 0.437805 0.144255
C204  C     C_3   0.693754 0.761109 0.422691 -0.329212
H124  H     H_    0.669242 0.797297 0.438534 0.192067
H125  H     H_    0.751095 0.756719 0.434246 0.112417
H126  H     H_    0.720407 0.801863 0.400822 0.192606
O69   O     O_3   0.404738 0.033325 0.606900 -0.501541
C205  C     C_3   0.339880 0.938751 0.600909 -0.005489
H127  H     H_    0.332255 0.891654 0.620659 0.128598
H128  H     H_    0.360699 0.915755 0.579641 0.157858
C206  C     C_3   0.245148 0.928254 0.594582 -0.333302
H129  H     H_    0.249287 0.971207 0.574148 0.177927
H130  H     H_    0.193863 0.854352 0.589520 0.159524
H131  H     H_    0.221263 0.950918 0.615246 0.174154
O70   O     O_3   0.991138 0.374428 0.888971 -0.536609
C207  C     C_3   0.925807 0.278067 0.890092 0.060841
H132  H     H_    0.940317 0.242006 0.870963 0.189172
H133  H     H_    0.852272 0.261830 0.888142 0.202225
C208  C     C_3   0.936010 0.238855 0.920946 -0.327215
H134  H     H_    0.921451 0.272818 0.940739 0.180010
H135  H     H_    0.886167 0.162949 0.921862 0.157332
H136  H     H_    0.007704 0.250990 0.923280 0.169586
O71   O     O_3   0.627993 0.590951 0.605364 -0.515521
C209  C     C_3   0.601424 0.658531 0.600178 -0.013983
H137  H     H_    0.640295 0.718120 0.616227 0.138953
H138  H     H_    0.526284 0.633002 0.603967 0.162508
C210  C     C_3   0.625614 0.694029 0.566813 -0.333457
H139  H     H_    0.587107 0.636089 0.550099 0.148817
H140  H     H_    0.606426 0.748116 0.562652 0.135102
H141  H     H_    0.701339 0.724702 0.562771 0.184823
O72   O     O_3   0.446267 0.088102 0.901649 -0.544097
C211  C     C_3   0.491840 0.179007 0.914110 -0.002031
H142  H     H_    0.479426 0.225725 0.898872 0.186662
H143  H     H_    0.568245 0.208200 0.916714 0.142180
C212  C     C_3   0.452374 0.176940 0.946354 -0.344850
H144  H     H_    0.464236 0.130737 0.962019 0.156989
H145  H     H_    0.486983 0.247929 0.956501 0.101646
H146  H     H_    0.376624 0.150723 0.944717 0.197151
O73   O     O_3   0.980242 0.376389 0.609458 -0.502207
C213  C     C_3   0.076150 0.411885 0.604214 -0.003073
H147  H     H_    0.121340 0.457590 0.623429 0.130650
H148  H     H_    0.096960 0.451521 0.582030 0.160068
C214  C     C_3   0.094006 0.331207 0.600722 -0.326798
H149  H     H_    0.052027 0.285534 0.581180 0.180037
H150  H     H_    0.168654 0.358107 0.595672 0.177065
H151  H     H_    0.075103 0.289924 0.622602 0.178620
O74   O     O_3   0.655086 0.514908 0.902667 -0.492100
C215  C     C_3   0.654125 0.437884 0.916854 0.014040
H152  H     H_    0.690169 0.411725 0.901569 0.182756
H153  H     H_    0.582425 0.380202 0.921708 0.087943
C216  C     C_3   0.704094 0.467333 0.948017 -0.316987
H154  H     H_    0.670239 0.494908 0.963467 0.154030
H155  H     H_    0.700453 0.406129 0.959609 0.118265
H156  H     H_    0.777752 0.521706 0.944585 0.208179

loop_
_geom_bond_atom_site_label_1
_geom_bond_atom_site_label_2
_ccdc_geom_bond_type
C132  C144  A    
C203  H123  S    
C19   O69   S    
O60   C187  S    
C71   N11   S    
C60   Br3   S    
C180  H65   S    
C204  H124  S    
C21   O71   S    
C197  C198  S    
C2    C76   S    
C154  H29   S    
Cr4   O10   S    
Cr6   O26   S    
C53   Br10  S    
O74   C215  S    
C216  H156  S    
C100  N4    Am   
C193  H97   S    
C159  H12   S    
C47   C76   A    
C112  C124  A    
C213  H148  S    
C33   C78   A    
C21   C33   A    
C40   H23   S    
C60   C72   A    
C214  H151  S    
C103  O33   D    
C187  C188  S    
C212  H144  S    
C192  H96   S    
C201  C202  S    
C90   C138  A    
C86   C134  A    
C210  H140  S    
C33   O59   S    
C120  N12   Am   
C28   O54   S    
C26   O52   S    
C48   C60   A    
C45   C78   A    
C14   O64   S    
C155  H28   S    
C169  C170  S    
C190  H91   S    
C96   C108  A    
C28   C83   A    
C201  H118  S    
C40   C83   A    
Cr6   O12   S    
C186  H80   S    
C182  H69   S    
C188  H86   S    
C175  H53   S    
C2    O6    A    
C11   O23   A    
C114  N6    Am   
C99   O29   D    
C183  H72   S    
C58   C70   A    
C208  H136  S    
C97   O27   D    
C99   N3    Am   
C49   Br8   S    
O57   C181  S    
C138  C141  A    
Cr3   O25   S    
C20   O70   S    
C101  O31   D    
O71   C209  S    
C4    C78   S    
C96   C144  A    
C162  C165  A    
C15   C27   A    
C206  H131  S    
C45   C57   A    
C7    O19   A    
C179  C180  S    
C88   C148  A    
C14   C26   A    
C184  H76   S    
C48   H15   S    
C11   C79   S    
C9    C83   S    
Cr2   O2    S    
C39   H24   S    
Cr1   O16   S    
O63   C193  S    
C1    O13   A    
C212  H146  S    
C199  H113  S    
C157  H8    S    
C116  N8    Am   
C3    C77   S    
C182  H71   S    
C131  C143  A    
Cr6   O24   S    
C44   C73   A    
C209  H138  S    
C177  C178  S    
C89   C101  A    
C15   O65   S    
C20   C68   A    
C5    C73   S    
C111  N3    Am   
C91   C103  A    
C183  C184  S    
C46   C77   A    
C117  O47   D    
C119  O49   D    
C196  H104  S    
C120  O50   D    
C38   H19   S    
C161  H10   S    
C93   C153  A    
C162  H9    S    
C4    O2    A    
O66   C199  S    
C169  H38   S    
C181  C182  S    
C109  C121  A    
C96   C156  A    
C123  C159  A    
C101  N5    Am   
C41   C82   A    
C124  C160  A    
C5    O3    A    
C117  N9    Am   
C185  H77   S    
C205  H128  S    
C85   C97   A    
C92   C104  A    
C47   C59   A    
C29   C82   A    
C167  H4    S    
Cr3   O6    S    
C178  H59   S    
C38   C79   A    
C21   C69   A    
C62   N2    S    
Cr1   O4    S    
C200  H114  S    
C109  N1    Am   
C110  C122  A    
C194  H100  S    
C39   C51   A    
C137  C142  A    
O59   C185  S    
C24   O74   S    
C46   H17   S    
C90   C150  A    
C198  H109  S    
O69   C205  S    
C24   C36   A    
C27   C84   A    
C85   C145  A    
C39   C84   A    
C65   N5    S    
C136  C143  A    
C114  O44   D    
C114  C126  A    
C176  H55   S    
C14   C62   A    
C128  C164  A    
C164  H1    S    
C107  O37   D    
C37   C80   A    
C191  H92   S    
C90   C102  A    
C177  H58   S    
C207  H132  S    
C105  N9    Am   
C119  C131  A    
C211  H142  S    
C148  C155  A    
C112  N4    Am   
C147  H36   S    
C53   C65   A    
C209  C210  S    
C57   Br6   S    
C131  C167  A    
C46   C58   A    
C172  H45   S    
C42   H21   S    
C42   C81   A    
C160  H11   S    
C146  H31   S    
C156  H27   S    
C149  H34   S    
C202  H120  S    
C121  C133  A    
C22   C34   A    
C196  H106  S    
C173  H48   S    
C35   C76   A    
C94   C142  A    
C195  H103  S    
C134  C139  A    
C181  H67   S    
C31   C74   A    
C56   C68   A    
C63   N3    S    
C123  C135  A    
C191  C192  S    
O52   C171  S    
C36   C75   A    
C189  C190  S    
C58   Br5   S    
C189  H88   S    
C178  H61   S    
C59   Br4   S    
C211  C212  S    
C170  H39   S    
C200  H116  S    
C187  H83   S    
C157  C164  A    
C41   C53   A    
C204  H125  S    
C158  C163  A    
Cr5   O26   S    
C43   C55   A    
C7    C81   S    
C3    O15   A    
C118  N10   Am   
C203  H122  S    
C197  H108  S    
C51   Br12  S    
C9    O21   A    
C198  H111  S    
C24   C72   A    
C20   C32   A    
C2    O14   A    
C55   Br2   S    
C3    O1    A    
Cr1   O13   S    
C151  H26   S    
C110  N2    Am   
C116  O46   D    
C215  C216  S    
Cr4   O7    S    
C16   O66   S    
C54   C66   A    
C216  H155  S    
C35   O61   S    
C15   C63   A    
C47   H16   S    
C128  C140  A    
O65   C197  S    
C32   O58   S    
C213  C214  S    
C12   O24   A    
C214  H150  S    
C25   O51   S    
C130  C142  A    
C158  H7    S    
C192  H95   S    
C145  C152  A    
Cr5   O8    S    
C44   H13   S    
C146  C151  A    
Cr4   O22   S    
C203  C204  S    
C210  H139  S    
C4    O16   A    
C179  H63   S    
C22   C70   A    
O70   C207  S    
C190  H90   S    
C8    O12   A    
C106  N10   Am   
Cr2   O17   S    
C95   C143  A    
O67   C201  S    
C25   C80   A    
C17   C29   A    
C19   C31   A    
C186  H79   S    
C36   O62   S    
C188  H85   S    
O68   C203  S    
C87   C147  A    
C17   O67   S    
C8    C82   S    
C34   C77   A    
C171  H42   S    
C183  H73   S    
C208  H135  S    
C129  C141  A    
Cr3   O18   S    
C168  H3    S    
C170  H41   S    
C180  H64   S    
C189  H87   S    
Cr5   O20   S    
C126  C138  A    
Cr5   O11   S    
C206  H130  S    
C150  C153  A    
C19   C67   A    
C184  H75   S    
C97   N1    Am   
C54   Br9   S    
C89   C149  A    
Cr2   O5    S    
C212  H145  S    
O72   C211  S    
C86   C146  A    
C182  H70   S    
C115  O45   D    
C6    C74   S    
C215  H152  S    
C102  N6    Am   
C49   C61   A    
C124  C136  A    
C111  C123  A    
C87   C135  A    
C67   N7    S    
C51   C63   A    
C88   C136  A    
C171  C172  S    
C52   C64   A    
C98   O28   D    
C213  H147  S    
C185  C186  S    
C125  C137  A    
O73   C213  S    
Cr2   O14   S    
C152  H25   S    
C102  O32   D    
C207  C208  S    
C149  C154  A    
O51   C169  S    
C118  C130  A    
C23   C71   A    
C207  H133  S    
C37   C49   A    
C44   C56   A    
C45   H18   S    
C210  H141  S    
C10   O22   A    
C185  H78   S    
C147  C156  A    
C205  C206  S    
C104  N8    Am   
C88   C100  A    
C95   C107  A    
C91   C139  A    
C89   C137  A    
C201  H117  S    
Cr2   O25   S    
C18   C66   A    
C109  O39   D    
C92   C140  A    
C186  H81   S    
C93   C141  A    
C194  H99   S    
Cr5   O23   S    
C175  H52   S    
C105  O35   D    
C5    O17   A    
C69   N9    S    
C17   C65   A    
O53   C173  S    
O61   C189  S    
C195  H102  S    
Cr3   O15   S    
C26   C79   A    
C193  C194  S    
C129  C165  A    
C13   O63   S    
C37   H20   S    
C30   C81   A    
C42   C54   A    
C52   Br11  S    
C27   O53   S    
C176  H54   S    
C98   N2    Am   
C43   H14   S    
C6    O4    A    
C31   O57   S    
C181  H68   S    
O56   C179  S    
C86   C98   A    
C191  H93   S    
C133  C140  A    
C174  H49   S    
C56   Br1   S    
C199  H112  S    
C170  H40   S    
C211  H143  S    
C148  H35   S    
C85   C133  A    
C175  C176  S    
C16   C28   A    
C91   C151  A    
C7    O11   A    
C209  H137  S    
C172  H44   S    
C119  N11   Am   
C195  C196  S    
C202  H119  S    
Cr1   O1    S    
O54   C175  S    
C196  H105  S    
C173  C174  S    
C64   N4    S    
C150  H33   S    
C41   H22   S    
C10   O8    A    
C169  H37   S    
C215  H153  S    
C113  C125  A    
Cr4   O26   S    
C30   O56   S    
C115  C127  A    
C159  C168  A    
C9    O7    A    
C61   N1    S    
C160  C167  A    
C130  C166  A    
C205  H127  S    
C93   C105  A    
C122  C134  A    
Cr3   O3    S    
C178  H60   S    
C199  C200  S    
C92   C152  A    
C18   C30   A    
C200  H115  S    
Cr6   O9    S    
C161  C166  A    
C194  H101  S    
C1    O5    A    
C43   C74   A    
C121  C157  A    
C66   N6    S    
C48   C75   A    
C13   C25   A    
O55   C177  S    
C127  C139  A    
C163  H2    S    
C145  H32   S    
C198  H110  S    
C12   O10   A    
C87   C99   A    
C122  C158  A    
C1    C75   S    
C32   C73   A    
C176  H56   S    
C172  H46   S    
C174  H50   S    
C216  H154  S    
C40   C52   A    
C6    O18   A    
C50   Br7   S    
C70   N10   S    
C179  H62   S    
C127  C163  A    
C68   N8    S    
C177  H57   S    
C108  N12   Am   
C22   O72   S    
C11   O9    A    
C8    O20   A    
C94   C154  A    
C174  H51   S    
C72   N12   S    
C214  H149  S    
Cr1   O25   S    
C111  O41   D    
C192  H94   S    
Cr6   O21   S    
C103  N7    Am   
C135  C144  A    
C112  O42   D    
Cr4   O19   S    
C50   C62   A    
C180  H66   S    
C108  O38   D    
C113  N5    Am   
C202  H121  S    
C117  C129  A    
C106  O36   D    
C190  H89   S    
C173  H47   S    
C94   C106  A    
C193  H98   S    
C120  C132  A    
C132  C168  A    
C100  O30   D    
C55   C67   A    
C38   C50   A    
C29   O55   S    
C188  H84   S    
C23   C35   A    
C104  O34   D    
C57   C69   A    
C153  H30   S    
O62   C191  S    
C23   O73   S    
C171  H43   S    
C208  H134  S    
O64   C195  S    
C12   C80   S    
C10   C84   S    
C204  H126  S    
C18   O68   S    
C95   C155  A    
C187  H82   S    
C113  O43   D    
C110  O40   D    
C34   O60   S    
C13   C61   A    
C206  H129  S    
C116  C128  A    
C125  C161  A    
C165  H6    S    
O58   C183  S    
C197  H107  S    
C115  N7    Am   
C166  H5    S    
C16   C64   A    
C118  O48   D    
C184  H74   S    
C126  C162  A    
C59   C71   A    
C107  N11   Am   
