data_mof_unit_47126.cif
_audit_creation_date              2012-12-10T17:24:44-0500
_audit_creation_method            fapswitch 2.2
_symmetry_space_group_name_H-M    P1
_symmetry_Int_Tables_number       1
_space_group_crystal_system       triclinic
_cell_length_a                    23.517154
_cell_length_b                    10.752622
_cell_length_c                    9.632599
_cell_angle_alpha                 90.940864
_cell_angle_beta                  89.402273
_cell_angle_gamma                 92.745553
_cell_volume                      2432.56806092

loop_
_atom_site_label
_atom_site_type_symbol
_atom_type_description
_atom_site_fract_x
_atom_site_fract_y
_atom_site_fract_z
_atom_type_partial_charge
C1    C     C_R   0.497828 0.262686 0.499219 0.788586
C2    C     C_R   0.965735 0.285223 0.586816 -0.159269
C3    C     C_R   0.025074 0.286434 0.588775 -0.162321
C4    C     C_R   0.057652 0.392310 0.546498 -0.014566
C5    C     C_R   0.030011 0.497710 0.501842 -0.017364
C6    C     C_R   0.062256 0.604311 0.459096 -0.014944
C7    C     C_R   0.034256 0.708972 0.414882 -0.161093
C8    C     C_R   0.974919 0.707758 0.412918 -0.160997
C9    C     C_R   0.117364 0.395486 0.546963 0.533216
C10   C     C_R   0.121868 0.603297 0.461740 0.532396
C11   C     C_R   0.239145 0.501579 0.377912 -0.104970
C12   C     C_R   0.391059 0.499673 0.500662 0.763915
C13   C     C_R   0.298404 0.501393 0.376703 -0.209726
C14   C     C_R   0.328435 0.499907 0.502067 -0.033836
C15   C     C_R   0.298038 0.498670 0.628562 -0.237504
C16   C     C_R   0.238730 0.498739 0.629441 -0.103930
C17   C     C_R   0.209098 0.500198 0.504157 0.358907
C18   C     C_R   0.760669 0.491738 0.622829 -0.104530
C19   C     C_R   0.701432 0.492418 0.623546 -0.189342
C20   C     C_R   0.671551 0.496087 0.498162 -0.021787
C21   C     C_R   0.702107 0.496292 0.371958 -0.232383
C22   C     C_R   0.761398 0.495683 0.371405 -0.097523
C23   C     C_R   0.497966 0.736907 0.500713 0.815420
C24   C     C_R   0.790888 0.493869 0.496854 0.356057
C25   C     C_R   0.405985 0.122420 0.643143 -0.175882
C26   C     C_R   0.363551 0.054148 0.714822 -0.123628
C27   C     C_R   0.363913 0.924851 0.716601 -0.109362
C28   C     C_R   0.406704 0.863019 0.646697 -0.140573
C29   C     C_R   0.450664 0.930408 0.574989 0.078468
C30   C     C_R   0.450346 0.061822 0.573278 0.092982
C31   C     C_R   0.493524 0.128411 0.497832 -0.102499
C32   C     C_R   0.534342 0.066409 0.421069 -0.187635
C33   C     C_R   0.534686 0.938283 0.422857 -0.158198
C34   C     C_R   0.608933 0.498823 0.499345 0.822870
C35   C     C_R   0.494180 0.870402 0.501292 -0.100502
C36   C     C_R   0.586521 0.634355 0.145795 -0.127316
C37   C     C_R   0.637794 0.663824 0.079259 -0.245250
C38   C     C_R   0.641284 0.651959 0.936560 -0.263755
C39   C     C_R   0.590649 0.633326 0.862404 0.019027
C40   C     C_R   0.543302 0.566739 0.926622 0.146765
C41   C     C_R   0.542564 0.566437 0.075681 0.216155
C42   C     C_R   0.459349 0.436245 0.073472 -0.049917
C43   C     C_R   0.459261 0.436536 0.925867 -0.047598
C44   C     C_R   0.882633 0.598649 0.454545 0.535360
C45   C     C_R   0.878120 0.390841 0.539773 0.534603
C46   C     C_R   0.937734 0.389869 0.542557 -0.015707
C47   C     C_R   0.969981 0.496476 0.499838 -0.017426
C48   C     C_R   0.942342 0.601865 0.455149 -0.015635
Cu1   Cu    Cu3+1 0.500000 0.499990 0.640660 0.958840
Cu2   Cu    Cu3+1 0.500000 0.500010 0.359340 0.945805
H1    H     H_    0.941923 0.202092 0.620102 0.192314
H2    H     H_    0.679143 0.489552 0.722243 0.163709
H3    H     H_    0.680312 0.496391 0.273699 0.169977
H4    H     H_    0.784475 0.496227 0.273531 0.144482
H5    H     H_    0.567019 0.117769 0.362393 0.159929
H6    H     H_    0.402898 0.222365 0.641080 0.138244
H7    H     H_    0.329855 0.101729 0.767796 0.145280
H8    H     H_    0.330509 0.872091 0.770994 0.143769
H9    H     H_    0.404267 0.762448 0.647805 0.147736
H10   H     H_    0.567516 0.891792 0.364991 0.155467
H11   H     H_    0.426067 0.383422 0.128019 0.134999
H12   H     H_    0.045290 0.204173 0.623428 0.190366
H13   H     H_    0.582975 0.666601 0.250672 0.196036
H14   H     H_    0.673337 0.705397 0.136929 0.178927
H15   H     H_    0.679438 0.690865 0.886177 0.181291
H16   H     H_    0.425934 0.383995 0.870896 0.127795
H17   H     H_    0.058068 0.792102 0.381593 0.191299
H18   H     H_    0.954703 0.790016 0.378256 0.191093
H19   H     H_    0.216466 0.502305 0.280686 0.140941
H20   H     H_    0.320605 0.502316 0.277631 0.156857
H21   H     H_    0.319990 0.497579 0.726779 0.154789
H22   H     H_    0.215737 0.497946 0.727431 0.141556
H23   H     H_    0.783177 0.489918 0.720225 0.143272
N1    N     N_R   0.851893 0.494272 0.496536 -0.470445
N2    N     N_R   0.148096 0.499831 0.504859 -0.469971
N3    N     N_R   0.500540 0.501210 0.147910 -0.196529
N4    N     N_R   0.500560 0.501290 0.852040 -0.200136
O1    O     O_R   0.500000 0.319640 0.618810 -0.577146
O2    O     O_2   0.846570 0.289089 0.579117 -0.528693
O3    O     O_2   0.144543 0.294791 0.587805 -0.536806
O4    O     O_2   0.153419 0.705025 0.422324 -0.534350
O5    O     O_R   0.500000 0.319660 0.381240 -0.571018
O6    O     O_R   0.417880 0.499950 0.618810 -0.602507
O7    O     O_R   0.417880 0.499980 0.381240 -0.581698
O8    O     O_R   0.500000 0.680340 0.618760 -0.567456
O9    O     O_R   0.500000 0.680360 0.381190 -0.595534
O10   O     O_R   0.582120 0.500020 0.618760 -0.582982
O11   O     O_R   0.582120 0.500050 0.381190 -0.605372
O12   O     O_2   0.855461 0.699338 0.413649 -0.530057
C49   C     C_2   0.582583 0.743983 0.778927 0.911962
O13   O     O_2   0.613774 0.766853 0.679136 -0.623165
O14   O     O_R   0.542903 0.829410 0.823297 -0.754122
H24   H     H_    0.544728 0.907825 0.766182 0.333494

loop_
_geom_bond_atom_site_label_1
_geom_bond_atom_site_label_2
_ccdc_geom_bond_type
Cu1   O10   S    
C19   C20   A    
C16   H22   S    
C25   H6    S    
Cu2   O7    S    
C7    C8    A    
C22   H4    S    
C45   C46   A    
C2    C46   A    
C5    C47   A    
C26   C27   A    
C29   C30   A    
C18   C24   A    
C5    C6    A    
C36   C37   A    
C38   C39   A    
C3    H12   S    
C13   H20   S    
C15   C16   A    
C1    C31   S    
Cu1   O1    S    
C12   O7    A    
C18   C19   A    
C19   H2    S    
C11   C17   A    
C31   C32   A    
C16   C17   A    
C23   O9    A    
C36   H13   S    
C32   H5    S    
Cu2   O11   S    
C20   C34   S    
C21   C22   A    
C1    O1    A    
C36   C41   A    
Cu1   O8    S    
C39   C40   A    
C25   C26   A    
C12   O6    A    
C45   N1    A    
C9    O3    S    
C8    C48   A    
C37   C38   A    
Cu2   N3    S    
C10   N2    A    
C49   O14   S    
C47   C48   A    
C38   H15   S    
C45   O2    S    
C34   O11   A    
C44   N1    A    
C42   H11   S    
C40   C41   A    
C12   C14   S    
C8    H18   S    
C18   H23   S    
C23   C35   S    
C22   C24   A    
C43   N4    A    
C42   C43   A    
C3    C4    A    
C37   H14   S    
Cu2   O5    S    
C28   H9    S    
C25   C30   A    
C46   C47   A    
C28   C29   A    
C39   C49   S    
C40   N4    A    
C4    C5    A    
C27   H8    S    
C6    C10   A    
C11   H19   S    
C6    C7    A    
C33   H10   S    
C15   H21   S    
C29   C35   A    
C10   O4    S    
C42   N3    A    
C32   C33   A    
Cu1   O6    S    
C2    C3    A    
C1    O5    A    
C41   N3    A    
C21   H3    S    
C11   C13   A    
C24   N1    S    
C49   O13   D    
C30   C31   A    
C43   H16   S    
O14   H24   S    
C33   C35   A    
Cu1   N4    S    
C34   O10   A    
C26   H7    S    
C2    H1    S    
Cu2   O9    S    
C7    H17   S    
C20   C21   A    
Cu1   Cu2   S    
C23   O8    A    
C27   C28   A    
C17   N2    S    
C14   C15   A    
C9    N2    A    
C4    C9    A    
C13   C14   A    
C44   O12   S    
C44   C48   A    
