data_mof_unit_25749.cif
_audit_creation_date              2012-10-26T21:17:58-0400
_audit_creation_method            fapswitch 2.2
_symmetry_space_group_name_H-M    P1
_symmetry_Int_Tables_number       1
_space_group_crystal_system       triclinic
_cell_length_a                    14.692005
_cell_length_b                    14.712741
_cell_length_c                    27.819282
_cell_angle_alpha                 76.830669
_cell_angle_beta                  102.786828
_cell_angle_gamma                 114.769177
_cell_volume                      5262.43684685

loop_
_atom_site_label
_atom_site_type_symbol
_atom_type_description
_atom_site_fract_x
_atom_site_fract_y
_atom_site_fract_z
_atom_type_partial_charge
C1    C     C_R   0.880343 0.312304 0.507986 0.549313
C2    C     C_R   0.987889 0.411512 0.136754 0.024487
C3    C     C_R   0.998176 0.499673 0.645268 0.003362
C4    C     C_R   0.001851 0.500356 0.354739 0.003578
C5    C     C_R   0.982331 0.408799 0.034441 0.018015
C6    C     C_R   0.022050 0.592737 0.965790 0.018029
C7    C     C_R   0.020061 0.592437 0.016704 0.018210
C8    C     C_R   0.976989 0.407785 0.982891 0.018172
C9    C     C_R   0.001954 0.500775 0.050881 0.033878
C10   C     C_R   0.998740 0.500088 0.949032 0.033928
C11   C     C_R   0.969347 0.320788 0.070504 -0.139745
C12   C     C_R   0.119678 0.687710 0.491302 0.550211
C13   C     C_R   0.047255 0.682939 0.930785 -0.139656
C14   C     C_R   0.971813 0.322287 0.120505 -0.112138
C15   C     C_R   0.046488 0.681702 0.880940 -0.112082
C16   C     C_R   0.999454 0.499939 0.592446 0.554215
C17   C     C_R   0.000545 0.500056 0.407556 0.553564
C18   C     C_R   0.949830 0.317173 0.963711 -0.140128
C19   C     C_R   0.034992 0.680858 0.034827 -0.140011
C20   C     C_R   0.812774 0.205085 0.509114 -0.000528
C21   C     C_R   0.187236 0.795264 0.484655 -0.000888
C22   C     C_R   0.783440 0.030322 0.510012 -0.127656
C23   C     C_R   0.997247 0.499744 0.897768 -0.027164
C24   C     C_R   0.215571 0.972980 0.467459 -0.127434
C25   C     C_R   0.850297 0.130168 0.513007 -0.131317
C26   C     C_R   0.149255 0.871686 0.472717 -0.131647
C27   C     C_R   0.708257 0.178960 0.503020 -0.128235
C28   C     C_R   0.291701 0.821121 0.490189 -0.131774
C29   C     C_R   0.639148 0.079944 0.497462 0.034533
C30   C     C_R   0.360001 0.922581 0.483485 0.033613
C31   C     C_R   0.678445 0.004731 0.502128 0.051723
C32   C     C_R   0.320418 0.998944 0.473345 0.052256
C33   C     C_R   0.532483 0.053620 0.487946 0.033718
C34   C     C_R   0.003385 0.501067 0.102145 -0.027191
C35   C     C_R   0.466425 0.950016 0.488123 0.034368
C36   C     C_R   0.508815 0.877636 0.491982 -0.133682
C37   C     C_R   0.489710 0.127549 0.477113 -0.135012
C38   C     C_R   0.612774 0.904905 0.498556 -0.129389
C39   C     C_R   0.385710 0.100421 0.469482 -0.128591
C40   C     C_R   0.971328 0.409742 0.829552 0.396567
C41   C     C_R   0.020900 0.589466 0.169645 0.396470
C42   C     C_R   0.716249 0.669968 0.417985 -0.157347
C43   C     C_R   0.284111 0.330575 0.582267 -0.155790
C44   C     C_R   0.797440 0.639660 0.430548 0.040808
C45   C     C_R   0.972079 0.408391 0.880259 0.024507
C46   C     C_R   0.202765 0.360638 0.569600 0.041060
C47   C     C_R   0.714532 0.508712 0.492686 0.034622
C48   C     C_R   0.285426 0.491274 0.507278 0.035456
C49   C     C_R   0.628750 0.535211 0.481456 0.003253
C50   C     C_R   0.371372 0.465037 0.518619 0.003478
C51   C     C_R   0.632012 0.618511 0.443426 0.038775
C52   C     C_R   0.368280 0.381974 0.556774 0.039224
C53   C     C_R   0.541201 0.483353 0.506632 0.022080
C54   C     C_R   0.458948 0.516948 0.493459 0.023400
C55   C     C_R   0.467246 0.601410 0.455762 -0.144985
C56   C     C_R   0.020170 0.590882 0.118932 0.024668
C57   C     C_R   0.532990 0.399015 0.544398 -0.143290
C58   C     C_R   0.551800 0.650588 0.431250 -0.130815
C59   C     C_R   0.448587 0.350047 0.569022 -0.125915
C60   C     C_R   0.019891 0.588870 0.813514 0.397581
C61   C     C_R   0.988845 0.413256 0.187119 0.397322
C62   C     C_R   0.069550 0.476350 0.732448 -0.057596
C63   C     C_R   0.927392 0.518478 0.267813 -0.057724
C64   C     C_R   0.070729 0.476618 0.682458 -0.143233
C65   C     C_R   0.926189 0.518178 0.317803 -0.143689
C66   C     C_R   0.924406 0.522301 0.659059 -0.145766
C67   C     C_R   0.947735 0.317743 0.913506 -0.112848
C68   C     C_R   0.078791 0.483055 0.340697 -0.146096
C69   C     C_R   0.923480 0.522073 0.709106 -0.057954
C70   C     C_R   0.079893 0.483555 0.290639 -0.058083
C71   C     C_R   0.996027 0.499115 0.745949 0.241295
C72   C     C_R   0.004197 0.501215 0.254025 0.240307
C73   C     C_R   0.035263 0.679915 0.084875 -0.112776
C74   C     C_R   0.021048 0.590767 0.863881 0.024329
Cu1   Cu    Cu3+1 0.081740 0.475690 0.513040 0.937358
Cu2   Cu    Cu3+1 0.918260 0.524310 0.486960 0.937122
H1    H     H_    0.867451 0.540180 0.631254 0.131201
H2    H     H_    0.534304 0.207787 0.472733 0.107657
H3    H     H_    0.554566 0.714966 0.402491 0.115654
H4    H     H_    0.445982 0.285904 0.597911 0.116676
H5    H     H_    0.279853 0.551490 0.478043 0.116088
H6    H     H_    0.719958 0.448281 0.521809 0.116447
H7    H     H_    0.137310 0.320464 0.588902 0.127577
H8    H     H_    0.862964 0.679915 0.411298 0.127103
H9    H     H_    0.719596 0.733740 0.388777 0.098906
H10   H     H_    0.280934 0.267029 0.611594 0.099660
H11   H     H_    0.409533 0.632038 0.444245 0.090841
H12   H     H_    0.138238 0.469385 0.368304 0.130009
H13   H     H_    0.590713 0.368403 0.555939 0.093886
H14   H     H_    0.866267 0.539483 0.719333 0.131731
H15   H     H_    0.139704 0.470490 0.280228 0.132624
H16   H     H_    0.926761 0.246258 0.900855 0.165598
H17   H     H_    0.047148 0.749764 0.096734 0.165423
H18   H     H_    0.865923 0.531667 0.327474 0.133704
H19   H     H_    0.128439 0.458829 0.672996 0.133129
H20   H     H_    0.868420 0.531804 0.239721 0.133137
H21   H     H_    0.126019 0.458822 0.760761 0.131788
H22   H     H_    0.961047 0.252670 0.146486 0.166364
H23   H     H_    0.318287 0.760499 0.501223 0.121378
H24   H     H_    0.066310 0.752927 0.855750 0.166408
H25   H     H_    0.958603 0.249160 0.061659 0.111803
H26   H     H_    0.069781 0.756722 0.940637 0.111839
H27   H     H_    0.927976 0.243592 0.986283 0.111333
H28   H     H_    0.045139 0.752390 0.011245 0.111156
H29   H     H_    0.641937 0.847087 0.501136 0.116353
H30   H     H_    0.356248 0.159509 0.461180 0.115471
H31   H     H_    0.682734 0.237500 0.503254 0.115915
H32   H     H_    0.068625 0.853289 0.468130 0.129364
H33   H     H_    0.930999 0.148850 0.517748 0.130802
H34   H     H_    0.813803 0.973226 0.513217 0.110310
H35   H     H_    0.184931 0.031142 0.459135 0.111053
H36   H     H_    0.463697 0.799284 0.488492 0.101863
N1    N     N_R   0.995366 0.499201 0.797413 -0.397485
N2    N     N_R   0.005038 0.501390 0.202524 -0.397148
N3    N     N_R   0.795430 0.560780 0.467350 -0.233737
N4    N     N_R   0.204570 0.439220 0.532650 -0.233843
O1    O     O_R   0.977900 0.338120 0.517190 -0.505289
O2    O     O_2   0.037981 0.675547 0.186059 -0.501267
O3    O     O_2   0.972599 0.327339 0.220351 -0.500899
O4    O     O_2   0.044002 0.676012 0.780958 -0.499538
O5    O     O_R   0.022100 0.661880 0.482810 -0.505096
O6    O     O_R   0.839850 0.379180 0.495160 -0.510464
O7    O     O_R   0.160150 0.620820 0.504840 -0.510714
O8    O     O_R   0.069030 0.479490 0.580750 -0.501902
O9    O     O_R   0.930970 0.520510 0.419250 -0.502433
O10   O     O_R   0.930970 0.520550 0.558720 -0.505019
O11   O     O_R   0.069030 0.479450 0.441280 -0.505562
O12   O     O_2   0.946298 0.322335 0.812411 -0.500536

loop_
_geom_bond_atom_site_label_1
_geom_bond_atom_site_label_2
_ccdc_geom_bond_type
C39   H30   S    
C21   C26   A    
C63   C65   A    
C34   C56   A    
C23   C45   A    
C29   C33   A    
C61   O3    S    
Cu2   O10   S    
C70   H15   S    
Cu1   O1    S    
C73   H17   S    
C15   H24   S    
C47   C49   A    
C3    C64   A    
C47   N3    A    
C5    C9    A    
C50   C54   A    
C57   H13   S    
C30   C35   A    
Cu1   O7    S    
Cu2   O5    S    
C24   C26   A    
C5    C11   A    
C4    C65   A    
C11   C14   A    
C43   C52   A    
C57   C59   A    
C66   C69   A    
C27   C29   A    
C20   C25   A    
C40   O12   S    
C72   N2    S    
Cu2   N3    S    
C48   H5    S    
C71   N1    S    
C47   H6    S    
C60   C74   A    
C69   C71   A    
C1    O6    A    
C62   C64   A    
C12   O5    A    
C35   C36   A    
C44   N3    A    
C49   C51   A    
C22   C25   A    
C45   C67   A    
C50   C52   A    
C41   O2    S    
C41   N2    A    
C2    C61   A    
C25   H33   S    
C42   C51   A    
C48   N4    A    
C2    C34   A    
C48   C50   A    
Cu2   O9    S    
C60   N1    A    
C24   H35   S    
C42   C44   A    
C14   H22   S    
C40   C45   A    
C37   C39   A    
C22   C31   A    
Cu1   O8    S    
C19   C73   A    
C26   H32   S    
C42   H9    S    
C53   C57   A    
C17   O11   A    
C22   H34   S    
C18   C67   A    
C53   C54   A    
C63   H20   S    
C33   C37   A    
Cu1   Cu2   S    
C24   C32   A    
C41   C56   A    
C36   H36   S    
C52   C59   A    
C62   H21   S    
C19   H28   S    
C40   N1    A    
C27   H31   S    
C11   H25   S    
C51   C58   A    
C1    O1    A    
C58   H3    S    
C4    C17   S    
C28   H23   S    
C8    C10   A    
C65   H18   S    
C21   C28   A    
C7    C19   A    
C13   C15   A    
C9    C34   A    
C68   H12   S    
C3    C66   A    
C23   C74   A    
C69   H14   S    
C4    C68   A    
C7    C9    A    
C66   H1    S    
C54   C55   A    
C1    C20   S    
C56   C73   A    
C43   H10   S    
C64   H19   S    
C44   H8    S    
C59   H4    S    
C6    C10   A    
C5    C8    A    
C6    C7    A    
C20   C27   A    
C10   C23   A    
C37   H2    S    
C31   C38   A    
C46   N4    A    
Cu2   O6    S    
C38   H29   S    
C36   C38   A    
C16   O8    A    
C29   C31   A    
C6    C13   A    
C30   C32   A    
C17   O9    A    
C12   O7    A    
C49   C53   A    
C12   C21   S    
C28   C30   A    
C67   H16   S    
C33   C35   A    
C62   C71   A    
C60   O4    S    
Cu1   O11   S    
C18   H27   S    
C55   H11   S    
C2    C14   A    
C43   C46   A    
C8    C18   A    
C46   H7    S    
C15   C74   A    
C63   C72   A    
C68   C70   A    
C55   C58   A    
C61   N2    A    
C32   C39   A    
C70   C72   A    
Cu1   N4    S    
C13   H26   S    
C16   O10   A    
C3    C16   S    
