data_mof_unit_6011.cif
_audit_creation_date              2012-12-10T21:11:35-0500
_audit_creation_method            fapswitch 2.2
_symmetry_space_group_name_H-M    P1
_symmetry_Int_Tables_number       1
_space_group_crystal_system       triclinic
_cell_length_a                    17.624607
_cell_length_b                    16.739557
_cell_length_c                    10.656288
_cell_angle_alpha                 85.781344
_cell_angle_beta                  89.745041
_cell_angle_gamma                 90.194249
_cell_volume                      3135.33355194

loop_
_atom_site_label
_atom_site_type_symbol
_atom_type_description
_atom_site_fract_x
_atom_site_fract_y
_atom_site_fract_z
_atom_type_partial_charge
C1    C     C_R   0.353005 0.499927 0.498154 1.073402
C2    C     C_R   0.647086 0.500136 0.500004 1.059567
C3    C     C_R   0.885835 0.509118 0.442069 -0.246000
C4    C     C_R   0.112141 0.500685 0.477556 -0.251194
C5    C     C_1   0.965953 0.507083 0.446783 0.023338
C6    C     C_1   0.032824 0.504361 0.458510 0.032647
C7    C     C_R   0.460432 0.836998 0.408510 0.362261
C8    C     C_R   0.538441 0.163181 0.594182 0.297644
C9    C     C_R   0.541187 0.827249 0.593412 0.307857
C10   C     C_R   0.461931 0.171745 0.405286 0.320781
C11   C     C_R   0.461317 0.752199 0.410041 -0.160916
C12   C     C_R   0.537285 0.248004 0.592018 -0.114717
C13   C     C_R   0.539462 0.743325 0.589919 0.044170
C14   C     C_R   0.462962 0.256303 0.407701 -0.074420
C15   C     C_R   0.500781 0.875546 0.501036 -0.052772
C16   C     C_R   0.500125 0.124547 0.499742 0.032474
C17   C     C_1   0.500217 0.963604 0.499821 0.083331
C18   C     C_1   0.500098 0.036661 0.499594 0.182639
C19   C     C_R   0.500727 0.503635 0.259036 1.027088
C20   C     C_R   0.500115 0.496404 0.741040 1.017952
C21   C     C_R   0.360884 0.534643 0.118978 0.178957
C22   C     C_R   0.640576 0.470776 0.880656 0.289241
C23   C     C_R   0.358710 0.468567 0.884560 0.235140
C24   C     C_R   0.640272 0.539761 0.112052 0.298373
C25   C     C_R   0.290729 0.516388 0.063571 0.335841
C26   C     C_R   0.709246 0.493521 0.932277 0.423097
C27   C     C_R   0.289886 0.479684 0.950615 0.356846
C28   C     C_R   0.709143 0.533445 0.043629 0.205234
C29   C     C_R   0.429300 0.488335 0.939654 -0.073704
C30   C     C_R   0.570594 0.514376 0.059820 -0.074627
C31   C     C_R   0.430004 0.511325 0.063036 -0.118151
C32   C     C_R   0.570216 0.489880 0.937517 -0.241995
C33   C     C_R   0.499727 0.485745 0.875423 -0.033027
C34   C     C_R   0.500522 0.514620 0.124831 0.010417
C35   C     C_R   0.848006 0.577463 0.479336 0.372974
C36   C     C_R   0.152108 0.431766 0.447815 0.378220
C37   C     C_R   0.149922 0.566671 0.524171 0.370922
C38   C     C_R   0.846000 0.438256 0.421724 0.377224
C39   C     C_R   0.770616 0.572986 0.505263 0.426841
C40   C     C_R   0.231013 0.431865 0.453777 0.415580
C41   C     C_R   0.229093 0.567342 0.527341 0.426102
C42   C     C_R   0.768731 0.433397 0.449843 0.437272
C43   C     C_R   0.730063 0.501419 0.488525 -0.443077
C44   C     C_R   0.269938 0.499720 0.492935 -0.488659
H1    H     H_    0.430866 0.721980 0.339277 0.166932
H2    H     H_    0.566523 0.278322 0.663812 0.128956
H3    H     H_    0.570155 0.706602 0.660180 0.156196
H4    H     H_    0.434286 0.293053 0.335217 0.134545
N1    N     N_R   0.500000 0.707230 0.500000 -0.132179
N2    N     N_R   0.500000 0.292770 0.500000 -0.104010
O1    O     O_R   0.389110 0.566570 0.499990 -0.573823
O2    O     O_R   0.610890 0.433430 0.500010 -0.574629
O3    O     O_R   0.610890 0.566570 0.500010 -0.576427
O4    O     O_R   0.389110 0.433430 0.499990 -0.560462
O5    O     O_R   0.499990 0.566540 0.316770 -0.535028
O6    O     O_R   0.500010 0.433460 0.683230 -0.591384
O7    O     O_R   0.500010 0.566540 0.683230 -0.648440
O8    O     O_R   0.499990 0.433460 0.316770 -0.665878
Zn1   Zn    Zn3+2 0.500000 0.588860 0.500000 1.034559
Zn2   Zn    Zn3+2 0.500000 0.411140 0.500000 1.021749
O9    O     O_3   0.776535 0.565188 0.083343 -0.763685
H5    H     H_    0.765489 0.617256 0.117951 0.360669
O10   O     O_3   0.220553 0.454582 0.908110 -0.678771
H6    H     H_    0.227756 0.402333 0.871763 0.337685
O11   O     O_3   0.775352 0.476880 0.868920 -0.724084
H7    H     H_    0.819934 0.492990 0.917381 0.389173
O12   O     O_3   0.221738 0.529255 0.120775 -0.691833
H8    H     H_    0.229473 0.533043 0.212077 0.313650
O13   O     O_3   0.363287 0.580063 0.221647 -0.790006
H9    H     H_    0.320495 0.618319 0.215876 0.335440
O14   O     O_3   0.644601 0.424850 0.779199 -0.757086
H10   H     H_    0.608530 0.379844 0.796590 0.335485
O15   O     O_3   0.358593 0.433604 0.771411 -0.746386
H11   H     H_    0.308169 0.440192 0.732031 0.344859
O16   O     O_3   0.639001 0.575757 0.224339 -0.747288
H12   H     H_    0.690041 0.573336 0.262190 0.344519
O17   O     O_3   0.884469 0.649503 0.494243 -0.697646
H13   H     H_    0.934795 0.650075 0.452658 0.350050
O18   O     O_3   0.116970 0.362682 0.412942 -0.696145
H14   H     H_    0.061708 0.364905 0.428267 0.351345
O19   O     O_3   0.112135 0.631116 0.569439 -0.710077
H15   H     H_    0.057658 0.618564 0.581942 0.357677
O20   O     O_3   0.880345 0.371924 0.376223 -0.708140
H16   H     H_    0.930073 0.387313 0.338135 0.352357
O21   O     O_3   0.734233 0.641818 0.537258 -0.546478
C45   C     C_3   0.733545 0.642921 0.669388 -0.117171
H17   H     H_    0.791127 0.634013 0.710707 0.190768
H18   H     H_    0.693372 0.597292 0.711650 0.141113
H19   H     H_    0.713295 0.702412 0.694280 0.186856
O22   O     O_3   0.269099 0.361877 0.432410 -0.531744
C46   C     C_3   0.281182 0.358589 0.301994 -0.171680
H20   H     H_    0.229192 0.372171 0.245494 0.203372
H21   H     H_    0.298520 0.296876 0.283811 0.172088
H22   H     H_    0.328088 0.399552 0.270000 0.124733
O23   O     O_3   0.266169 0.629736 0.580312 -0.543285
C47   C     C_3   0.268689 0.697054 0.492391 -0.120677
H23   H     H_    0.211674 0.723871 0.476824 0.201560
H24   H     H_    0.293737 0.682184 0.401176 0.116690
H25   H     H_    0.305406 0.743334 0.530625 0.175312
O24   O     O_3   0.729816 0.364070 0.426662 -0.550836
C48   C     C_3   0.738298 0.308160 0.531361 -0.127498
H26   H     H_    0.716902 0.332325 0.619297 0.175661
H27   H     H_    0.798320 0.288980 0.543495 0.194102
H28   H     H_    0.704201 0.254097 0.515137 0.172127
O25   O     O_3   0.420791 0.882849 0.318062 -0.707818
H29   H     H_    0.395556 0.846767 0.261242 0.338175
O26   O     O_3   0.576406 0.117477 0.686844 -0.748655
H30   H     H_    0.600325 0.153678 0.744907 0.343073
O27   O     O_3   0.582801 0.858322 0.688188 -0.733900
H31   H     H_    0.579951 0.917459 0.681009 0.367695
O28   O     O_3   0.424374 0.134504 0.312118 -0.710506
H32   H     H_    0.400779 0.175990 0.253691 0.334313

loop_
_geom_bond_atom_site_label_1
_geom_bond_atom_site_label_2
_ccdc_geom_bond_type
C4    C36   A    
C48   H26   S    
O5    Zn1   S    
C38   O20   S    
O15   H11   S    
O28   H32   S    
C25   O12   S    
C20   O6    A    
O19   H15   S    
O3    Zn1   S    
O4    Zn2   S    
O21   C45   S    
C7    C11   A    
C21   C31   A    
C22   C32   A    
C23   C29   A    
C38   C42   A    
O13   H9    S    
C5    C6    T    
C45   H18   S    
O7    Zn1   S    
O8    Zn2   S    
C47   H25   S    
C29   C33   A    
C8    C16   A    
C9    C13   A    
O2    Zn2   S    
O23   C47   S    
C3    C38   A    
C47   H24   S    
O26   H30   S    
C7    O25   S    
C23   C27   A    
C28   O9    S    
C7    C15   A    
C48   H27   S    
C37   O19   S    
C41   O23   S    
C23   O15   S    
C19   O8    A    
C9    O27   S    
C30   C34   A    
O12   H8    S    
C36   C40   A    
C4    C6    S    
C10   C14   A    
C46   H20   S    
C13   H3    S    
C45   H17   S    
C39   C43   A    
O17   H13   S    
C2    O3    A    
O6    Zn2   S    
C21   O13   S    
C35   C39   A    
O16   H12   S    
C11   N1    A    
C42   O24   S    
C46   H21   S    
C1    C44   S    
O20   H16   S    
C3    C35   A    
C2    C43   S    
C8    C12   A    
C47   H23   S    
C17   C18   T    
C31   C34   A    
C10   O28   S    
C1    O1    A    
C2    O2    A    
C36   O18   S    
C1    O4    A    
C13   N1    A    
C20   C33   S    
C12   H2    S    
C48   H28   S    
C41   C44   A    
C11   H1    S    
O1    Zn1   S    
C42   C43   A    
C39   O21   S    
C8    O26   S    
C22   O14   S    
C19   O5    A    
C15   C17   S    
C21   C25   A    
C26   O11   S    
C24   C28   A    
O10   H6    S    
C3    C5    S    
C45   H19   S    
C12   N2    A    
C24   O16   S    
C25   C27   A    
O25   H29   S    
C26   C28   A    
N1    Zn1   S    
N2    Zn2   S    
C32   C33   A    
C9    C15   A    
O14   H10   S    
C29   C31   A    
C10   C16   A    
O27   H31   S    
C46   H22   S    
C30   C32   A    
O22   C46   S    
C14   N2    A    
O24   C48   S    
C35   O17   S    
C19   C34   S    
C37   C41   A    
O9    H5    S    
C24   C30   A    
O18   H14   S    
C40   C44   A    
C4    C37   A    
C16   C18   S    
O11   H7    S    
C22   C26   A    
C14   H4    S    
C27   O10   S    
C40   O22   S    
C20   O7    A    
