data_mof_unit_41977.cif
_audit_creation_date              2012-12-11T15:24:03-0500
_audit_creation_method            fapswitch 2.2
_symmetry_space_group_name_H-M    P1
_symmetry_Int_Tables_number       1
_space_group_crystal_system       triclinic
_cell_length_a                    8.499771
_cell_length_b                    14.571782
_cell_length_c                    19.17854
_cell_angle_alpha                 92.791293
_cell_angle_beta                  94.078355
_cell_angle_gamma                 92.233777
_cell_volume                      2364.41827163

loop_
_atom_site_label
_atom_site_type_symbol
_atom_type_description
_atom_site_fract_x
_atom_site_fract_y
_atom_site_fract_z
_atom_type_partial_charge
Ba1   Ba    Ba6+2 0.150350 0.545800 0.464500 1.906529
Ba2   Ba    Ba6+2 0.659830 0.454190 0.535450 1.938117
C1    C     C_3   0.447885 0.903352 0.242625 0.609697
C2    C     C_3   0.406954 0.815113 0.278282 0.629627
C3    C     C_3   0.542047 0.733775 0.642565 0.365078
C4    C     C_3   0.620984 0.819205 0.680662 -0.264808
C5    C     C_3   0.929157 0.197111 0.745661 0.149459
C6    C     C_3   0.938678 0.130891 0.807701 -0.233377
C7    C     C_3   0.428970 0.243877 0.729250 1.197503
C8    C     C_3   0.411915 0.204057 0.801704 0.397142
C9    C     C_R   0.011408 0.939384 0.534265 -0.031038
C10   C     C_R   0.827422 0.802334 0.498381 0.037257
C11   C     C_R   0.681799 0.771813 0.466056 -0.354373
C12   C     C_3   0.866934 0.789804 0.231410 0.151315
C13   C     C_R   0.572858 0.833940 0.442926 0.032669
C14   C     C_R   0.610515 0.928071 0.446605 0.663225
C15   C     C_R   0.760629 0.962681 0.472941 -0.071309
C16   C     C_R   0.868610 0.900497 0.502221 -0.151932
C17   C     C_R   0.945528 0.097815 0.501933 -0.017812
C18   C     C_R   0.052001 0.035861 0.534059 -0.017889
C19   C     C_R   0.986689 0.196407 0.503059 0.056752
C20   C     C_R   0.133850 0.226472 0.535328 -0.246829
C21   C     C_R   0.241123 0.165035 0.563146 -0.029054
C22   C     C_R   0.198969 0.071060 0.565216 -0.066412
C23   C     C_3   0.880588 0.838302 0.160484 -0.216127
C24   C     C_R   0.800342 0.058685 0.472654 0.044135
C25   C     C_R   0.594956 0.546694 0.294947 -0.231598
C26   C     C_R   0.463230 0.487679 0.275426 0.002891
C27   C     C_R   0.418686 0.470122 0.203541 0.574257
C28   C     C_R   0.510144 0.508048 0.152067 -0.005560
C29   C     C_R   0.658305 0.551169 0.174036 -0.125649
C30   C     C_R   0.699293 0.573340 0.245239 0.029094
C31   C     C_R   0.423201 0.578800 0.035595 -0.165761
C32   C     C_R   0.374582 0.566880 0.962889 -0.179990
C33   C     C_R   0.346394 0.477818 0.930599 -0.151916
C34   C     C_3   0.766225 0.290417 0.316897 0.647806
C35   C     C_R   0.361387 0.401956 0.972847 0.601452
C36   C     C_R   0.419755 0.412739 0.043038 0.630233
C37   C     C_R   0.453788 0.500452 0.075623 -0.131919
C38   C     C_R   0.151735 0.422052 0.829408 -0.102827
C39   C     C_R   0.102848 0.416710 0.757487 -0.021458
C40   C     C_R   0.345898 0.498841 0.732431 0.023838
C41   C     C_R   0.396814 0.501475 0.803913 -0.077446
C42   C     C_R   0.299685 0.464153 0.853476 0.077761
C43   C     C_R   0.202462 0.453359 0.709584 0.462835
C44   C     C_3   0.733143 0.228419 0.249548 -0.143127
C45   C     C_3   0.060707 0.745846 0.681593 0.738933
C46   C     C_3   0.050356 0.831897 0.731610 -0.197456
C47   C     C_3   0.257244 0.270498 0.381242 0.332061
C48   C     C_3   0.215660 0.170375 0.357581 0.463611
H1    H     H_    0.678198 0.161148 0.259342 0.154630
H2    H     H_    0.652409 0.262500 0.211663 0.111443
H3    H     H_    0.844342 0.214149 0.224628 0.172792
H4    H     H_    0.951879 0.821287 0.765786 0.012095
H5    H     H_    0.021419 0.891297 0.699612 0.119935
H6    H     H_    0.148879 0.306151 0.391512 -0.022307
H7    H     H_    0.337521 0.273254 0.429796 -0.068592
H8    H     H_    0.524043 0.890708 0.199237 -0.030621
H9    H     H_    0.180944 0.130424 0.402134 -0.122714
H10   H     H_    0.635187 0.693191 0.619794 -0.010032
H11   H     H_    0.460901 0.754485 0.598688 0.035750
H12   H     H_    0.690705 0.799318 0.728169 0.142676
H13   H     H_    0.700483 0.854690 0.646199 0.027469
H14   H     H_    0.530996 0.867152 0.697126 0.191221
H15   H     H_    0.339267 0.935378 0.221882 0.053859
H16   H     H_    0.771657 0.877430 0.152615 0.030229
H17   H     H_    0.049987 0.223519 0.741377 0.080563
H18   H     H_    0.036687 0.084961 0.797280 0.114140
H19   H     H_    0.400591 0.127759 0.795864 0.042615
H20   H     H_    0.647406 0.699340 0.463799 0.049845
H21   H     H_    0.169511 0.298580 0.535386 0.087157
H22   H     H_    0.091777 0.894084 0.559685 0.142923
H23   H     H_    0.715984 0.103726 0.451160 0.178733
H24   H     H_    0.508840 0.535968 0.821209 0.131765
H25   H     H_    0.745743 0.759119 0.228095 0.030061
H26   H     H_    0.072402 0.397448 0.866661 0.155013
H27   H     H_    0.738995 0.570569 0.135562 0.138655
H28   H     H_    0.623801 0.565436 0.349743 0.063556
O1    O     O_2   0.108370 0.727470 0.525290 -0.407519
O2    O     O_3   0.333807 0.310611 0.327593 -0.541270
O3    O     O_3   0.978918 0.721702 0.239994 -0.562814
O4    O     O_2   0.701930 0.272470 0.474700 -0.401086
O5    O     O_3   0.944970 0.388780 0.468720 -0.481367
O6    O     O_3   0.463940 0.328280 0.598320 -0.406361
O7    O     O_3   0.866001 0.246208 0.364403 -0.623223
O8    O     O_3   0.372010 0.546630 0.581240 -0.441409
O9    O     O_3   0.877070 0.374860 0.631520 -0.366311
O10   O     O_2   0.786630 0.445863 0.750966 -0.388978
O11   O     O_3   0.827415 0.270306 0.757082 -0.561893
O12   O     O_3   0.865330 0.611210 0.531230 -0.457193
O13   O     O_3   0.438280 0.453360 0.418700 -0.514829
O14   O     O_2   0.627420 0.543410 0.667830 -0.432102
O15   O     O_3   0.456465 0.686123 0.690732 -0.540103
O16   O     O_2   0.567075 0.167697 0.552489 -0.408039
O17   O     O_3   0.488569 0.178006 0.682529 -0.619084
O18   O     O_3   0.346360 0.671710 0.401620 -0.460192
O19   O     O_2   0.258649 0.831113 0.461928 -0.451837
O20   O     O_3   0.924024 0.742328 0.635965 -0.699668
O21   O     O_3   0.310324 0.838320 0.332696 -0.556372
O22   O     O_2   0.182890 0.456530 0.332150 -0.378072
O23   O     O_3   0.933230 0.625130 0.368420 -0.430531
O24   O     O_2   0.015413 0.551161 0.251060 -0.348432
P1    P     P_3+3 0.937730 0.712710 0.546710 1.083457
P2    P     P_3+3 0.357970 0.428340 0.344000 1.169937
P3    P     P_3+3 0.899766 0.622360 0.276158 1.131161
P4    P     P_3+3 0.872570 0.287280 0.453240 1.063796
P5    P     P_3+3 0.901038 0.374397 0.724231 1.213736
P6    P     P_3+3 0.374175 0.791654 0.411354 1.179488
P7    P     P_3+3 0.448371 0.568158 0.669239 1.121773
P8    P     P_3+3 0.440382 0.209343 0.596542 1.158664
C49   C     C_2   0.316284 0.747685 0.228392 0.829549
O25   O     O_2   0.247002 0.773220 0.175626 -0.584432
O26   O     O_R   0.306833 0.655508 0.243178 -0.721564
H29   H     H_    0.248771 0.617450 0.203110 0.334482
F1    F     F_    0.197469 0.753497 0.647810 -0.719995
C50   C     C_2   0.054688 0.660082 0.721505 0.766370
O27   O     O_2   0.959699 0.597335 0.702041 -0.599076
O28   O     O_R   0.148974 0.654031 0.782997 -0.775952
H30   H     H_    0.111487 0.601305 0.810755 0.285651
C51   C     C_2   0.196409 0.859742 0.778436 0.973410
O29   O     O_2   0.316571 0.816701 0.776638 -0.518658
O30   O     O_R   0.192473 0.936504 0.824724 -0.709359
H31   H     H_    0.296424 0.949839 0.853409 0.344222
F2    F     F_    0.093050 0.165515 0.305932 -0.670285
C52   C     C_2   0.357883 0.130702 0.329115 1.052077
O31   O     O_2   0.356353 0.104695 0.267566 -0.536089
O32   O     O_R   0.497255 0.135426 0.371814 -0.711556
H32   H     H_    0.587865 0.107483 0.348572 0.366383
F3    F     F_    0.546664 0.776069 0.300489 -0.815360
F4    F     F_    0.527249 0.963916 0.290787 -0.645600
C53   C     C_2   0.878031 0.145848 0.677402 0.879932
O33   O     O_2   0.833471 0.189108 0.627670 -0.583324
O34   O     O_R   0.877689 0.049847 0.670900 -0.776791
H33   H     H_    0.816806 0.024089 0.626537 0.311003
C54   C     C_2   0.796424 0.066715 0.813925 0.899713
O35   O     O_2   0.676616 0.071015 0.775333 -0.615003
O36   O     O_R   0.804963 0.999708 0.863680 -0.674864
H34   H     H_    0.704406 0.959732 0.862791 0.343733
C55   C     C_2   0.983110 0.179607 0.877905 1.043052
O37   O     O_2   0.916816 0.248581 0.896292 -0.596356
O38   O     O_R   0.097762 0.142963 0.923224 -0.618325
H35   H     H_    0.114710 0.179448 0.969703 0.380204
F5    F     F_    0.281254 0.268955 0.704293 -0.793257
F6    F     F_    0.526972 0.322088 0.734502 -0.683769
F7    F     F_    0.273787 0.232488 0.827069 -0.699152
C56   C     C_2   0.541800 0.233348 0.856756 1.041338
O39   O     O_2   0.591539 0.177507 0.897492 -0.553715
O40   O     O_R   0.592561 0.325851 0.866480 -0.689362
H36   H     H_    0.668233 0.338511 0.909405 0.335863
C57   C     C_2   0.887719 0.857048 0.294061 0.927365
O41   O     O_2   0.812002 0.926334 0.295986 -0.521834
O42   O     O_R   0.997154 0.841310 0.349347 -0.713810
H37   H     H_    0.014749 0.896619 0.383410 0.318880
F8    F     F_    0.494957 0.985624 0.429240 -0.662300
C58   C     C_2   0.311373 0.010310 0.600080 0.890102
O43   O     O_2   0.283990 0.979332 0.656201 -0.619303
O44   O     O_R   0.450398 0.991019 0.569199 -0.722227
H38   H     H_    0.523111 0.953485 0.598982 0.278614
C59   C     C_2   0.343563 0.648817 0.922158 0.975808
O45   O     O_2   0.448742 0.684688 0.891216 -0.551135
O46   O     O_R   0.197147 0.688990 0.924554 -0.691690
H39   H     H_    0.194215 0.749927 0.901314 0.357810
C60   C     C_2   0.431523 0.673521 0.068681 0.980424
O47   O     O_2   0.330123 0.727391 0.052607 -0.490882
O48   O     O_R   0.556304 0.703269 0.115829 -0.795971
H40   H     H_    0.551737 0.770661 0.129715 0.294025
F9    F     F_    0.282942 0.420374 0.184047 -0.621177
F10   F     F_    0.320091 0.316147 0.946353 -0.618073
F11   F     F_    0.442842 0.336288 0.079611 -0.610667
F12   F     F_    0.155001 0.450157 0.640485 -0.704079
C61   C     C_2   0.012874 0.911337 0.158615 0.902452
O49   O     O_2   0.104192 0.908357 0.112043 -0.505544
O50   O     O_R   0.020864 0.987708 0.205865 -0.693365
H41   H     H_    0.105221 0.035148 0.195595 0.375340
C62   C     C_2   0.880721 0.769914 0.098128 0.996339
O51   O     O_2   0.800405 0.783282 0.044389 -0.548580
O52   O     O_R   0.976430 0.694103 0.100457 -0.673574
H42   H     H_    0.966889 0.654870 0.055108 0.328845
F13   F     F_    0.625543 0.307363 0.344425 -0.764581
C63   C     C_2   0.847342 0.377765 0.299890 0.772263
O53   O     O_2   0.914307 0.382842 0.245830 -0.533391
O54   O     O_R   0.856217 0.452079 0.348062 -0.710400
H43   H     H_    0.773717 0.448330 0.383418 0.275382

loop_
_geom_bond_atom_site_label_1
_geom_bond_atom_site_label_2
_ccdc_geom_bond_type
C13   P6    S    
C46   H5    S    
C61   O49   D    
C9    C16   A    
O48   H40   S    
C58   O44   S    
C1    F4    S    
Ba2   O6    S    
C17   C18   A    
C34   C63   S    
O13   P2    S    
C25   H28   S    
C43   F12   S    
O46   H39   S    
C7    F5    S    
C54   O35   D    
C62   O52   S    
O50   H41   S    
C63   O53   D    
C46   H4    S    
O21   P6    S    
C61   O50   S    
C31   C37   A    
C45   O20   S    
O2    P2    S    
C6    C55   S    
C48   H9    S    
C26   C27   A    
C31   C60   S    
C40   P7    S    
C49   O25   D    
Ba1   Ba2   S    
C3    C4    S    
O14   P7    D    
C11   H20   S    
O20   P1    S    
C5    O11   S    
C44   H2    S    
O22   P2    D    
C24   H23   S    
C47   H7    S    
C50   O27   D    
O24   P3    D    
C32   C33   A    
C4    H14   S    
Ba2   O12   S    
C17   C24   A    
C23   C62   S    
O28   H30   S    
O54   H43   S    
O19   P6    D    
O44   H38   S    
C60   O47   D    
C51   O30   S    
C14   C15   A    
C21   C22   A    
C59   O46   S    
C34   C44   S    
C7    C8    S    
C7    O17   S    
C5    C53   S    
C19   P4    S    
C22   C58   S    
C32   C59   S    
C23   C61   S    
C41   H24   S    
C52   O31   D    
O18   P6    S    
Ba1   O13   S    
C19   C20   A    
C6    C54   S    
O1    P1    D    
Ba2   O5    S    
C1    H15   S    
C34   F13   S    
Ba1   O22   S    
C7    F6    S    
C63   O54   S    
C29   H27   S    
C35   F10   S    
C56   O40   S    
O7    P4    S    
O23   P3    S    
C45   C50   S    
O3    P3    S    
C9    C18   A    
C45   C46   S    
C18   C22   A    
C5    C6    S    
O8    P7    S    
C48   F2    S    
O40   H36   S    
C10   P1    S    
C46   C51   S    
C50   O28   S    
O10   P5    D    
C9    H22   S    
C44   H1    S    
Ba2   P4    S    
O6    P8    S    
C38   H26   S    
C40   C43   A    
C4    H13   S    
C35   C36   A    
C45   F1    S    
C41   C42   A    
C1    H8    S    
C27   C28   A    
C26   P2    S    
C59   O45   D    
C28   C29   A    
C12   C57   S    
Ba2   O13   S    
C15   C16   A    
C2    F3    S    
C3    H11   S    
Ba2   O9    S    
C49   O26   S    
C48   C52   S    
O42   H37   S    
Ba2   O14   S    
C33   C42   S    
Ba1   P2    S    
O26   H29   S    
C8    C56   S    
C38   C39   A    
C2    C49   S    
C6    H18   S    
C30   P3    S    
C11   C13   A    
C14   F8    S    
O34   H33   S    
Ba1   O1    S    
C47   C48   S    
C57   O42   S    
Ba2   O4    S    
C40   C41   A    
C15   C24   A    
C1    C2    S    
Ba1   O12   S    
Ba1   O23   S    
C20   H21   S    
C58   O43   D    
C51   O29   D    
C36   F11   S    
C56   O39   D    
Ba1   O8    S    
C54   O36   S    
C21   P8    S    
Ba1   P1    S    
C39   P5    S    
C3    H10   S    
C33   C35   A    
C25   C30   A    
C57   O41   D    
C29   C30   A    
C23   H16   S    
C53   O34   S    
O17   P8    S    
C3    O15   S    
C55   O37   D    
O5    P4    S    
O32   H32   S    
C34   O7    S    
Ba1   O5    S    
C47   H6    S    
O36   H34   S    
C47   O2    S    
C12   H25   S    
C4    H12   S    
O16   P8    D    
C62   O51   D    
O38   H35   S    
C55   O38   S    
C27   F9    S    
C36   C37   A    
Ba1   O18   S    
C44   H3    S    
C31   C32   A    
C28   C37   S    
Ba2   O8    S    
O4    P4    D    
C12   C23   S    
C53   O33   D    
O12   P1    S    
C8    F7    S    
C5    H17   S    
O11   P5    S    
C8    H19   S    
C38   C42   A    
O9    P5    S    
C10   C11   A    
O52   H42   S    
C2    O21   S    
C10   C16   A    
C25   C26   A    
C52   O32   S    
C39   C43   A    
C20   C21   A    
C60   O48   S    
C12   O3    S    
O30   H31   S    
C13   C14   A    
O15   P7    S    
C17   C19   A    
