data_mof_unit_21924.cif
_audit_creation_date              2012-10-26T20:36:05-0400
_audit_creation_method            fapswitch 2.2
_symmetry_space_group_name_H-M    P1
_symmetry_Int_Tables_number       1
_space_group_crystal_system       triclinic
_cell_length_a                    10.862304
_cell_length_b                    15.88158
_cell_length_c                    17.199421
_cell_angle_alpha                 95.225416
_cell_angle_beta                  93.103728
_cell_angle_gamma                 90.796445
_cell_volume                      2949.88738788

loop_
_atom_site_label
_atom_site_type_symbol
_atom_type_description
_atom_site_fract_x
_atom_site_fract_y
_atom_site_fract_z
_atom_type_partial_charge
C1    C     C_R   0.503378 0.490667 0.348847 0.531771
C2    C     C_R   0.501345 0.524094 0.901707 0.204158
C3    C     C_R   0.479210 0.404270 0.137364 -0.101211
C4    C     C_R   0.520957 0.595703 0.862641 -0.101214
C5    C     C_R   0.484039 0.409899 0.218569 -0.155821
C6    C     C_R   0.516093 0.590081 0.781437 -0.155795
C7    C     C_R   0.439857 0.755874 0.460308 0.095962
C8    C     C_R   0.560137 0.244126 0.539696 0.095988
C9    C     C_R   0.446302 0.844807 0.464428 -0.087872
C10   C     C_R   0.553706 0.155193 0.535567 -0.087895
C11   C     C_R   0.529802 0.891585 0.516888 0.184962
C12   C     C_R   0.496620 0.509333 0.651153 0.531760
C13   C     C_R   0.470232 0.108413 0.483091 0.184993
C14   C     C_R   0.609196 0.846956 0.565271 -0.013757
C15   C     C_R   0.390842 0.153039 0.434701 -0.013756
C16   C     C_R   0.262943 0.502142 0.507812 0.544436
C17   C     C_R   0.737051 0.497858 0.492177 0.544463
C18   C     C_R   0.601160 0.756840 0.560164 0.093412
C19   C     C_R   0.398854 0.243159 0.439825 0.093410
C20   C     C_R   0.119662 0.366485 0.568806 -0.042592
C21   C     C_R   0.880312 0.633506 0.431152 -0.042613
C22   C     C_R   0.061882 0.287777 0.569128 -0.054423
C23   C     C_R   0.508561 0.487751 0.262910 -0.025876
C24   C     C_R   0.938089 0.712217 0.430824 -0.054430
C25   C     C_R   0.947560 0.272651 0.529985 -0.063000
C26   C     C_R   0.052413 0.727350 0.469963 -0.062939
C27   C     C_R   0.886417 0.338376 0.496801 -0.084521
C28   C     C_R   0.113564 0.661628 0.503151 -0.084504
C29   C     C_R   0.938388 0.421342 0.503129 0.010010
C30   C     C_R   0.061598 0.578658 0.496831 0.010019
C31   C     C_R   0.063062 0.431773 0.529791 0.032490
C32   C     C_R   0.936922 0.568223 0.470171 0.032506
C33   C     C_R   0.871797 0.493327 0.482607 -0.035220
C34   C     C_R   0.491459 0.512246 0.737093 -0.025902
C35   C     C_R   0.128189 0.506671 0.517362 -0.035221
C36   C     C_2   0.699269 0.893738 0.623022 0.277727
C37   C     C_2   0.300796 0.106257 0.376925 0.277658
C38   C     C_2   0.692537 0.711995 0.607183 0.264024
C39   C     C_2   0.307477 0.288002 0.392807 0.263947
C40   C     C_2   0.428697 0.355389 0.736127 0.250263
C41   C     C_2   0.571062 0.644655 0.263871 0.250250
C42   C     C_2   0.648522 0.287299 0.600124 0.255839
C43   C     C_2   0.351453 0.712703 0.399890 0.255909
C44   C     C_R   0.532925 0.560893 0.223398 -0.019429
C45   C     C_R   0.467007 0.439118 0.776603 -0.019402
C46   C     C_R   0.525856 0.553935 0.141674 -0.042986
C47   C     C_R   0.474121 0.446070 0.858328 -0.042933
C48   C     C_R   0.498752 0.475890 0.098297 0.204191
Cu1   Cu    Cu3+1 0.493970 0.415220 0.496180 0.925644
Cu2   Cu    Cu3+1 0.506030 0.584780 0.503820 0.925673
H1    H     H_    0.094565 0.789884 0.473992 0.151151
H2    H     H_    0.198547 0.678417 0.536605 0.143967
H3    H     H_    0.455416 0.390415 0.888103 0.186146
H4    H     H_    0.544487 0.609607 0.111902 0.186072
H5    H     H_    0.459305 0.343677 0.104539 0.140722
H6    H     H_    0.540940 0.656282 0.895468 0.140710
H7    H     H_    0.467238 0.352807 0.246478 0.125656
H8    H     H_    0.532951 0.647165 0.753531 0.125628
H9    H     H_    0.735122 0.864255 0.673795 0.121963
H10   H     H_    0.264812 0.135792 0.326216 0.122099
H11   H     H_    0.665223 0.676385 0.653997 0.121571
H12   H     H_    0.905405 0.210121 0.525952 0.151129
H13   H     H_    0.334789 0.323633 0.346014 0.121666
H14   H     H_    0.375257 0.350388 0.681064 0.123800
H15   H     H_    0.624635 0.649701 0.318890 0.123726
H16   H     H_    0.668592 0.353683 0.603733 0.180123
H17   H     H_    0.331408 0.646316 0.396269 0.180120
H18   H     H_    0.614944 0.122183 0.573649 0.220011
H19   H     H_    0.385058 0.877818 0.426351 0.220073
H20   H     H_    0.208582 0.376129 0.599642 0.112192
H21   H     H_    0.791385 0.623856 0.400318 0.112180
H22   H     H_    0.107749 0.237763 0.597454 0.139305
H23   H     H_    0.892217 0.762229 0.402495 0.139270
H24   H     H_    0.801433 0.321597 0.463346 0.143983
N1    N     N_2   0.491901 0.466466 0.015442 -0.238823
N2    N     N_2   0.508215 0.533514 0.984561 -0.238838
N3    N     N_R   0.515100 0.712130 0.509560 -0.286231
N4    N     N_R   0.484900 0.287870 0.490440 -0.286220
N5    N     N_2   0.535334 0.982585 0.523368 -0.175069
N6    N     N_2   0.464711 0.017412 0.476612 -0.174987
O1    O     O_R   0.494360 0.420530 0.382500 -0.519746
O2    O     O_2   0.264059 0.034884 0.385531 -0.456053
O3    O     O_2   0.802194 0.718313 0.595990 -0.513867
O4    O     O_2   0.197820 0.281654 0.403974 -0.513957
O5    O     O_2   0.454173 0.290131 0.765399 -0.464647
O6    O     O_2   0.545264 0.709889 0.234650 -0.464478
O7    O     O_2   0.702519 0.247672 0.648764 -0.490615
O8    O     O_2   0.297420 0.752332 0.351271 -0.490526
O9    O     O_R   0.505640 0.579470 0.617500 -0.519707
O10   O     O_R   0.504550 0.563720 0.388950 -0.545110
O11   O     O_R   0.495450 0.436280 0.611050 -0.545126
O12   O     O_R   0.314560 0.428400 0.496770 -0.474301
O13   O     O_R   0.685440 0.571600 0.503230 -0.474265
O14   O     O_R   0.324750 0.571590 0.503220 -0.546402
O15   O     O_R   0.675250 0.428410 0.496780 -0.546409
O16   O     O_2   0.736180 0.965044 0.614316 -0.456037

loop_
_geom_bond_atom_site_label_1
_geom_bond_atom_site_label_2
_ccdc_geom_bond_type
C1    O10   A    
C38   O3    D    
C27   C29   A    
C6    H8    S    
C12   O11   A    
C36   H9    S    
C5    H7    S    
C15   C19   A    
C41   O6    D    
C30   C35   A    
C21   H21   S    
C43   O8    D    
C19   C39   S    
C9    H19   S    
C39   O4    D    
C16   C35   S    
C14   C36   S    
C11   C14   A    
C24   H23   S    
C1    O1    A    
C29   C33   A    
C3    C48   A    
Cu1   N4    S    
Cu1   O1    S    
C14   C18   A    
C15   C37   S    
C3    H5    S    
Cu2   O10   S    
C22   C25   A    
C17   O15   A    
C7    C43   S    
C27   H24   S    
C7    N3    A    
C38   H11   S    
C13   N6    S    
C4    H6    S    
C8    N4    A    
C48   N1    S    
C20   H20   S    
C17   C33   S    
Cu1   O11   S    
C22   H22   S    
C44   C46   A    
C45   C47   A    
C40   C45   S    
C21   C32   A    
C46   C48   A    
C12   O9    A    
C4    C6    A    
Cu2   O14   S    
C41   H15   S    
C23   C44   A    
C6    C34   A    
C40   O5    D    
C19   N4    A    
C2    C4    A    
N1    N2    D    
C36   O16   D    
Cu2   O9    S    
C5    C23   A    
C46   H4    S    
C34   C45   A    
Cu1   O15   S    
C9    C11   A    
C11   N5    S    
C8    C10   A    
C20   C22   A    
C16   O12   A    
C13   C15   A    
C41   C44   S    
C31   C35   A    
C37   O2    D    
C17   O13   A    
Cu1   O12   S    
C12   C34   S    
Cu2   N3    S    
C2    N2    S    
C7    C9    A    
C16   O14   A    
C24   C26   A    
C8    C42   S    
C3    C5    A    
C10   C13   A    
Cu2   O13   S    
C1    C23   S    
C10   H18   S    
C2    C47   A    
C25   C27   A    
C39   H13   S    
C26   C28   A    
C40   H14   S    
C47   H3    S    
C32   C33   A    
C28   C30   A    
C18   C38   S    
C29   C31   A    
C26   H1    S    
C30   C32   A    
C28   H2    S    
C18   N3    A    
C25   H12   S    
C37   H10   S    
N5    N6    D    
C43   H17   S    
Cu1   Cu2   S    
C21   C24   A    
C42   H16   S    
C42   O7    D    
C20   C31   A    
