data_mof_unit_15275.cif
_audit_creation_date              2012-12-11T15:33:36-0500
_audit_creation_method            fapswitch 2.2
_symmetry_space_group_name_H-M    P1
_symmetry_Int_Tables_number       1
_space_group_crystal_system       triclinic
_cell_length_a                    27.144292
_cell_length_b                    7.197628
_cell_length_c                    22.738455
_cell_angle_alpha                 90.000287
_cell_angle_beta                  101.124983
_cell_angle_gamma                 89.999988
_cell_volume                      4359.03368151

loop_
_atom_site_label
_atom_site_type_symbol
_atom_type_description
_atom_site_fract_x
_atom_site_fract_y
_atom_site_fract_z
_atom_type_partial_charge
O1    O     O_R   0.207310 0.594030 0.676830 -0.538435
O2    O     O_R   0.792690 0.405970 0.323170 -0.538436
O3    O     O_R   0.292690 0.094030 0.823170 -0.538436
O4    O     O_R   0.707310 0.905970 0.176830 -0.538436
O5    O     O_R   0.197320 0.262370 0.795700 -0.508619
O6    O     O_R   0.802680 0.737630 0.204300 -0.508619
O7    O     O_R   0.302680 0.762370 0.704300 -0.508618
O8    O     O_R   0.697320 0.237630 0.295700 -0.508618
C1    C     C_R   0.183779 0.432037 0.810741 0.735454
C2    C     C_R   0.816221 0.567963 0.189259 0.735455
C3    C     C_R   0.316221 0.932037 0.689259 0.735453
C4    C     C_R   0.683779 0.067963 0.310741 0.735454
O9    O     O_R   0.201410 0.264250 0.675590 -0.532858
O10   O     O_R   0.798590 0.735750 0.324410 -0.532858
O11   O     O_R   0.298590 0.764250 0.824410 -0.532859
O12   O     O_R   0.701410 0.235750 0.175590 -0.532858
O13   O     O_R   0.296810 0.094940 0.702210 -0.539524
O14   O     O_R   0.703190 0.905060 0.297790 -0.539524
O15   O     O_R   0.203190 0.594940 0.797790 -0.539524
O16   O     O_R   0.796810 0.405060 0.202210 -0.539525
C5    C     C_R   0.189765 0.432531 0.653471 0.684213
C6    C     C_R   0.810235 0.567469 0.346529 0.684214
C7    C     C_R   0.310235 0.932531 0.846529 0.684212
C8    C     C_R   0.689765 0.067469 0.153471 0.684211
O17   O     O_3   0.281300 0.427390 0.758870 -0.360889
O18   O     O_3   0.718700 0.572610 0.241130 -0.360890
O19   O     O_3   0.218700 0.927390 0.741130 -0.360890
O20   O     O_3   0.781300 0.072610 0.258870 -0.360890
V1    V     V_3+5 0.244190 0.152150 0.748350 1.532327
V2    V     V_3+5 0.755810 0.847850 0.251650 1.532327
V3    V     V_3+5 0.255810 0.652150 0.751650 1.532327
V4    V     V_3+5 0.744190 0.347850 0.248350 1.532327
C9    C     C_R   0.654825 0.062402 0.095131 -0.040581
C10   C     C_R   0.345175 0.937598 0.904868 -0.040580
C11   C     C_R   0.845175 0.562405 0.404869 -0.040582
C12   C     C_R   0.154825 0.437595 0.595131 -0.040583
C13   C     C_R   0.639383 0.123171 0.988624 -0.144150
C14   C     C_R   0.360617 0.876828 0.011376 -0.144151
C15   C     C_R   0.860618 0.623188 0.511375 -0.144150
C16   C     C_R   0.139382 0.376812 0.488625 -0.144150
C17   C     C_R   0.672216 0.114877 0.043700 -0.165637
C18   C     C_R   0.327784 0.885123 0.956299 -0.165637
C19   C     C_R   0.827784 0.614888 0.456299 -0.165635
C20   C     C_R   0.172216 0.385112 0.543701 -0.165635
C21   C     C_R   0.603744 0.018844 0.091170 -0.186001
C22   C     C_R   0.396255 0.981155 0.908829 -0.186001
C23   C     C_R   0.896255 0.518843 0.408830 -0.185999
C24   C     C_R   0.103745 0.481157 0.591170 -0.185999
C25   C     C_R   0.569059 0.029425 0.035453 0.082964
C26   C     C_R   0.430941 0.970575 0.964546 0.082964
C27   C     C_R   0.930941 0.529428 0.464546 0.082964
C28   C     C_R   0.069059 0.470572 0.535454 0.082964
C29   C     C_R   0.588222 0.082279 0.984068 0.124365
C30   C     C_R   0.411778 0.917721 0.015932 0.124365
C31   C     C_R   0.911778 0.582291 0.515931 0.124365
C32   C     C_R   0.088222 0.417708 0.484069 0.124364
C33   C     C_R   0.516220 0.991980 0.028896 0.051072
C34   C     C_R   0.483780 0.008020 0.971104 0.051072
C35   C     C_R   0.983780 0.491977 0.471104 0.051071
C36   C     C_R   0.016220 0.508023 0.528896 0.051072
C37   C     C_R   0.505294 0.060374 0.921830 -0.157014
C38   C     C_R   0.494706 0.939626 0.078170 -0.157014
C39   C     C_R   0.994706 0.560389 0.578169 -0.157013
C40   C     C_R   0.005294 0.439611 0.421831 -0.157012
C41   C     C_R   0.556298 0.096246 0.928338 -0.173156
C42   C     C_R   0.443702 0.903754 0.071662 -0.173156
C43   C     C_R   0.943703 0.596265 0.571661 -0.173155
C44   C     C_R   0.056297 0.403735 0.428339 -0.173154
H1    H     H_    0.407633 0.018246 0.867539 0.115893
H2    H     H_    0.592367 0.981754 0.132461 0.115893
H3    H     H_    0.092367 0.518253 0.632461 0.115895
H4    H     H_    0.907633 0.481747 0.367539 0.115895
H5    H     H_    0.288641 0.849333 0.953686 0.110005
H6    H     H_    0.711359 0.150667 0.046314 0.110005
H7    H     H_    0.211358 0.349318 0.546314 0.110006
H8    H     H_    0.788642 0.650681 0.453686 0.110006
H9    H     H_    0.653974 0.164260 0.949426 0.128716
H10   H     H_    0.346026 0.835740 0.050573 0.128716
H11   H     H_    0.846027 0.664284 0.550573 0.128717
H12   H     H_    0.153973 0.335716 0.449427 0.128717
H13   H     H_    0.483660 0.075616 0.877167 0.146934
H14   H     H_    0.516340 0.924384 0.122833 0.146934
H15   H     H_    0.016341 0.575636 0.622832 0.146936
H16   H     H_    0.983659 0.424363 0.377168 0.146936
C45   C     C_R   0.641822 0.906704 0.385335 -0.172366
C46   C     C_R   0.358178 0.093296 0.614665 -0.172367
C47   C     C_R   0.858176 0.406707 0.114663 -0.172370
C48   C     C_R   0.141824 0.593294 0.885337 -0.172371
C49   C     C_R   0.605705 0.894659 0.421425 -0.133671
C50   C     C_R   0.394295 0.105341 0.578575 -0.133671
C51   C     C_R   0.894293 0.394663 0.078572 -0.133676
C52   C     C_R   0.105706 0.605338 0.921427 -0.133676
C53   C     C_R   0.569921 0.035607 0.421325 -0.122284
C54   C     C_R   0.430078 0.964393 0.578675 -0.122284
C55   C     C_R   0.930078 0.535606 0.078676 -0.122282
C56   C     C_R   0.069921 0.464394 0.921324 -0.122282
C57   C     C_R   0.570000 0.188563 0.382120 0.369958
C58   C     C_R   0.430000 0.811437 0.617880 0.369958
C59   C     C_R   0.930002 0.688557 0.117883 0.369960
C60   C     C_R   0.069999 0.311442 0.882117 0.369960
C61   C     C_R   0.606186 0.199947 0.344961 0.328535
C62   C     C_R   0.393814 0.800053 0.655039 0.328535
C63   C     C_R   0.893815 0.699941 0.155042 0.328535
C64   C     C_R   0.106185 0.300058 0.844958 0.328535
C65   C     C_R   0.643353 0.059504 0.347227 -0.187811
C66   C     C_R   0.356647 0.940496 0.652773 -0.187811
C67   C     C_R   0.856647 0.559503 0.152774 -0.187806
C68   C     C_R   0.143353 0.440497 0.847226 -0.187807
N1    N     N_R   0.515724 0.169561 0.487277 -0.191129
N2    N     N_R   0.484276 0.830439 0.512722 -0.191128
N3    N     N_R   0.984279 0.669561 0.012727 -0.191128
N4    N     N_R   0.015720 0.330439 0.987273 -0.191128
N5    N     N_R   0.483263 0.152370 0.524150 -0.226322
N6    N     N_R   0.516737 0.847630 0.475850 -0.226322
N7    N     N_R   0.016740 0.652371 0.975854 -0.226328
N8    N     N_R   0.983260 0.347629 0.024146 -0.226328
C69   C     C_R   0.466983 0.982236 0.537992 0.557864
C70   C     C_R   0.533017 0.017764 0.462008 0.557864
C71   C     C_R   0.033017 0.482237 0.962007 0.557866
C72   C     C_R   0.966983 0.517763 0.037993 0.557865
H17   H     H_    0.570924 0.136603 0.889074 0.146807
H18   H     H_    0.429076 0.863396 0.110926 0.146807
H19   H     H_    0.929078 0.636631 0.610925 0.146808
H20   H     H_    0.070922 0.363369 0.389075 0.146808
H21   H     H_    0.669277 0.796248 0.388055 0.158891
H22   H     H_    0.330723 0.203752 0.611945 0.158891
H23   H     H_    0.830720 0.296255 0.111941 0.158883
H24   H     H_    0.169280 0.703746 0.888058 0.158885
H25   H     H_    0.606433 0.775283 0.450597 0.181695
H26   H     H_    0.393567 0.224717 0.549403 0.181695
H27   H     H_    0.893564 0.275290 0.049399 0.181689
H28   H     H_    0.106436 0.724711 0.950600 0.181691
Cl1   Cl    Cl    0.523226 0.362668 0.376119 -0.503038
Cl2   Cl    Cl    0.476774 0.637332 0.623881 -0.503038
Cl3   Cl    Cl    0.976778 0.862655 0.123888 -0.503034
Cl4   Cl    Cl    0.023223 0.137344 0.876112 -0.503035
Cl5   Cl    Cl    0.601844 0.386380 0.293353 -0.572205
Cl6   Cl    Cl    0.398155 0.613619 0.706647 -0.572205
Cl7   Cl    Cl    0.898159 0.886367 0.206653 -0.572201
Cl8   Cl    Cl    0.101842 0.113631 0.793348 -0.572202

loop_
_geom_bond_atom_site_label_1
_geom_bond_atom_site_label_2
_ccdc_geom_bond_type
O17   V3    S    
C59   C63   A    
C25   C29   A    
O1    C5    A    
C47   C51   A    
C46   H22   S    
C9    C21   A    
C56   C71   S    
O3    C7    A    
C10   C18   A    
C57   Cl1   S    
O15   V3    S    
C44   H20   S    
C47   H23   S    
C49   H25   S    
C33   C38   A    
C5    C12   S    
C1    C68   S    
O7    C3    A    
C6    C11   S    
C35   C40   A    
C26   C30   A    
C36   C39   A    
C40   C44   A    
O9    V1    S    
C52   H28   S    
C14   C18   A    
C4    C65   S    
C48   C68   A    
C54   C69   S    
C55   C59   A    
N4    N8    A    
C51   H27   S    
C54   C58   A    
O1    V3    S    
O13   V1    S    
O19   V1    S    
O2    V4    S    
C62   Cl6   S    
O3    V1    S    
C40   H16   S    
C22   H1    S    
C28   C36   A    
C17   H6    S    
C45   H21   S    
C1    O15   A    
C60   C64   A    
C15   C31   A    
C48   C52   A    
C2    O16   A    
C16   C32   A    
O2    C6    A    
C42   H18   S    
C12   C24   A    
C10   C22   A    
C41   H17   S    
C11   C19   A    
N2    N6    A    
C16   C20   A    
N1    N5    A    
C13   C29   A    
C34   C37   A    
O11   C7    A    
C38   H14   S    
C11   C23   A    
C35   C36   A    
O12   C8    A    
C49   C53   A    
C2    C67   S    
C46   C66   A    
O10   V2    S    
C45   C65   A    
N2    C69   A    
N1    C70   A    
C50   C54   A    
O5    V1    S    
C52   C56   A    
C61   C65   A    
C39   C43   A    
O7    V3    S    
C38   C42   A    
C59   Cl3   S    
C26   C34   A    
C46   C50   A    
C45   C49   A    
O18   V4    S    
C23   C27   A    
C14   H10   S    
C32   C44   A    
C13   H9    S    
N8    C72   A    
C39   H15   S    
N3    C72   A    
O8    V4    S    
C37   H13   S    
C20   H7    S    
O5    C1    A    
C63   Cl7   S    
N3    N7    A    
C31   C43   A    
C14   C30   A    
C21   C25   A    
O8    C4    A    
C7    C10   S    
C3    C66   S    
C16   H12   S    
O9    C5    A    
N6    C70   A    
N5    C69   A    
O6    V2    S    
N7    C71   A    
O14   V2    S    
C12   C20   A    
C27   C35   A    
C53   C70   S    
C24   H3    S    
C53   C57   A    
C64   C68   A    
C29   C41   A    
O16   V4    S    
C19   H8    S    
C22   C26   A    
C3    O13   A    
C18   H5    S    
C61   Cl5   S    
C21   H2    S    
C43   H19   S    
O6    C2    A    
N4    C71   A    
C15   C19   A    
O11   V3    S    
C30   C42   A    
C55   C72   S    
O12   V4    S    
C58   Cl2   S    
C8    C9    S    
C9    C17   A    
O10   C6    A    
O20   V2    S    
C48   H24   S    
C58   C62   A    
C33   C34   A    
C25   C33   A    
C28   C32   A    
O4    C8    A    
C56   C60   A    
C62   C66   A    
C27   C31   A    
C37   C41   A    
C13   C17   A    
O4    V2    S    
C23   H4    S    
C51   C55   A    
C50   H26   S    
C64   Cl8   S    
C24   C28   A    
C47   C67   A    
C4    O14   A    
C63   C67   A    
C57   C61   A    
C60   Cl4   S    
C15   H11   S    
