data_mof_unit_62266.cif
_audit_creation_date              2012-12-10T17:34:23-0500
_audit_creation_method            fapswitch 2.2
_symmetry_space_group_name_H-M    P1
_symmetry_Int_Tables_number       1
_space_group_crystal_system       triclinic
_cell_length_a                    38.854243
_cell_length_b                    45.34798
_cell_length_c                    29.804971
_cell_angle_alpha                 90.000421
_cell_angle_beta                  130.605614
_cell_angle_gamma                 89.999551
_cell_volume                      39869.9429322

loop_
_atom_site_label
_atom_site_type_symbol
_atom_type_description
_atom_site_fract_x
_atom_site_fract_y
_atom_site_fract_z
_atom_type_partial_charge
C1    C     C_R   0.790062 0.790034 0.080090 0.834742
C2    C     C_R   0.209939 0.790034 0.919910 0.834742
C3    C     C_R   0.290062 0.290034 0.080090 0.834737
C4    C     C_R   0.709938 0.290034 0.919909 0.834742
C5    C     C_R   0.645595 0.749973 0.999977 -0.029489
C6    C     C_R   0.354403 0.749974 0.000020 -0.029485
C7    C     C_R   0.145595 0.249973 0.999976 -0.029502
C8    C     C_R   0.854405 0.249972 0.000024 -0.029503
C9    C     C_R   0.465031 0.749946 0.999997 0.404437
C10   C     C_R   0.534967 0.749945 0.999997 0.404438
C11   C     C_R   0.965032 0.249943 0.000001 0.404432
C12   C     C_R   0.034967 0.249943 0.999998 0.404431
C13   C     C_3   0.904476 0.844690 0.261399 -0.423361
C14   C     C_3   0.095906 0.844343 0.737902 -0.423282
C15   C     C_3   0.404246 0.344476 0.261828 -0.423316
C16   C     C_3   0.595779 0.344454 0.738125 -0.423310
C17   C     C_3   0.855003 0.883883 0.183976 -0.381801
C18   C     C_3   0.143955 0.883684 0.815627 -0.381819
C19   C     C_3   0.355640 0.383763 0.184217 -0.381775
C20   C     C_3   0.644291 0.383750 0.815758 -0.381810
C21   C     C_3   0.877538 0.908513 0.231836 -0.465731
C22   C     C_3   0.121426 0.908334 0.767809 -0.465604
C23   C     C_3   0.378171 0.408405 0.232051 -0.465541
C24   C     C_3   0.621761 0.408393 0.767926 -0.465634
C25   C     C_1   0.937719 0.937509 0.375423 -0.170333
C26   C     C_1   0.062281 0.937509 0.624576 -0.170375
C27   C     C_1   0.437719 0.437509 0.375424 -0.170322
C28   C     C_1   0.562281 0.437509 0.624576 -0.170354
C29   C     C_3   0.854840 0.853992 0.209418 0.287743
C30   C     C_3   0.145170 0.853989 0.790578 0.287699
C31   C     C_3   0.354834 0.353990 0.209421 0.287669
C32   C     C_3   0.645166 0.353990 0.790579 0.287712
C33   C     C_3   0.930168 0.870259 0.307061 0.150338
C34   C     C_3   0.070115 0.869870 0.692156 0.150317
C35   C     C_3   0.429999 0.370020 0.307542 0.150318
C36   C     C_3   0.570020 0.369995 0.692406 0.150315
C37   C     C_3   0.896269 0.895370 0.292201 0.301951
C38   C     C_3   0.103738 0.895367 0.707794 0.301904
C39   C     C_3   0.396265 0.395368 0.292205 0.301847
C40   C     C_3   0.603735 0.395368 0.707796 0.301912
C41   C     C_3   0.854299 0.882986 0.282148 -0.373331
C42   C     C_3   0.146394 0.883530 0.718944 -0.373335
C43   C     C_3   0.353874 0.383318 0.281482 -0.373345
C44   C     C_3   0.646172 0.383354 0.718591 -0.373340
C45   C     C_R   0.683570 0.749988 0.999950 0.785572
C46   C     C_R   0.316430 0.749988 0.000049 0.785675
C47   C     C_R   0.183570 0.249988 0.999950 0.785576
C48   C     C_R   0.816430 0.249988 0.000050 0.785523
C49   C     C_3   0.830519 0.858503 0.234299 -0.378953
C50   C     C_3   0.170185 0.859047 0.766792 -0.378972
C51   C     C_3   0.330087 0.358835 0.233634 -0.378956
C52   C     C_3   0.669960 0.358871 0.766439 -0.378961
C53   C     C_1   0.919030 0.918585 0.337927 -0.071506
C54   C     C_1   0.080972 0.918584 0.662070 -0.071506
C55   C     C_1   0.419030 0.418584 0.337929 -0.071473
C56   C     C_1   0.580971 0.418584 0.662071 -0.071505
C57   C     C_1   0.831578 0.831115 0.163019 -0.093091
C58   C     C_1   0.168428 0.831113 0.836979 -0.093077
C59   C     C_1   0.331574 0.331114 0.163021 -0.093060
C60   C     C_1   0.668426 0.331114 0.836979 -0.093082
C61   C     C_1   0.812583 0.812392 0.125092 -0.178452
C62   C     C_1   0.187421 0.812391 0.874907 -0.178439
C63   C     C_1   0.312581 0.312392 0.125092 -0.178424
C64   C     C_1   0.687419 0.312391 0.874908 -0.178445
C65   C     C_R   0.848291 0.760907 0.951046 -0.185623
C66   C     C_R   0.151714 0.760902 0.048963 -0.185586
C67   C     C_R   0.348289 0.260907 0.951044 -0.185608
C68   C     C_R   0.651711 0.260907 0.048957 -0.185630
C69   C     C_R   0.884139 0.760661 0.950823 -0.158956
C70   C     C_R   0.115867 0.760656 0.049187 -0.158951
C71   C     C_R   0.384137 0.260662 0.950820 -0.158955
C72   C     C_R   0.615863 0.260662 0.049180 -0.158960
C73   C     C_R   0.927000 0.750081 0.999963 0.057867
C74   C     C_R   0.073004 0.750078 0.000046 0.057862
C75   C     C_R   0.426998 0.250082 0.999959 0.057864
C76   C     C_R   0.573001 0.250083 0.000040 0.057866
C77   C     C_R   0.933198 0.739475 0.049080 -0.159175
C78   C     C_R   0.066804 0.739475 0.950925 -0.159179
C79   C     C_R   0.433197 0.239476 0.049078 -0.159167
C80   C     C_R   0.566802 0.239478 0.950920 -0.159164
C81   C     C_R   0.897111 0.739178 0.048818 -0.185797
C82   C     C_R   0.102891 0.739178 0.951185 -0.185824
C83   C     C_R   0.397110 0.239178 0.048816 -0.185797
C84   C     C_R   0.602889 0.239181 0.951182 -0.185788
C85   C     C_R   0.854396 0.750028 0.999922 -0.029298
C86   C     C_R   0.145607 0.750027 0.000082 -0.029287
C87   C     C_R   0.354395 0.250028 0.999921 -0.029298
C88   C     C_R   0.645605 0.250029 0.000079 -0.029301
C89   C     C_R   0.709936 0.709955 0.919817 0.836686
C90   C     C_R   0.290065 0.709955 0.080183 0.836870
C91   C     C_R   0.209936 0.209955 0.919817 0.836688
C92   C     C_R   0.790063 0.209955 0.080183 0.836578
C93   C     C_R   0.034975 0.750097 0.000026 0.404525
C94   C     C_R   0.965030 0.750098 0.999984 0.404527
C95   C     C_R   0.534971 0.250101 0.000020 0.404530
C96   C     C_R   0.465028 0.250101 0.999979 0.404532
C97   C     C_3   0.636672 0.617176 0.813920 0.153356
C98   C     C_3   0.356117 0.615477 0.182662 0.153563
C99   C     C_3   0.136983 0.117092 0.814089 0.153365
C100  C     C_3   0.866810 0.118177 0.188099 0.153249
C101  C     C_3   0.599562 0.656502 0.735595 -0.444540
C102  C     C_3   0.403257 0.654502 0.260354 -0.444812
C103  C     C_3   0.099420 0.156426 0.735749 -0.444540
C104  C     C_3   0.898729 0.157293 0.266006 -0.444420
C105  C     C_3   0.575126 0.632233 0.687172 -0.389707
C106  C     C_3   0.427679 0.630210 0.308732 -0.389149
C107  C     C_3   0.074985 0.132156 0.687328 -0.389666
C108  C     C_3   0.923170 0.133035 0.314451 -0.389926
C109  C     C_1   0.562598 0.562368 0.625318 -0.174501
C110  C     C_1   0.437388 0.562364 0.374673 -0.174499
C111  C     C_1   0.062598 0.062368 0.625318 -0.174480
C112  C     C_1   0.937408 0.062371 0.374688 -0.174478
C113  C     C_3   0.646027 0.645137 0.792412 0.272545
C114  C     C_3   0.353800 0.645128 0.207571 0.272605
C115  C     C_3   0.146035 0.145136 0.792414 0.272531
C116  C     C_3   0.854058 0.145146 0.207606 0.272498
C117  C     C_3   0.613074 0.592649 0.765252 -0.366846
C118  C     C_3   0.379788 0.591021 0.231473 -0.367287
C119  C     C_3   0.113383 0.092568 0.765415 -0.366865
C120  C     C_3   0.890379 0.093617 0.236698 -0.366615
C121  C     C_3   0.604523 0.603919 0.709584 0.273980
C122  C     C_3   0.395349 0.603899 0.290375 0.273986
C123  C     C_3   0.104528 0.103918 0.709586 0.273960
C124  C     C_3   0.895539 0.103932 0.290443 0.273962
C125  C     C_3   0.650781 0.612041 0.727392 -0.381354
C126  C     C_3   0.353091 0.615623 0.279840 -0.381398
C127  C     C_3   0.150634 0.112195 0.727080 -0.381353
C128  C     C_3   0.847694 0.110318 0.269128 -0.381396
C129  C     C_3   0.674639 0.636720 0.774969 -0.360754
C130  C     C_3   0.329334 0.640304 0.232266 -0.360849
C131  C     C_3   0.174487 0.136874 0.774657 -0.360761
C132  C     C_3   0.823784 0.134992 0.221542 -0.360678
C133  C     C_R   0.816418 0.749999 0.999916 0.786682
C134  C     C_R   0.183583 0.749999 0.000086 0.786696
C135  C     C_R   0.316417 0.249999 0.999915 0.786678
C136  C     C_R   0.683582 0.249999 0.000084 0.786665
C137  C     C_1   0.581456 0.581094 0.663177 -0.098998
C138  C     C_1   0.418494 0.581083 0.336802 -0.098992
C139  C     C_1   0.081458 0.081093 0.663178 -0.098982
C140  C     C_1   0.918568 0.081100 0.336836 -0.098983
C141  C     C_1   0.668782 0.668555 0.837724 -0.108665
C142  C     C_1   0.331139 0.668551 0.162269 -0.108704
C143  C     C_1   0.168786 0.168554 0.837724 -0.108656
C144  C     C_1   0.831256 0.168558 0.162283 -0.108624
C145  C     C_1   0.687507 0.687543 0.875047 -0.180262
C146  C     C_1   0.312464 0.687542 0.124951 -0.180310
C147  C     C_1   0.187508 0.187543 0.875047 -0.180250
C148  C     C_1   0.812507 0.187544 0.124954 -0.180224
C149  C     C_R   0.039963 0.959997 0.579874 0.828774
C150  C     C_R   0.960037 0.959997 0.420125 0.828760
C151  C     C_R   0.539963 0.459997 0.579874 0.828795
C152  C     C_R   0.460037 0.459997 0.420125 0.828814
C153  C     C_R   0.459851 0.540047 0.419649 0.825589
C154  C     C_R   0.540148 0.540047 0.580350 0.825572
C155  C     C_R   0.959852 0.040047 0.419650 0.825565
C156  C     C_R   0.040148 0.040047 0.580350 0.825575
C157  C     C_R   0.616435 0.774372 0.978265 -0.185691
C158  C     C_R   0.383572 0.774368 0.021750 -0.185678
C159  C     C_R   0.116431 0.274369 0.978258 -0.185676
C160  C     C_R   0.883564 0.274370 0.021734 -0.185688
C161  C     C_R   0.580748 0.774481 0.978816 -0.159050
C162  C     C_R   0.419260 0.774478 0.021198 -0.159033
C163  C     C_R   0.080743 0.274478 0.978808 -0.159034
C164  C     C_R   0.919252 0.274479 0.021183 -0.159048
C165  C     C_R   0.572996 0.749950 0.999989 0.057649
C166  C     C_R   0.427002 0.749951 0.000005 0.057669
C167  C     C_R   0.072995 0.249948 0.999988 0.057636
C168  C     C_R   0.927004 0.249948 0.000011 0.057629
C169  C     C_R   0.601910 0.725430 0.021156 -0.158773
C170  C     C_R   0.398078 0.725435 0.978819 -0.158838
C171  C     C_R   0.101914 0.225430 0.021163 -0.158753
C172  C     C_R   0.898091 0.225428 0.978846 -0.158709
C173  C     C_R   0.638144 0.725563 0.021696 -0.186014
C174  C     C_R   0.361845 0.725568 0.978281 -0.185992
C175  C     C_R   0.138148 0.225563 0.021702 -0.186002
C176  C     C_R   0.861857 0.225561 0.978307 -0.186013
Cu1   Cu    Cu3+1 0.770670 0.729330 0.041290 0.944019
Cu2   Cu    Cu3+1 0.229330 0.729330 0.958710 0.943907
Cu3   Cu    Cu3+1 0.270670 0.229330 0.041290 0.944029
Cu4   Cu    Cu3+1 0.729330 0.229330 0.958710 0.944098
Cu5   Cu    Cu3+1 0.729320 0.770650 0.958570 0.945189
Cu6   Cu    Cu3+1 0.270680 0.770650 0.041430 0.945274
Cu7   Cu    Cu3+1 0.229320 0.270650 0.958570 0.945260
Cu8   Cu    Cu3+1 0.770680 0.270650 0.041430 0.945180
Cu9   Cu    Cu3+1 0.534140 0.500060 0.499790 0.950460
Cu10  Cu    Cu3+1 0.465860 0.500060 0.500210 0.950434
Cu11  Cu    Cu3+1 0.034140 0.000060 0.499790 0.950545
Cu12  Cu    Cu3+1 0.965860 0.000060 0.500210 0.950458
H1    H     H_    0.621521 0.793522 0.961457 0.148613
H2    H     H_    0.378495 0.793515 0.038574 0.148623
H3    H     H_    0.121513 0.293518 0.961444 0.148633
H4    H     H_    0.878479 0.293521 0.038541 0.148618
H5    H     H_    0.852223 0.926077 0.217666 0.180096
H6    H     H_    0.146509 0.926163 0.782515 0.180097
H7    H     H_    0.352997 0.426132 0.217552 0.180189
H8    H     H_    0.646920 0.426137 0.782461 0.180101
H9    H     H_    0.830566 0.837546 0.253777 0.162026
H10   H     H_    0.170906 0.838237 0.747612 0.162021
H11   H     H_    0.329665 0.337967 0.252931 0.162024
H12   H     H_    0.670432 0.338012 0.747161 0.162023
H13   H     H_    0.794470 0.864692 0.197951 0.166977
H14   H     H_    0.206000 0.865499 0.803665 0.166982
H15   H     H_    0.294179 0.365187 0.196963 0.166995
H16   H     H_    0.705852 0.365239 0.803145 0.166981
H17   H     H_    0.862936 0.874563 0.323195 0.166568
H18   H     H_    0.138513 0.875285 0.678256 0.166615
H19   H     H_    0.362049 0.375003 0.322312 0.166592
H20   H     H_    0.638046 0.375050 0.677786 0.166595
H21   H     H_    0.904750 0.824316 0.282364 0.177767
H22   H     H_    0.096408 0.824126 0.717245 0.177780
H23   H     H_    0.404045 0.324197 0.282607 0.177775
H24   H     H_    0.596031 0.324185 0.717367 0.177772
H25   H     H_    0.829699 0.901178 0.267317 0.160534
H26   H     H_    0.170723 0.901973 0.734276 0.160477
H27   H     H_    0.329437 0.401665 0.266344 0.160511
H28   H     H_    0.670591 0.401717 0.733764 0.160496
H29   H     H_    0.815650 0.769303 0.912690 0.148682
H30   H     H_    0.184356 0.769297 0.087319 0.148682
H31   H     H_    0.315648 0.269303 0.912688 0.148690
H32   H     H_    0.684352 0.269302 0.087313 0.148685
H33   H     H_    0.878446 0.769087 0.912464 0.148103
H34   H     H_    0.121562 0.769079 0.087549 0.148103
H35   H     H_    0.378442 0.269087 0.912461 0.148105
H36   H     H_    0.621557 0.269087 0.087540 0.148103
H37   H     H_    0.965815 0.731066 0.087454 0.148048
H38   H     H_    0.034186 0.731068 0.912551 0.148052
H39   H     H_    0.465815 0.231068 0.087451 0.148053
H40   H     H_    0.534184 0.231071 0.912546 0.148053
H41   H     H_    0.558884 0.793632 0.961995 0.148063
H42   H     H_    0.441130 0.793626 0.038034 0.148066
H43   H     H_    0.058877 0.293627 0.961982 0.148076
H44   H     H_    0.941114 0.293630 0.038002 0.148070
H45   H     H_    0.902768 0.730762 0.087162 0.148628
H46   H     H_    0.097231 0.730765 0.912839 0.148627
H47   H     H_    0.402769 0.230763 0.087161 0.148629
H48   H     H_    0.597230 0.230766 0.912836 0.148628
H49   H     H_    0.580091 0.586818 0.753122 0.135206
H50   H     H_    0.409848 0.582597 0.238367 0.134785
H51   H     H_    0.080511 0.086626 0.753510 0.135203
H52   H     H_    0.924528 0.089038 0.251358 0.135384
H53   H     H_    0.611613 0.623908 0.818702 0.099102
H54   H     H_    0.378700 0.619539 0.172489 0.099084
H55   H     H_    0.112014 0.123710 0.819100 0.099113
H56   H     H_    0.892795 0.126180 0.185884 0.099142
H57   H     H_    0.604510 0.676411 0.718495 0.182825
H58   H     H_    0.403343 0.675529 0.279705 0.182913
H59   H     H_    0.104151 0.176391 0.718536 0.182843
H60   H     H_    0.891340 0.176532 0.281757 0.182790
H61   H     H_    0.577727 0.663207 0.745768 0.164058
H62   H     H_    0.422332 0.658605 0.244927 0.164015
H63   H     H_    0.077690 0.163020 0.746148 0.164067
H64   H     H_    0.921644 0.165247 0.258358 0.164086
H65   H     H_    0.541826 0.627108 0.674648 0.167519
H66   H     H_    0.458154 0.622475 0.315983 0.167803
H67   H     H_    0.041792 0.126919 0.675031 0.167547
H68   H     H_    0.957582 0.129166 0.329513 0.167357
H69   H     H_    0.568212 0.640625 0.646885 0.173189
H70   H     H_    0.439615 0.639693 0.351215 0.173174
H71   H     H_    0.067853 0.140602 0.646931 0.173209
H72   H     H_    0.927646 0.140769 0.353413 0.173274
H73   H     H_    0.709271 0.629764 0.814322 0.175811
H74   H     H_    0.293014 0.634958 0.196171 0.175697
H75   H     H_    0.209207 0.129981 0.813883 0.175808
H76   H     H_    0.790228 0.127380 0.180860 0.175855
H77   H     H_    0.679078 0.656441 0.756928 0.161848
H78   H     H_    0.329960 0.661138 0.252546 0.161880
H79   H     H_    0.178707 0.156651 0.756504 0.161855
H80   H     H_    0.816887 0.154045 0.238236 0.161849
H81   H     H_    0.672941 0.592229 0.744569 0.158863
H82   H     H_    0.328878 0.597299 0.265675 0.159263
H83   H     H_    0.172897 0.092440 0.744142 0.158882
H84   H     H_    0.826781 0.089917 0.250757 0.158651
H85   H     H_    0.596861 0.706272 0.037980 0.148237
H86   H     H_    0.403120 0.706280 0.961979 0.148207
H87   H     H_    0.096868 0.206272 0.037992 0.148266
H88   H     H_    0.903140 0.206268 0.962023 0.148280
H89   H     H_    0.632735 0.571833 0.780627 0.176057
H90   H     H_    0.357887 0.571540 0.218799 0.176154
H91   H     H_    0.133154 0.071802 0.780688 0.176060
H92   H     H_    0.872043 0.072286 0.220281 0.176062
H93   H     H_    0.645543 0.619710 0.687852 0.168060
H94   H     H_    0.363358 0.624517 0.321843 0.167625
H95   H     H_    0.145179 0.119925 0.687419 0.168050
H96   H     H_    0.850508 0.117271 0.307224 0.168261
H97   H     H_    0.660029 0.706421 0.038494 0.148568
H98   H     H_    0.339953 0.706429 0.961468 0.148574
H99   H     H_    0.160036 0.206423 0.038506 0.148583
H100  H     H_    0.839972 0.206419 0.961510 0.148576
H101  H     H_    0.952841 0.880127 0.300385 0.103040
H102  H     H_    0.046799 0.879351 0.698060 0.103019
H103  H     H_    0.453066 0.379651 0.301335 0.103024
H104  H     H_    0.546910 0.379601 0.698561 0.103026
H105  H     H_    0.922114 0.839179 0.244419 0.140656
H106  H     H_    0.077828 0.838443 0.754104 0.140643
H107  H     H_    0.422154 0.338727 0.245323 0.140646
H108  H     H_    0.577842 0.338680 0.754579 0.140645
H109  H     H_    0.819669 0.890475 0.145584 0.173824
H110  H     H_    0.179001 0.890510 0.854494 0.173869
H111  H     H_    0.320480 0.390499 0.145533 0.173917
H112  H     H_    0.679432 0.390501 0.854473 0.173857
H113  H     H_    0.873782 0.881436 0.167740 0.167559
H114  H     H_    0.124669 0.880836 0.831061 0.167564
H115  H     H_    0.374731 0.381071 0.168470 0.167576
H116  H     H_    0.625167 0.381032 0.831451 0.167560
H117  H     H_    0.905281 0.919069 0.235805 0.164204
H118  H     H_    0.093136 0.918509 0.763075 0.164301
H119  H     H_    0.406250 0.418728 0.236487 0.164299
H120  H     H_    0.593646 0.418692 0.763440 0.164271
N1    N     N_R   0.517197 0.724186 0.000115 -0.241890
N2    N     N_R   0.482790 0.724186 0.999858 -0.241904
N3    N     N_R   0.017205 0.224183 0.000131 -0.241837
N4    N     N_R   0.982799 0.224183 0.999876 -0.241826
N5    N     N_R   0.482929 0.775705 0.000135 -0.242171
N6    N     N_R   0.517079 0.775705 0.999879 -0.242170
N7    N     N_R   0.982922 0.275702 0.000124 -0.242171
N8    N     N_R   0.017071 0.275702 0.999866 -0.242169
N9    N     N_R   0.008624 0.750035 0.051619 -0.242198
N10   N     N_R   0.991381 0.750037 0.948390 -0.242192
N11   N     N_R   0.508622 0.250039 0.051615 -0.242193
N12   N     N_R   0.491377 0.250040 0.948384 -0.242194
N13   N     N_R   0.042910 0.750161 0.051640 -0.242130
N14   N     N_R   0.957095 0.750165 0.948369 -0.242126
N15   N     N_R   0.542908 0.250167 0.051635 -0.242124
N16   N     N_R   0.457092 0.250167 0.948364 -0.242124
O1    O     O_R   0.797590 0.762690 0.095140 -0.580081
O2    O     O_R   0.202410 0.762690 0.904860 -0.580073
O3    O     O_R   0.297590 0.262690 0.095140 -0.580087
O4    O     O_R   0.702410 0.262690 0.904860 -0.580085
O5    O     O_R   0.001220 0.969910 0.560160 -0.579389
O6    O     O_R   0.998780 0.969910 0.439840 -0.579251
O7    O     O_R   0.501220 0.469910 0.560160 -0.579341
O8    O     O_R   0.498780 0.469910 0.439840 -0.579332
O9    O     O_R   0.498640 0.530200 0.439450 -0.582423
O10   O     O_R   0.501360 0.530200 0.560550 -0.582434
O11   O     O_R   0.998640 0.030200 0.439450 -0.582434
O12   O     O_R   0.001360 0.030200 0.560550 -0.582422
O13   O     O_R   0.440860 0.530190 0.439480 -0.582626
O14   O     O_R   0.559140 0.530190 0.560520 -0.582598
O15   O     O_R   0.940860 0.030190 0.439480 -0.582578
O16   O     O_R   0.059140 0.030190 0.560520 -0.582601
O17   O     O_R   0.762670 0.797580 0.025290 -0.580157
O18   O     O_R   0.237330 0.797580 0.974710 -0.580159
O19   O     O_R   0.262670 0.297580 0.025290 -0.580134
O20   O     O_R   0.737330 0.297580 0.974710 -0.580150
O21   O     O_R   0.717530 0.732550 0.034860 -0.587337
O22   O     O_R   0.282470 0.732550 0.965140 -0.587294
O23   O     O_R   0.217530 0.232550 0.034860 -0.587337
O24   O     O_R   0.782470 0.232550 0.965140 -0.587356
O25   O     O_R   0.682610 0.767440 0.965010 -0.587115
O26   O     O_R   0.317390 0.767440 0.034990 -0.587108
O27   O     O_R   0.182610 0.267440 0.965010 -0.587105
O28   O     O_R   0.817390 0.267440 0.034990 -0.587114
O29   O     O_R   0.737310 0.702410 0.974570 -0.581928
O30   O     O_R   0.262690 0.702410 0.025430 -0.582288
O31   O     O_R   0.237310 0.202410 0.974570 -0.581944
O32   O     O_R   0.762690 0.202410 0.025430 -0.581727
O33   O     O_R   0.702390 0.737290 0.904720 -0.579617
O34   O     O_R   0.297610 0.737290 0.095280 -0.579507
O35   O     O_R   0.202390 0.237290 0.904720 -0.579607
O36   O     O_R   0.797610 0.237290 0.095280 -0.579672
O37   O     O_R   0.817380 0.732550 0.034850 -0.587017
O38   O     O_R   0.182620 0.732550 0.965150 -0.587051
O39   O     O_R   0.317380 0.232550 0.034850 -0.587020
O40   O     O_R   0.682620 0.232550 0.965150 -0.587008
O41   O     O_R   0.782460 0.767430 0.965000 -0.587155
O42   O     O_R   0.217540 0.767430 0.035000 -0.587150
O43   O     O_R   0.282460 0.267430 0.965000 -0.587148
O44   O     O_R   0.717540 0.267430 0.035000 -0.587151
O45   O     O_R   0.059000 0.969920 0.560140 -0.582467
O46   O     O_R   0.941000 0.969920 0.439860 -0.582527
O47   O     O_R   0.559000 0.469920 0.560140 -0.582497
O48   O     O_R   0.441000 0.469920 0.439860 -0.582504
N17   N     N_2   0.960719 0.859776 0.368181 -0.425635
H121  H     H_    0.986533 0.846711 0.377787 0.246531
C177  C     C_3   0.942998 0.849375 0.395581 -0.673043
H122  H     H_    0.970007 0.837387 0.436996 0.211889
H123  H     H_    0.914168 0.834019 0.366103 0.217792
H124  H     H_    0.933018 0.868368 0.408338 0.235848
N18   N     N_2   0.040392 0.859395 0.631046 -0.425763
H125  H     H_    0.014634 0.846023 0.620820 0.246476
C178  C     C_3   0.059052 0.849461 0.604576 -0.673151
H126  H     H_    0.032608 0.837389 0.562979 0.211873
H127  H     H_    0.088095 0.834311 0.634466 0.217850
H128  H     H_    0.069015 0.868695 0.592305 0.235877
N19   N     N_2   0.460045 0.359540 0.368658 -0.425719
H129  H     H_    0.485826 0.346286 0.378643 0.246485
C179  C     C_3   0.441749 0.349424 0.395491 -0.673004
H130  H     H_    0.468413 0.337383 0.437019 0.211896
H131  H     H_    0.412787 0.334194 0.365761 0.217804
H132  H     H_    0.431778 0.368566 0.407950 0.235867
N20   N     N_2   0.540029 0.359516 0.631290 -0.425729
H133  H     H_    0.514250 0.346243 0.621263 0.246481
C180  C     C_3   0.558387 0.349430 0.604519 -0.673014
H134  H     H_    0.531759 0.337384 0.562979 0.211895
H135  H     H_    0.587362 0.334213 0.634276 0.217807
H136  H     H_    0.568357 0.368587 0.592092 0.235871
N21   N     N_2   0.676740 0.607155 0.872552 -0.426684
H137  H     H_    0.689137 0.620943 0.907704 0.255590
C181  C     C_3   0.707596 0.584880 0.881839 -0.681292
H138  H     H_    0.742109 0.588749 0.924802 0.219367
H139  H     H_    0.709791 0.585129 0.846687 0.222663
H140  H     H_    0.696074 0.562786 0.883295 0.227445
N22   N     N_2   0.312310 0.606743 0.126639 -0.426928
H141  H     H_    0.298862 0.620055 0.090530 0.255878
C182  C     C_3   0.280973 0.587166 0.122801 -0.681159
H142  H     H_    0.245683 0.592408 0.082612 0.219500
H143  H     H_    0.283192 0.589202 0.161567 0.222845
H144  H     H_    0.288297 0.564037 0.119251 0.227473
N23   N     N_2   0.177228 0.107117 0.872629 -0.426687
H145  H     H_    0.189667 0.120883 0.907825 0.255610
C183  C     C_3   0.208127 0.084951 0.881696 -0.681276
H146  H     H_    0.242685 0.088876 0.924547 0.219375
H147  H     H_    0.210135 0.085282 0.846377 0.222669
H148  H     H_    0.196787 0.062806 0.883256 0.227447
N24   N     N_2   0.828829 0.107715 0.128569 -0.426569
H149  H     H_    0.816912 0.121749 0.093914 0.255395
C184  C     C_3   0.798568 0.084259 0.116896 -0.681283
H150  H     H_    0.764633 0.087547 0.072758 0.219303
H151  H     H_    0.794342 0.083563 0.150138 0.222562
H152  H     H_    0.812110 0.062769 0.116660 0.227482

loop_
_geom_bond_atom_site_label_1
_geom_bond_atom_site_label_2
_ccdc_geom_bond_type
C78   H38   S    
C3    O3    A    
C157  C161  A    
C183  H147  S    
C101  C113  S    
C142  C146  T    
C102  H58   S    
C105  H65   S    
C179  H132  S    
C50   H10   S    
C111  C139  T    
N22   C182  S    
C25   C53   T    
N21   C181  S    
C119  H91   S    
C27   C55   T    
C120  H92   S    
C7    C159  A    
C151  O47   A    
C72   H36   S    
C99   N23   S    
C181  H139  S    
C31   C59   S    
C32   C52   S    
Cu5   O17   S    
C6    C158  A    
C104  C116  S    
C86   C134  S    
C112  C155  S    
C46   O26   A    
C70   C74   A    
Cu1   O37   S    
C98   C118  S    
C4    O20   A    
C9    N5    A    
C141  C145  T    
C19   C31   S    
C114  C130  S    
C74   C93   S    
C108  C124  S    
Cu9   O8    S    
C41   C49   S    
Cu12  O15   S    
C126  H82   S    
C17   H109  S    
C50   H14   S    
C165  C169  A    
N11   N15   A    
C12   N3    A    
C149  O5    A    
C164  C168  A    
Cu6   O42   S    
C48   O24   A    
C118  H90   S    
C167  C171  A    
C6    C174  A    
C91   O31   A    
C2    O2    A    
Cu2   O22   S    
C103  H59   S    
C19   C23   S    
Cu12  O46   S    
C33   N17   S    
C34   N18   S    
C102  C114  S    
C41   H25   S    
C78   C82   A    
C36   C40   S    
C68   C72   A    
C175  H99   S    
C153  O13   A    
C109  C154  S    
C176  H100  S    
Cu2   Cu6   S    
Cu3   O3    S    
C161  H41   S    
C83   H47   S    
C178  H126  S    
C81   H45   S    
C179  H130  S    
C160  C164  A    
Cu11  O16   S    
C149  O45   A    
C170  C174  A    
Cu6   O18   S    
C46   O22   A    
C152  O8    A    
C68   H32   S    
C44   H28   S    
Cu4   O32   S    
C26   C149  S    
C84   C88   A    
C39   C43   S    
C177  H122  S    
C57   C61   T    
C119  C123  S    
C180  H134  S    
C35   N19   S    
C59   C63   T    
C60   C64   T    
C22   H118  S    
C103  H63   S    
C134  O38   A    
C182  H142  S    
C65   H29   S    
C66   C70   A    
Cu11  O45   S    
C69   H33   S    
C1    O17   A    
C127  C131  S    
C98   H54   S    
C171  H87   S    
C3    O19   A    
C125  C129  S    
C131  H79   S    
C126  C130  S    
Cu12  O12   S    
C103  C107  S    
N23   H145  S    
C75   C79   A    
C161  C165  A    
Cu4   Cu8   S    
N19   C179  S    
C22   C38   S    
C122  C126  S    
C27   C152  S    
C104  H64   S    
C112  C140  T    
C96   N16   A    
C91   C147  S    
Cu2   O2    S    
C49   H9    S    
C89   C145  S    
C97   N21   S    
C20   H116  S    
C9    C166  S    
C73   C94   S    
C158  H2    S    
Cu7   O19   S    
Cu1   O29   S    
C181  H138  S    
C174  H98   S    
C123  C139  S    
C4    O4    A    
C92   O32   A    
C107  H71   S    
C118  C122  S    
C121  C137  S    
C116  C144  S    
C47   O23   A    
C35   H103  S    
C178  H128  S    
N24   C184  S    
C52   H12   S    
C156  O16   A    
C100  H56   S    
C37   C53   S    
C44   C52   S    
C127  H83   S    
C97   C117  S    
C128  H84   S    
C154  O10   A    
C26   C54   T    
C184  H151  S    
Cu8   O44   S    
C2    O18   A    
C131  H75   S    
C180  H136  S    
C49   H13   S    
Cu8   O20   S    
C13   H21   S    
Cu12  O5    S    
C182  H144  S    
C104  H60   S    
C94   N14   A    
C99   C119  S    
Cu5   O33   S    
C121  C125  S    
C123  C127  S    
C116  C132  S    
C106  C122  S    
C107  H67   S    
Cu10  O48   S    
C42   C50   S    
C125  H93   S    
C166  C170  A    
Cu2   O30   S    
C128  H96   S    
Cu8   O28   S    
C20   C32   S    
C177  H124  S    
N20   C180  S    
C73   C77   A    
C18   C22   S    
C5    C173  A    
C101  H61   S    
C76   C80   A    
C31   C51   S    
C179  H131  S    
C66   C86   A    
C8    C176  A    
C15   C31   S    
C16   C32   S    
C98   C114  S    
C13   H105  S    
C124  C128  S    
C67   H31   S    
C110  C153  S    
N21   H137  S    
C16   C36   S    
C119  H51   S    
Cu1   Cu5   S    
C113  C141  S    
C152  O48   A    
C37   C41   S    
C135  O39   A    
Cu4   O24   S    
C150  O6    A    
C117  H49   S    
C40   C44   S    
C28   C151  S    
C23   H7    S    
C169  C173  A    
C21   H5    S    
Cu6   O34   S    
C81   C85   A    
C172  C176  A    
C89   O29   A    
C58   C62   T    
C83   C87   A    
C77   H37   S    
C92   C148  S    
C17   C29   S    
C106  H66   S    
C23   H119  S    
C100  C116  S    
C107  C123  S    
C80   C84   A    
C101  H57   S    
C12   C167  S    
C155  O15   A    
N18   H125  S    
C133  O41   A    
C16   H108  S    
N12   N16   A    
C13   C29   S    
C84   H48   S    
N17   C177  S    
C99   C115  S    
C24   H8    S    
C36   N20   S    
C150  O46   A    
C15   C35   S    
Cu9   O14   S    
C162  C166  A    
C39   C55   S    
C40   C56   S    
C69   C73   A    
C72   C76   A    
C132  H76   S    
C118  H50   S    
C30   C50   S    
N7    N8    A    
Cu9   O47   S    
C102  H62   S    
C93   N10   A    
C108  H68   S    
C183  H148  S    
C95   N12   A    
C129  H73   S    
C172  H88   S    
C51   H15   S    
C75   C96   S    
C155  O11   A    
C136  O44   A    
C28   C56   T    
N10   N14   A    
C43   H19   S    
C12   N8    A    
C159  H3    S    
C169  H85   S    
C122  C138  S    
C92   O36   A    
C29   C49   S    
C9    N2    A    
Cu3   O23   S    
C82   C86   A    
C5    C45   S    
C90   O30   A    
C33   C37   S    
C11   N4    A    
C52   H16   S    
C7    C47   S    
C103  C115  S    
C8    C48   S    
C14   C34   S    
C87   C135  S    
C38   C54   S    
C77   C81   A    
C45   O25   A    
C154  O14   A    
C80   H40   S    
C88   C136  S    
C162  H42   S    
C120  H52   S    
C10   N6    A    
C47   O27   A    
C5    C157  A    
C82   H46   S    
C11   C168  S    
C19   H115  S    
C32   C60   S    
Cu5   O25   S    
C8    C160  A    
Cu9   O9    S    
C104  C108  S    
C129  H77   S    
Cu8   O36   S    
Cu7   O27   S    
N19   H129  S    
Cu10  O13   S    
Cu11  O11   S    
C105  H69   S    
C124  C140  S    
C1    C61   S    
C33   H101  S    
C3    C63   S    
C4    C64   S    
Cu9   Cu10  S    
C151  O7    A    
Cu11  Cu12  S    
C66   H30   S    
C79   C83   A    
Cu11  O6    S    
C43   C51   S    
N5    N6    A    
C65   C69   A    
C126  H94   S    
C70   H34   S    
C42   H18   S    
C67   C71   A    
C99   H55   S    
C17   C21   S    
N18   C178  S    
C97   H53   S    
C130  H78   S    
N9    N13   A    
C168  C172  A    
C21   C37   S    
C74   C78   A    
C183  H146  S    
C178  H127  S    
N17   H121  S    
C85   C133  S    
C181  H140  S    
N3    N4    A    
C14   H106  S    
C17   H113  S    
C35   C39   S    
N22   H141  S    
C144  C148  T    
C43   H27   S    
C184  H150  S    
N20   H133  S    
C115  C131  S    
N1    N2    A    
C20   H112  S    
C143  C147  T    
C180  H135  S    
C15   H107  S    
C113  C129  S    
C114  C142  S    
Cu3   O39   S    
C135  O43   A    
C38   C42   S    
C163  H43   S    
C182  H143  S    
C76   C95   S    
C156  O12   A    
C23   C39   S    
Cu6   O26   S    
Cu10  O10   S    
C30   C58   S    
C44   H20   S    
Cu4   O40   S    
C109  C137  T    
C127  H95   S    
Cu2   O38   S    
C117  C121  S    
C15   H23   S    
C48   O28   A    
C89   O33   A    
C20   C24   S    
C91   O35   A    
C7    C175  A    
C164  H44   S    
C117  H89   S    
C18   C30   S    
N23   C183  S    
C111  C156  S    
C133  O37   A    
C100  N24   S    
C14   C30   S    
C153  O9    A    
C128  C132  S    
C96   N11   A    
C79   H39   S    
Cu3   Cu7   S    
C177  H123  S    
C101  C105  S    
C115  C143  S    
C71   H35   S    
C14   H22   S    
C16   H24   S    
Cu1   O1    S    
C95   N15   A    
C171  C175  A    
C125  H81   S    
C25   C150  S    
C24   H120  S    
C163  C167  A    
C42   H26   S    
C132  H80   S    
N24   H149  S    
C21   H117  S    
C94   N9    A    
C105  C121  S    
C130  H74   S    
C134  O42   A    
C51   H11   S    
C100  C120  S    
C136  O40   A    
C110  C138  T    
Cu10  O7    S    
Cu3   O31   S    
C68   C88   A    
C159  C163  A    
C108  H72   S    
C98   N22   S    
C97   C113  S    
C170  H86   S    
C184  H152  S    
C36   H104  S    
C10   N1    A    
C90   O34   A    
C6    C46   S    
C34   C38   S    
C29   C57   S    
C65   C85   A    
Cu4   O4    S    
C45   O21   A    
C67   C87   A    
Cu7   O35   S    
C18   H110  S    
C90   C146  S    
C93   N13   A    
C71   C75   A    
C10   C165  S    
C11   N7    A    
C18   H114  S    
C24   C40   S    
C19   H111  S    
C102  C106  S    
C41   H17   S    
C157  H1    S    
C158  C162  A    
C160  H4    S    
C2    C62   S    
C173  H97   S    
C13   C33   S    
Cu5   O41   S    
C106  H70   S    
C22   H6    S    
Cu7   O43   S    
C1    O1    A    
C120  C124  S    
Cu1   O21   S    
C34   H102  S    
