data_mof_unit_20911.cif
_audit_creation_date              2012-12-11T17:43:14-0500
_audit_creation_method            fapswitch 2.2
_symmetry_space_group_name_H-M    P1
_symmetry_Int_Tables_number       1
_space_group_crystal_system       triclinic
_cell_length_a                    15.040857
_cell_length_b                    15.151841
_cell_length_c                    17.109905
_cell_angle_alpha                 108.520725
_cell_angle_beta                  106.25633
_cell_angle_gamma                 108.558406
_cell_volume                      3174.60187929

loop_
_atom_site_label
_atom_site_type_symbol
_atom_type_description
_atom_site_fract_x
_atom_site_fract_y
_atom_site_fract_z
_atom_type_partial_charge
Br1   Br    Br    0.122959 0.754845 0.450189 -0.425474
Br2   Br    Br    0.869426 0.338042 0.531026 -0.459371
Br3   Br    Br    0.776958 0.116764 0.634578 -0.456699
Br4   Br    Br    0.240459 0.905250 0.349342 -0.469652
C1    C     C_R   0.088743 0.290696 0.078211 -0.169162
C2    C     C_R   0.071592 0.077519 0.020931 -0.203027
C3    C     C_R   0.994297 0.916020 0.025476 0.051233
C4    C     C_R   0.008557 0.110119 0.056213 0.062669
C5    C     C_R   0.062734 0.979237 0.002064 0.016564
C6    C     C_R   0.939435 0.047802 0.079682 0.021242
C7    C     C_R   0.768323 0.019626 0.086512 -0.132892
C8    C     C_R   0.225881 0.997282 0.982615 -0.153438
C9    C     C_R   0.751755 0.154980 0.194917 -0.057215
C10   C     C_R   0.220539 0.877122 0.846280 -0.057201
C11   C     C_R   0.416601 0.516675 0.261041 -0.112767
C12   C     C_R   0.908147 0.721997 0.959905 -0.143906
C13   C     C_R   0.550776 0.422637 0.683276 -0.117341
C14   C     C_R   0.431174 0.527719 0.186869 -0.075997
C15   C     C_R   0.535010 0.406732 0.755452 -0.109066
C16   C     C_R   0.937051 0.490759 0.737659 -0.061357
C17   C     C_R   0.060723 0.544852 0.263920 -0.091752
C18   C     C_R   0.429953 0.445553 0.118363 0.145928
C19   C     C_R   0.505989 0.471150 0.811359 0.151773
C20   C     C_R   0.414794 0.352480 0.125427 -0.159243
C21   C     C_R   0.496497 0.554062 0.795493 -0.138269
C22   C     C_R   0.399947 0.341572 0.199571 -0.097555
C23   C     C_R   0.029885 0.528888 0.729477 0.128634
C24   C     C_R   0.513195 0.570340 0.723800 -0.089775
C25   C     C_R   0.400962 0.423651 0.267376 -0.070010
C26   C     C_R   0.539735 0.504256 0.667377 -0.073135
C27   C     C_R   0.546327 0.484502 0.046460 0.172586
C28   C     C_R   0.384792 0.429440 0.880983 0.172198
C29   C     C_R   0.563018 0.475767 0.968698 -0.056102
C30   C     C_R   0.367884 0.436158 0.958535 -0.057803
C31   C     C_R   0.484386 0.453932 0.886445 -0.063668
C32   C     C_R   0.447203 0.456382 0.039882 -0.074974
C33   C     C_R   0.707223 0.055100 0.123492 -0.050166
C34   C     C_R   0.966390 0.526828 0.270601 0.119643
C35   C     C_R   0.276888 0.964430 0.931124 -0.041156
C36   C     C_R   0.951072 0.554850 0.353862 0.014637
C37   C     C_R   0.039123 0.541132 0.650677 -0.001494
C38   C     C_R   0.133651 0.641026 0.589733 0.285743
C39   C     C_R   0.853831 0.482397 0.426769 0.276913
C40   C     C_R   0.722878 0.214498 0.821479 0.259762
C41   C     C_R   0.280474 0.781031 0.173387 0.247205
C42   C     C_R   0.130093 0.616301 0.660431 -0.307022
C43   C     C_R   0.856647 0.495907 0.351487 -0.259443
C44   C     C_R   0.953556 0.483303 0.566666 0.298327
C45   C     C_R   0.672766 0.216434 0.741925 0.029343
C46   C     C_R   0.036286 0.621668 0.437405 0.306054
C47   C     C_R   0.948253 0.520754 0.501802 -0.100458
C48   C     C_R   0.040643 0.597865 0.510864 -0.093479
C49   C     C_R   0.595681 0.126956 0.658967 -0.070014
C50   C     C_R   0.413693 0.868124 0.331661 -0.072027
C51   C     C_R   0.590557 0.965281 0.442128 -0.138726
C52   C     C_R   0.419300 0.027537 0.547618 -0.123671
C53   C     C_R   0.518151 0.891905 0.355009 0.193932
C54   C     C_R   0.489814 0.095385 0.636462 0.193119
C55   C     C_R   0.381551 0.921822 0.391970 0.317225
C56   C     C_R   0.334045 0.778028 0.250858 0.055063
C57   C     C_R   0.630568 0.081467 0.596420 0.315618
C58   C     C_R   0.452735 0.987976 0.481870 -0.037610
C59   C     C_R   0.558794 0.011363 0.507141 -0.031319
C60   C     C_R   0.857579 0.219418 0.229855 -0.086877
C61   C     C_R   0.113110 0.822522 0.812869 -0.107680
C62   C     C_R   0.919009 0.184226 0.193269 -0.121519
C63   C     C_R   0.061960 0.854474 0.864371 -0.113600
C64   C     C_R   0.260517 0.532732 0.951569 -0.065068
C65   C     C_R   0.704841 0.423767 0.008380 -0.082565
C66   C     C_R   0.874809 0.084149 0.120657 0.100705
C67   C     C_R   0.280358 0.452766 0.963238 0.117619
C68   C     C_R   0.117987 0.941999 0.949792 0.106060
C69   C     C_R   0.731729 0.308668 0.744500 -0.109669
C70   C     C_R   0.272997 0.689176 0.251997 -0.118297
C71   C     C_R   0.235435 0.425971 0.016106 -0.119820
C72   C     C_R   0.720296 0.529301 0.941260 -0.126335
C73   C     C_R   0.110138 0.575071 0.815151 -0.104218
C74   C     C_R   0.887883 0.458864 0.184879 -0.110839
C75   C     C_R   0.917909 0.204181 0.000028 -0.053915
C76   C     C_R   0.080498 0.805254 0.042877 -0.048948
C77   C     C_R   0.004300 0.200241 0.049613 0.026935
C78   C     C_R   0.660222 0.478755 0.974253 0.117458
C79   C     C_R   0.992341 0.818156 0.015992 0.052477
C80   C     C_R   0.933416 0.949662 0.064045 -0.190661
H1    H     H_    0.166542 0.316262 0.126666 0.112819
H2    H     H_    0.548951 0.346969 0.769642 0.145373
H3    H     H_    0.414132 0.288503 0.073373 0.130010
H4    H     H_    0.475392 0.605603 0.838399 0.127905
H5    H     H_    0.387763 0.269545 0.204500 0.134248
H6    H     H_    0.505110 0.633912 0.711780 0.145613
H7    H     H_    0.785470 0.455120 0.290283 0.175435
H8    H     H_    0.200032 0.655382 0.722564 0.157746
H9    H     H_    0.859611 0.463918 0.688061 0.131205
H10   H     H_    0.137736 0.590901 0.318401 0.143735
H11   H     H_    0.625200 0.005282 0.096469 0.146431
H12   H     H_    0.830456 0.706956 0.920604 0.105071
H13   H     H_    0.360024 0.006988 0.956795 0.136899
H14   H     H_    0.670810 0.982841 0.458320 0.215543
H15   H     H_    0.338184 0.005079 0.531424 0.227236
H16   H     H_    0.704309 0.182396 0.223267 0.145727
H17   H     H_    0.260042 0.852408 0.806193 0.143958
H18   H     H_    0.892077 0.296668 0.285342 0.133249
H19   H     H_    0.068934 0.756176 0.746598 0.132269
H20   H     H_    0.001008 0.235047 0.221577 0.121213
H21   H     H_    0.978537 0.812144 0.837024 0.118652
H22   H     H_    0.291476 0.577031 0.918928 0.113871
H23   H     H_    0.732248 0.942588 0.030337 0.124855
H24   H     H_    0.670073 0.365689 0.028641 0.123681
H25   H     H_    0.713503 0.336250 0.693993 0.121624
H26   H     H_    0.294337 0.660986 0.301536 0.112308
H27   H     H_    0.235544 0.366208 0.036960 0.118204
H28   H     H_    0.703877 0.571099 0.903240 0.106018
H29   H     H_    0.190672 0.624579 0.836733 0.103824
H30   H     H_    0.805726 0.425182 0.165008 0.117206
H31   H     H_    0.840062 0.148455 0.977240 0.139384
H32   H     H_    0.158479 0.865868 0.083531 0.144390
H33   H     H_    0.882925 0.900104 0.083024 0.149697
H34   H     H_    0.270295 0.065501 0.047988 0.122940
H35   H     H_    0.121145 0.125417 0.000015 0.140680
H36   H     H_    0.389502 0.415117 0.324750 0.127777
H37   H     H_    0.552288 0.516616 0.611649 0.134279
H38   H     H_    0.417221 0.580094 0.313483 0.125285
H39   H     H_    0.571936 0.371992 0.639784 0.130205
H40   H     H_    0.440775 0.598705 0.181190 0.154375
I1    I     I_    0.673516 0.557737 0.179565 -0.356836
I2    I     I_    0.257120 0.376054 0.753851 -0.295326
I3    I     I_    0.287171 0.729091 0.608931 -0.340346
I4    I     I_    0.703555 0.413807 0.422193 -0.359220
I5    I     I_    0.427061 0.141127 0.730458 -0.325618
I6    I     I_    0.572771 0.822260 0.262896 -0.336138
I7    I     I_    0.649197 0.110665 0.867304 -0.419198
I8    I     I_    0.352722 0.867715 0.114134 -0.456389
N1    N     N_R   0.055660 0.348550 0.045620 -0.037591
N2    N     N_R   0.185200 0.638170 0.176300 -0.048329
N3    N     N_R   0.201680 0.494570 0.045620 -0.057315
N4    N     N_R   0.798320 0.505430 0.954380 -0.046484
N5    N     N_R   0.068420 0.560530 0.871650 -0.045014
N6    N     N_R   0.931580 0.439470 0.128350 -0.049294
N7    N     N_R   0.948070 0.295860 0.997670 -0.039407
N8    N     N_R   0.051930 0.704140 0.002330 -0.047952
N9    N     N_R   0.944340 0.651450 0.954380 -0.046320
N10   N     N_R   0.960830 0.507850 0.823700 -0.052509
N11   N     N_R   0.039170 0.492150 0.176300 -0.054744
N12   N     N_R   0.811290 0.303410 0.871650 -0.067129
N13   N     N_R   0.188710 0.696590 0.128350 -0.062508
N14   N     N_R   0.205200 0.552990 0.997670 -0.049004
N15   N     N_R   0.794800 0.447010 0.002330 -0.046576
N16   N     N_R   0.814800 0.361830 0.823700 -0.049748
Ni1   Ni    Ni4+2 0.119340 0.493420 0.109960 0.221220
Ni2   Ni    Ni4+2 0.880660 0.506580 0.890040 0.224686
Ni3   Ni    Ni4+2 0.872590 0.372590 0.000000 0.250675
Ni4   Ni    Ni4+2 0.127410 0.627410 0.000000 0.258255

loop_
_geom_bond_atom_site_label_1
_geom_bond_atom_site_label_2
_ccdc_geom_bond_type
C40   C45   A    
C36   C43   A    
C75   N7    A    
N5    N10   A    
C45   C49   S    
C41   C56   A    
C11   H38   S    
C75   H31   S    
C11   C14   A    
N15   Ni3   S    
C5    C68   S    
N12   N16   A    
C15   H2    S    
C2    C5    A    
C72   N4    A    
C7    C66   A    
C50   C56   S    
C40   I7    S    
C1    N1    A    
C41   N13   A    
C34   C36   S    
C73   N5    A    
N12   Ni3   S    
N6    N11   A    
C71   N3    A    
C35   H13   S    
C42   H8    S    
C17   H10   S    
C54   I5    S    
C33   H11   S    
C7    C33   A    
C63   C68   A    
C38   C42   A    
C28   I2    S    
C57   C59   A    
C3    C79   S    
C65   C78   A    
C6    C80   A    
C13   C15   A    
C10   C35   A    
C49   C57   A    
C13   H39   S    
C44   C47   A    
C17   C34   A    
C76   H32   S    
C80   H33   S    
C61   C63   A    
C51   C59   A    
C46   C48   A    
C37   C42   A    
C27   C29   A    
N5    Ni4   S    
C29   C78   S    
N8    Ni4   S    
C9    C33   A    
C72   H28   S    
C52   C58   A    
C1    H1    S    
C51   H14   S    
C3    C80   A    
C8    C68   A    
C13   C26   A    
C74   H30   S    
C64   H22   S    
C76   C79   A    
C73   H29   S    
C74   N6    A    
C65   H24   S    
C24   H6    S    
N9    Ni2   S    
C11   C25   A    
C50   C55   A    
Br3   C57   S    
C25   H36   S    
C12   H12   S    
C69   N16   A    
C4    C77   S    
N4    N15   A    
C28   C31   A    
C62   H20   S    
C53   I6    S    
N1    Ni1   S    
N8    N9    A    
C17   N11   A    
C72   C78   A    
C75   C77   A    
C63   H21   S    
C10   H17   S    
C2    C4    A    
C34   C74   A    
C16   H9    S    
Br2   C44   S    
N3    Ni1   S    
N2    Ni1   S    
C21   H4    S    
C47   C48   A    
C21   C24   A    
C28   C30   A    
C37   C44   A    
C15   C19   A    
C58   C59   A    
Br1   C46   S    
C16   N10   A    
N7    Ni3   S    
C1    C77   A    
C23   C37   S    
C26   H37   S    
C40   N12   A    
N3    N14   A    
C38   I3    S    
C22   C25   A    
N14   Ni4   S    
C6    C66   S    
C60   H18   S    
N1    N7    A    
C19   C31   S    
C51   C53   A    
C7    H23   S    
C65   N15   A    
C18   C20   A    
C61   H19   S    
C2    H35   S    
C64   N14   A    
C8    H34   S    
C3    C5    A    
N2    N13   A    
C55   C58   A    
C14   C18   A    
C43   H7    S    
C20   C22   A    
N16   Ni2   S    
C23   C73   A    
C39   I4    S    
C70   H26   S    
N4    Ni2   S    
C49   C54   A    
C69   H25   S    
C16   C23   A    
N6    Ni3   S    
C18   C32   S    
C71   H27   S    
N10   Ni2   S    
C9    H16   S    
C24   C26   A    
C12   N9    A    
C22   H5    S    
C76   N8    A    
C67   C71   A    
C39   C47   A    
C45   C69   A    
C62   C66   A    
C9    C60   A    
C8    C35   A    
C64   C67   A    
C36   C46   A    
C70   N2    A    
Br4   C55   S    
C56   C70   A    
C29   C31   A    
C10   C61   A    
C52   C54   A    
C30   C32   A    
C19   C21   A    
C20   H3    S    
N13   Ni4   S    
N11   Ni1   S    
C41   I8    S    
C4    C6    A    
C38   C48   A    
C27   I1    S    
C27   C32   A    
C12   C79   A    
C52   H15   S    
C14   H40   S    
C39   C43   A    
C30   C67   S    
C60   C62   A    
C50   C53   A    
