data_mof_unit_21722.cif
_audit_creation_date              2012-12-10T20:52:10-0500
_audit_creation_method            fapswitch 2.2
_symmetry_space_group_name_H-M    P1
_symmetry_Int_Tables_number       1
_space_group_crystal_system       triclinic
_cell_length_a                    10.884106
_cell_length_b                    8.887592
_cell_length_c                    8.326565
_cell_angle_alpha                 89.997301
_cell_angle_beta                  93.308473
_cell_angle_gamma                 89.94235
_cell_volume                      804.114847074

loop_
_atom_site_label
_atom_site_type_symbol
_atom_type_description
_atom_site_fract_x
_atom_site_fract_y
_atom_site_fract_z
_atom_type_partial_charge
C1    C     C_R   0.499923 0.219003 0.499969 0.928821
C2    C     C_R   0.500032 0.780999 0.500023 0.937194
C3    C     C_R   0.872848 0.477875 0.511311 -0.097923
C4    C     C_R   0.125284 0.499606 0.492421 -0.097582
C5    C     C_R   0.946130 0.527383 0.643810 0.019327
C6    C     C_R   0.052675 0.430326 0.368446 0.018462
C7    C     C_1   0.499946 0.065510 0.499977 -0.208126
C8    C     C_1   0.499987 0.934507 0.500002 -0.211393
C9    C     C_R   0.259361 0.501790 0.496182 0.863735
C10   C     C_R   0.739886 0.491522 0.504197 0.862025
C11   C     C_R   0.210019 0.526034 0.007969 0.114656
C12   C     C_R   0.818111 0.295424 0.958279 0.082741
C13   C     C_R   0.128762 0.535336 0.128129 -0.111315
C14   C     C_R   0.894938 0.338928 0.839800 -0.117654
C15   C     C_R   0.098778 0.406686 0.211899 0.080994
C16   C     C_R   0.907556 0.491810 0.802506 0.096463
C17   C     C_R   0.130362 0.263612 0.159084 -0.171129
C18   C     C_R   0.857539 0.602949 0.896314 -0.210176
C19   C     C_R   0.201908 0.250519 0.025712 0.117893
C20   C     C_R   0.781987 0.560824 0.017779 0.163178
C21   C     C_R   0.244337 0.381620 0.953586 -0.126898
C22   C     C_R   0.757456 0.406786 0.041724 -0.121855
C23   C     C_R   0.928108 0.415548 0.381720 -0.246771
C24   C     C_R   0.069546 0.550256 0.628297 -0.248894
H1    H     H_    0.307776 0.365598 0.862281 0.195300
H2    H     H_    0.694288 0.369711 0.127544 0.173011
H3    H     H_    0.102722 0.645392 0.171477 0.127882
H4    H     H_    0.936073 0.253531 0.766849 0.142912
H5    H     H_    0.104736 0.164804 0.225587 0.127255
H6    H     H_    0.868579 0.720758 0.866804 0.131664
H7    H     H_    0.874693 0.355261 0.291445 0.162380
H8    H     H_    0.122484 0.599320 0.726414 0.191143
N1    N     N_1   0.500020 0.500030 0.073640 -0.065407
N2    N     N_1   0.499980 0.499970 0.926360 -0.093516
O1    O     O_R   0.499990 0.285340 0.636850 -0.620487
O2    O     O_R   0.500010 0.714660 0.363150 -0.611236
O3    O     O_R   0.500010 0.285350 0.363100 -0.627544
O4    O     O_R   0.499990 0.714650 0.636900 -0.625549
O5    O     O_R   0.316750 0.500000 0.636870 -0.666239
O6    O     O_R   0.683250 0.500000 0.363130 -0.622894
O7    O     O_R   0.316770 0.500020 0.363120 -0.609001
O8    O     O_R   0.683230 0.499980 0.636880 -0.605758
Zn1   Zn    Zn3+2 0.499990 0.499990 0.682780 0.937229
Zn2   Zn    Zn3+2 0.500010 0.500010 0.317220 0.951377
N3    N     N_3   0.259676 0.665454 0.952865 -0.492900
H9    H     H_    0.319153 0.650027 0.861742 0.236792
H10   H     H_    0.311027 0.714536 0.049124 0.194083
N4    N     N_3   0.799501 0.138353 0.988695 -0.477212
H11   H     H_    0.742445 0.124034 0.084362 0.172418
H12   H     H_    0.752713 0.092769 0.886817 0.187755
N5    N     N_3   0.238385 0.106069 0.967758 -0.458688
H13   H     H_    0.333474 0.096201 0.991080 0.188884
H14   H     H_    0.197747 0.020226 0.032208 0.185058
N6    N     N_3   0.725379 0.674277 0.110367 -0.395378
H15   H     H_    0.675120 0.745776 0.031331 0.177259
H16   H     H_    0.795254 0.737868 0.168863 0.173636

loop_
_geom_bond_atom_site_label_1
_geom_bond_atom_site_label_2
_ccdc_geom_bond_type
C24   H8    S    
C18   H6    S    
C19   N5    S    
C10   O8    A    
C17   H5    S    
C2    O4    A    
O6    Zn2   S    
C3    C23   A    
C1    O3    A    
C12   N4    S    
C14   H4    S    
C3    C5    A    
O3    Zn2   S    
N4    H12   S    
N1    N2    T    
C6    C15   S    
O4    Zn1   S    
C3    C10   S    
N3    H9    S    
C11   C13   A    
C5    C24   A    
C6    C23   A    
C16   C18   A    
N4    H11   S    
C19   C21   A    
C12   C14   A    
N6    H16   S    
C13   C15   A    
C4    C24   A    
O7    Zn2   S    
C14   C16   A    
C11   N3    S    
C4    C6    A    
O2    Zn2   S    
O8    Zn1   S    
C10   O6    A    
N5    H13   S    
C12   C22   A    
C7    C8    T    
O1    Zn1   S    
C1    O1    A    
C18   C20   A    
C20   N6    S    
C22   H2    S    
N3    H10   S    
C2    O2    A    
C15   C17   A    
C21   H1    S    
N6    H15   S    
C13   H3    S    
C5    C16   S    
O5    Zn1   S    
C17   C19   A    
C4    C9    S    
C1    C7    S    
N1    Zn2   S    
C9    O7    A    
C11   C21   A    
C9    O5    A    
C2    C8    S    
N2    Zn1   S    
C20   C22   A    
N5    H14   S    
C23   H7    S    
