data_mof_unit_30520.cif
_audit_creation_date              2012-12-10T20:28:45-0500
_audit_creation_method            fapswitch 2.2
_symmetry_space_group_name_H-M    P1
_symmetry_Int_Tables_number       1
_space_group_crystal_system       triclinic
_cell_length_a                    10.635743
_cell_length_b                    10.673883
_cell_length_c                    9.861964
_cell_angle_alpha                 90.303486
_cell_angle_beta                  86.670229
_cell_angle_gamma                 89.313463
_cell_volume                      1117.58579616

loop_
_atom_site_label
_atom_site_type_symbol
_atom_type_description
_atom_site_fract_x
_atom_site_fract_y
_atom_site_fract_z
_atom_type_partial_charge
C1    C     C_R   0.500771 0.260245 0.499469 0.875988
C2    C     C_R   0.452556 0.935408 0.390980 -0.221777
C3    C     C_R   0.508440 0.871567 0.496169 -0.103402
C4    C     C_R   0.259609 0.509881 0.505174 0.888655
C5    C     C_R   0.580872 0.935990 0.586064 0.111106
C6    C     C_3   0.587887 0.930444 0.736866 -0.507885
C7    C     C_3   0.586851 0.072789 0.736086 -0.469529
C8    C     C_R   0.456052 0.399170 0.073308 0.229725
C9    C     C_R   0.554596 0.593936 0.069045 -0.133770
C10   C     C_R   0.554885 0.593769 0.925046 -0.146294
C11   C     C_R   0.456274 0.399069 0.930812 0.220062
C12   C     C_R   0.051537 0.614537 0.564912 0.016971
C13   C     C_3   0.326835 0.346843 0.932621 -0.519493
C14   C     C_3   0.326276 0.347619 0.086666 -0.509497
C15   C     C_R   0.501124 0.739794 0.499911 0.859206
C16   C     C_R   0.739802 0.497659 0.495702 0.864230
C17   C     C_R   0.091880 0.715369 0.647206 0.150738
C18   C     C_R   0.026890 0.831006 0.644624 -0.152385
C19   C     C_R   0.913470 0.841039 0.582416 -0.208117
C20   C     C_R   0.859611 0.734092 0.531358 -0.174316
C21   C     C_R   0.926963 0.619400 0.526305 0.082588
C22   C     C_3   0.162330 0.692303 0.773768 -0.392944
C23   C     C_R   0.125355 0.508580 0.518519 -0.114794
C24   C     C_3   0.269391 0.783920 0.789187 -0.835581
C25   C     C_R   0.070430 0.403372 0.462790 -0.196714
C26   C     C_R   0.942402 0.400689 0.452867 -0.223734
C27   C     C_R   0.871980 0.507993 0.485495 -0.074062
C28   C     C_R   0.580807 0.063823 0.585488 0.111569
C29   C     C_R   0.508647 0.128473 0.495060 -0.089567
C30   C     C_R   0.452745 0.064516 0.390378 -0.226521
H1    H     H_    0.126921 0.322496 0.429205 0.142574
H2    H     H_    0.324797 0.252119 0.130905 0.190377
H3    H     H_    0.057279 0.910611 0.702276 0.150315
H4    H     H_    0.862475 0.929446 0.584087 0.153550
H5    H     H_    0.766736 0.741753 0.492943 0.132830
H6    H     H_    0.898260 0.315793 0.419331 0.140204
H7    H     H_    0.402776 0.113758 0.313783 0.155707
H8    H     H_    0.402538 0.886255 0.314573 0.166861
H9    H     H_    0.502835 0.891029 0.789894 0.214898
H10   H     H_    0.311207 0.811272 0.688595 0.267210
H11   H     H_    0.233805 0.870428 0.842295 0.228193
H12   H     H_    0.678540 0.889436 0.767108 0.202825
H13   H     H_    0.342205 0.740541 0.850594 0.257591
H14   H     H_    0.094676 0.704720 0.863301 0.195348
H15   H     H_    0.194781 0.594784 0.782395 0.224562
H16   H     H_    0.500146 0.114655 0.786884 0.209071
H17   H     H_    0.676772 0.113758 0.766183 0.199471
H18   H     H_    0.596634 0.670947 0.121058 0.152784
H19   H     H_    0.597264 0.670504 0.868596 0.152860
H20   H     H_    0.257028 0.412886 0.892308 0.209639
H21   H     H_    0.326091 0.250912 0.888423 0.195079
H22   H     H_    0.256547 0.414849 0.135176 0.227232
N1    N     N_R   0.499160 0.499140 0.142800 -0.107288
N2    N     N_R   0.499160 0.499180 0.857150 -0.105980
O1    O     O_R   0.500020 0.316790 0.614690 -0.617080
O2    O     O_R   0.500000 0.316760 0.385350 -0.621378
O3    O     O_R   0.316770 0.500020 0.614690 -0.623635
O4    O     O_R   0.316760 0.499980 0.385350 -0.613187
O5    O     O_R   0.500000 0.683240 0.614650 -0.621016
O6    O     O_R   0.499980 0.683210 0.385310 -0.627055
O7    O     O_R   0.683240 0.500020 0.614650 -0.607413
O8    O     O_R   0.683230 0.499980 0.385310 -0.617638
Zn1   Zn    Zn3+2 0.500010 0.500020 0.653130 0.937592
Zn2   Zn    Zn3+2 0.499990 0.499980 0.346870 0.944441

loop_
_geom_bond_atom_site_label_1
_geom_bond_atom_site_label_2
_ccdc_geom_bond_type
C8    N1    A    
C4    O3    A    
C8    C14   S    
O2    Zn2   S    
C25   H1    S    
C6    C7    S    
C18   H3    S    
C5    C28   A    
C7    H17   S    
C15   O6    A    
C2    H8    S    
O5    Zn1   S    
C19   C20   A    
O6    Zn2   S    
C2    C30   A    
C16   C27   S    
C1    C29   S    
C2    C3    A    
C1    O1    A    
O1    Zn1   S    
C13   C14   S    
C12   C17   A    
C24   H11   S    
C11   C13   S    
C12   C23   A    
C26   C27   A    
C29   C30   A    
C11   N2    A    
C16   O8    A    
C8    C11   A    
C9    C10   A    
C26   H6    S    
C28   C29   A    
C24   H10   S    
C1    O2    A    
C22   H14   S    
O3    Zn1   S    
C23   C25   A    
O4    Zn2   S    
C5    C6    S    
C10   N2    A    
N1    Zn2   S    
C22   C24   S    
C9    N1    A    
N2    Zn1   S    
C13   H20   S    
C7    H16   S    
C22   H15   S    
C3    C15   S    
C20   C21   A    
C9    H18   S    
C17   C18   A    
C18   C19   A    
C16   O7    A    
C4    O4    A    
O7    Zn1   S    
C24   H13   S    
C21   C27   A    
C6    H9    S    
O8    Zn2   S    
C25   C26   A    
C13   H21   S    
C10   H19   S    
C15   O5    A    
C12   C21   A    
C20   H5    S    
C4    C23   S    
C14   H22   S    
C7    C28   S    
C17   C22   S    
C30   H7    S    
C14   H2    S    
C3    C5    A    
C19   H4    S    
C6    H12   S    
