data_mof_unit_7042.cif
_audit_creation_date              2013-03-05T16:32:07-0500
_audit_creation_method            fapswitch 2.2
_symmetry_space_group_name_H-M    P1
_symmetry_Int_Tables_number       1
_space_group_crystal_system       triclinic
_cell_length_a                    10.785569
_cell_length_b                    10.832954
_cell_length_c                    9.554294
_cell_angle_alpha                 90.582791
_cell_angle_beta                  89.459845
_cell_angle_gamma                 90.575923
_cell_volume                      1116.15694793

loop_
_atom_site_label
_atom_site_type_symbol
_atom_site_description
_atom_site_fract_x
_atom_site_fract_y
_atom_site_fract_z
_atom_type_partial_charge
O1    O     O_R   0.500000 0.319640 0.618810 -0.558874
O2    O     O_R   0.500010 0.319680 0.381230 -0.625801
C1    C     C_R   0.496098 0.262496 0.499544 0.823070
O3    O     O_R   0.317690 0.499960 0.618790 -0.579911
O4    O     O_R   0.317700 0.500000 0.381210 -0.625811
C2    C     C_R   0.260917 0.486751 0.500242 0.848989
Cu1   Cu    Cu3+1 0.499990 0.499980 0.640670 0.978580
Cu2   Cu    Cu3+1 0.500010 0.500020 0.359330 0.951279
O5    O     O_R   0.499990 0.680320 0.618770 -0.590778
O6    O     O_R   0.500000 0.680360 0.381190 -0.571537
O7    O     O_R   0.682300 0.500000 0.618790 -0.599057
O8    O     O_R   0.682310 0.500040 0.381210 -0.564525
C3    C     C_R   0.500715 0.737801 0.500459 0.858275
C4    C     C_R   0.740337 0.497621 0.499305 0.912522
C5    C     C_3   0.067672 0.433271 0.643312 0.221621
H1    H     H_    0.092429 0.502773 0.725518 0.090885
C6    C     C_3   0.924774 0.429571 0.633743 -0.444903
H2    H     H_    0.889289 0.332796 0.637743 0.259284
H3    H     H_    0.886802 0.477284 0.727770 0.150694
H4    H     H_    0.119468 0.674851 0.565956 0.185621
H5    H     H_    0.912227 0.673825 0.587623 0.173916
C7    C     C_3   0.079891 0.614857 0.481738 -0.588298
C8    C     C_3   0.070285 0.398668 0.374817 0.303371
C9    C     C_3   0.123009 0.479419 0.500278 -0.123884
H6    H     H_    0.107198 0.437191 0.274773 0.030778
C10   C     C_3   0.879014 0.491570 0.496998 -0.166946
C11   C     C_3   0.936599 0.623852 0.488692 0.119515
C12   C     C_3   0.925668 0.411928 0.370207 0.300064
H7    H     H_    0.900489 0.461825 0.273127 0.068077
H8    H     H_    0.119360 0.651231 0.382476 0.244270
C13   C     C_R   0.486658 0.065833 0.625600 0.132743
C14   C     C_R   0.482685 0.129507 0.499750 -0.031841
C15   C     C_R   0.467293 0.062476 0.374592 -0.279546
H9    H     H_    0.458959 0.109182 0.275763 0.161831
C16   C     C_R   0.471346 0.934019 0.374989 -0.143537
H10   H     H_    0.462462 0.884737 0.276333 0.158650
C17   C     C_R   0.493395 0.871295 0.500471 -0.029859
C18   C     C_R   0.496942 0.939028 0.625669 -0.003695
C19   C     C_3   0.591736 0.945653 0.740354 0.145809
C20   C     C_3   0.572899 0.084339 0.744925 -0.491068
H11   H     H_    0.562077 0.899181 0.838402 0.092650
H12   H     H_    0.522097 0.116666 0.839888 0.173920
H13   H     H_    0.656459 0.140481 0.717462 0.229408
C21   C     C_R   0.607867 0.515044 0.072735 0.180207
N1    N     N_R   0.500800 0.500930 0.147930 -0.190701
C22   C     C_R   0.394709 0.475830 0.074815 -0.088499
H14   H     H_    0.308646 0.457907 0.129518 0.143748
C23   C     C_R   0.394864 0.474879 0.926471 -0.049299
H15   H     H_    0.309220 0.455298 0.872613 0.168654
N2    N     N_R   0.500800 0.500890 0.852020 -0.190867
C24   C     C_R   0.607913 0.515288 0.925263 0.222916
C25   C     C_3   0.690152 0.626243 0.921371 -0.439444
C26   C     C_3   0.691931 0.624311 0.079548 -0.390360
H16   H     H_    0.782104 0.607666 0.873390 0.206783
H17   H     H_    0.641267 0.706844 0.879136 0.227759
H18   H     H_    0.783627 0.598998 0.120867 0.233781
H19   H     H_    0.648053 0.706286 0.129557 0.235306
N3    N     N_R   0.886602 0.695281 0.371949 0.135971
O9    O     O_R   0.782772 0.753752 0.388967 -0.338612
O10   O     O_R   0.947852 0.709080 0.254979 -0.397642
N4    N     N_R   0.717406 0.914525 0.692672 0.154681
O11   O     O_R   0.793605 0.864177 0.779376 -0.374518
O12   O     O_R   0.760979 0.957408 0.575048 -0.292569
N5    N     N_R   0.113753 0.313514 0.691700 0.165446
O13   O     O_R   0.068839 0.268207 0.807381 -0.397716
O14   O     O_R   0.209655 0.260475 0.634649 -0.358359
O15   O     O_3   0.098837 0.271123 0.388510 -0.529980
C27   C     C_3   0.199417 0.231491 0.303001 0.060738
H20   H     H_    0.232258 0.143937 0.347997 0.203653
H21   H     H_    0.278422 0.296279 0.306204 0.162149
C28   C     C_3   0.163255 0.205040 0.150303 -0.400179
H22   H     H_    0.089269 0.133653 0.146305 0.240497
H23   H     H_    0.129598 0.290339 0.100487 0.219443
C29   C     C_3   0.273155 0.155966 0.065118 -0.847320
H24   H     H_    0.353881 0.219916 0.072035 0.238126
H25   H     H_    0.246947 0.145855 0.953509 0.309856
H26   H     H_    0.300217 0.063861 0.103847 0.242832
O16   O     O_3   0.864227 0.295221 0.375763 -0.573759
C30   C     C_3   0.861433 0.233794 0.244402 0.135193
H27   H     H_    0.910508 0.145248 0.256705 0.211590
H28   H     H_    0.905735 0.285687 0.156726 0.101429
C31   C     C_3   0.727910 0.202635 0.207473 -0.372552
H29   H     H_    0.686239 0.151004 0.295811 0.259993
H30   H     H_    0.675633 0.288970 0.192205 0.234987
C32   C     C_3   0.719814 0.123052 0.075319 -0.861080
H31   H     H_    0.755120 0.175189 0.983441 0.267438
H32   H     H_    0.621555 0.096572 0.057679 0.239925
H33   H     H_    0.774293 0.037319 0.086836 0.294406

loop_
_geom_bond_atom_site_label_1
_geom_bond_atom_site_label_2
_geom_bond_distance
_ccdc_geom_bond_type
C16   H10   1.083101 S    
Cu1   Cu2   2.688007 S    
C19   H11   1.110868 S    
C32   H31   1.110881 S    
C21   N1    1.362380 A    
Cu1   O7    1.975437 S    
C10   C11   1.558537 S    
C29   H25   1.109811 S    
C6    C10   1.561499 S    
C12   H7    1.115415 S    
C16   C17   1.407409 A    
O4    C2    1.295179 A    
O7    C4    1.296912 A    
C26   H18   1.106420 S    
N3    O10   1.301991 A    
C5    H1    1.114867 S    
C13   C20   1.488874 S    
Cu1   O5    1.966904 S    
C8    O15   1.426190 S    
N4    O12   1.302271 A    
O5    C3    1.295996 A    
Cu2   N1    2.019840 S    
C28   C29   1.528302 S    
C15   C16   1.392736 A    
C21   C26   1.485057 S    
C20   H13   1.112988 S    
C27   H20   1.108055 S    
C29   H26   1.110434 S    
C5    N5    1.474211 S    
C12   O16   1.422763 S    
C3    C17   1.449078 S    
C25   H17   1.106187 S    
C23   N2    1.368629 A    
H5    C11   1.115056 S    
C1    C14   1.446480 S    
O3    Cu1   1.979247 S    
C25   H16   1.108052 S    
C15   H9    1.080698 S    
C32   H32   1.109096 S    
C19   N4    1.467251 S    
C22   C23   1.417237 A    
C29   H24   1.109231 S    
O15   C27   1.419199 S    
O3    C2    1.298580 A    
C19   C20   1.518216 S    
C30   H28   1.114750 S    
C26   H19   1.111940 S    
O16   C30   1.414993 S    
N2    C24   1.363117 A    
N3    O9    1.300186 A    
N1    C22   1.369741 A    
C11   N3    1.473415 S    
C24   C25   1.487187 S    
O1    C1    1.292077 A    
N5    O14   1.300797 A    
C17   C18   1.397548 A    
O4    Cu2   1.975436 S    
C13   C14   1.393501 A    
Cu2   O8    1.979246 S    
C2    C9    1.488734 S    
C6    H2    1.113315 S    
C8    C12   1.568878 S    
C4    C10   1.497744 S    
C21   C24   1.409012 A    
Cu2   O6    1.962635 S    
C5    C9    1.570419 S    
H4    C7    1.114587 S    
C31   H30   1.108528 S    
C7    C11   1.550284 S    
C7    C9    1.555922 S    
C25   C26   1.511936 S    
C28   H23   1.109555 S    
C32   H33   1.110936 S    
C5    C6    1.544901 S    
C22   H14   1.077856 S    
C23   H15   1.079750 S    
C7    H8    1.110181 S    
O1    Cu1   1.962635 S    
O2    Cu2   1.966902 S    
Cu1   N2    2.019326 S    
O8    C4    1.296046 A    
O6    C3    1.292841 A    
C30   C31   1.519789 S    
C31   C32   1.524315 S    
C10   C12   1.562373 S    
C13   C18   1.379264 A    
N5    O13   1.301268 A    
O2    C1    1.294670 A    
C28   H22   1.106279 S    
C14   C15   1.403009 A    
C18   C19   1.506381 S    
C27   C28   1.537093 S    
C20   H12   1.110893 S    
C6    H3    1.108969 S    
C8    H6    1.115308 S    
N4    O11   1.300074 A    
C8    C9    1.583345 S    
C30   H27   1.108037 S    
C27   H21   1.098929 S    
C31   H29   1.106611 S    
