data_mof_unit_67105.cif
_audit_creation_date              2012-12-11T17:44:24-0500
_audit_creation_method            fapswitch 2.2
_symmetry_space_group_name_H-M    P1
_symmetry_Int_Tables_number       1
_space_group_crystal_system       triclinic
_cell_length_a                    8.389872
_cell_length_b                    12.735159
_cell_length_c                    15.134911
_cell_angle_alpha                 96.040949
_cell_angle_beta                  98.647861
_cell_angle_gamma                 98.79024
_cell_volume                      1566.28331872

loop_
_atom_site_label
_atom_site_type_symbol
_atom_type_description
_atom_site_fract_x
_atom_site_fract_y
_atom_site_fract_z
_atom_type_partial_charge
Ba1   Ba    Ba6+2 0.843760 0.550230 0.455610 1.579598
Ba2   Ba    Ba6+2 0.346080 0.449860 0.544400 1.202655
C1    C     C_3   0.571846 0.928399 0.173993 0.086417
C2    C     C_3   0.561296 0.823207 0.219786 0.197870
C3    C     C_3   0.400561 0.229909 0.263625 0.236875
C4    C     C_3   0.253856 0.146309 0.216014 0.205723
C5    C     C_3   0.143810 0.231093 0.796183 0.398912
C6    C     C_3   0.171470 0.198980 0.890285 -0.321317
C7    C     C_3   0.632342 0.182432 0.811835 0.252339
C8    C     C_3   0.655913 0.134318 0.899868 -0.313232
C9    C     C_R   0.369062 0.527308 0.166422 0.054078
C10   C     C_R   0.108814 0.452868 0.203178 0.031367
C11   C     C_R   0.925343 0.481269 0.767636 -0.208254
C12   C     C_3   0.052649 0.769634 0.210738 0.334740
C13   C     C_R   0.832057 0.431171 0.824848 0.028975
C14   C     C_R   0.899544 0.425958 0.913947 -0.032533
C15   C     C_R   0.060846 0.474813 0.950149 -0.039294
C16   C     C_R   0.159226 0.524815 0.890478 -0.143441
C17   C     C_R   0.127311 0.477727 0.044836 0.020835
C18   C     C_R   0.297594 0.513769 0.073715 -0.016310
C19   C     C_R   0.394056 0.535246 0.009153 0.310785
C20   C     C_R   0.324764 0.563957 0.927180 0.338806
C21   C     C_R   0.033138 0.447869 0.112286 -0.021388
C22   C     C_R   0.275793 0.488670 0.227690 -0.228809
C23   C     C_3   0.023053 0.794572 0.111380 -0.277628
C24   C     C_R   0.088155 0.529634 0.797177 0.094787
C25   C     C_R   0.761164 0.187131 0.559831 -0.309636
C26   C     C_R   0.421110 0.815149 0.473168 -0.284449
C27   C     C_R   0.382681 0.993891 0.452673 -0.026659
C28   C     C_R   0.322649 0.884738 0.439520 -0.009406
C29   C     C_R   0.576258 0.853378 0.526252 -0.017139
C30   C     C_R   0.637665 0.965677 0.542982 0.026636
C31   C     C_R   0.539864 0.036287 0.503498 -0.017268
C32   C     C_R   0.605566 0.146509 0.510773 0.105421
C33   C     C_R   0.862051 0.118403 0.593877 -0.007502
C34   C     C_3   0.240245 0.784821 0.653691 0.043072
C35   C     C_R   0.799029 0.008563 0.588336 -0.091417
C36   C     C_3   0.228830 0.902339 0.674721 -0.296212
C37   C     C_3   0.934886 0.234902 0.368596 0.302010
C38   C     C_3   0.881513 0.115421 0.360789 -0.234446
C39   C     C_3   0.675053 0.769047 0.745142 0.522835
C40   C     C_3   0.658695 0.883705 0.776885 -0.374540
H1    H     H_    0.328797 0.942785 0.729743 0.127504
H2    H     H_    0.238135 0.942123 0.613741 0.081704
H3    H     H_    0.110239 0.909854 0.696561 0.172160
H4    H     H_    0.844678 0.275503 0.399213 0.006909
H5    H     H_    0.054667 0.254865 0.413604 0.092705
H6    H     H_    0.754738 0.095103 0.324051 0.189752
H7    H     H_    0.887172 0.088835 0.427659 0.087909
H8    H     H_    0.963004 0.071856 0.325971 0.182959
H9    H     H_    0.555666 0.718475 0.718818 0.037725
H10   H     H_    0.540570 0.991214 0.221791 0.036983
H11   H     H_    0.600946 0.920313 0.719870 -0.003962
H12   H     H_    0.781697 0.931972 0.803312 0.133400
H13   H     H_    0.582218 0.885493 0.830522 0.183943
H14   H     H_    0.436968 0.802854 0.236490 -0.002631
H15   H     H_    0.354791 0.298771 0.296816 -0.036442
H16   H     H_    0.174838 0.124966 0.265549 0.071703
H17   H     H_    0.295421 0.072424 0.190540 0.085115
H18   H     H_    0.231732 0.305130 0.794264 0.096024
H19   H     H_    0.017714 0.248993 0.782682 -0.118560
H20   H     H_    0.295564 0.178740 0.906625 0.176362
H21   H     H_    0.159999 0.266792 0.939853 0.112377
H22   H     H_    0.078845 0.128418 0.895043 0.133268
H23   H     H_    0.754761 0.213337 0.796813 -0.061125
H24   H     H_    0.571840 0.118247 0.756260 0.054042
H25   H     H_    0.695983 0.198764 0.957849 0.179227
H26   H     H_    0.751065 0.082800 0.899732 0.106899
H27   H     H_    0.949575 0.709089 0.221028 0.096570
H28   H     H_    0.539200 0.085552 0.908563 0.165515
H29   H     H_    0.334462 0.486941 0.295944 0.117939
H30   H     H_    0.902910 0.420137 0.096232 0.141403
H31   H     H_    0.868266 0.484627 0.699153 0.082782
H32   H     H_    0.825569 0.380655 0.953476 0.104954
H33   H     H_    0.303678 0.043680 0.421815 0.114300
H34   H     H_    0.879996 0.957122 0.614587 0.094884
H35   H     H_    0.811474 0.270993 0.561638 0.073942
H36   H     H_    0.164560 0.733652 0.225173 0.062070
H37   H     H_    0.039344 0.882550 0.111239 0.127941
H38   H     H_    0.358957 0.778962 0.632998 0.204474
H39   H     H_    0.140047 0.748675 0.597674 0.118867
O1    O     O_2   0.827930 0.435360 0.277760 -0.438173
O2    O     O_3   0.781568 0.769516 0.683851 -0.604915
O3    O     O_3   0.064839 0.863377 0.272267 -0.593765
O4    O     O_2   0.361790 0.564680 0.722290 -0.447167
O5    O     O_3   0.089410 0.561080 0.608830 -0.494677
O6    O     O_3   0.564100 0.365890 0.666740 -0.463282
O7    O     O_3   0.231347 0.736691 0.731992 -0.554004
O8    O     O_3   0.601940 0.368260 0.453780 -0.449426
O9    O     O_3   0.133140 0.308990 0.620990 -0.487056
O10   O     O_2   0.182251 0.116706 0.561666 -0.478667
O11   O     O_3   0.168044 0.147708 0.733588 -0.590292
O12   O     O_3   0.100310 0.439010 0.391180 -0.486296
O13   O     O_3   0.587770 0.631830 0.546230 -0.481619
O14   O     O_2   0.332600 0.233710 0.456170 -0.472691
O15   O     O_3   0.496965 0.178644 0.323722 -0.649644
O16   O     O_2   0.514895 0.460551 0.816837 -0.396490
O17   O     O_3   0.530289 0.259863 0.819601 -0.563102
O18   O     O_3   0.625610 0.634200 0.333270 -0.438329
O19   O     O_2   0.708262 0.558725 0.182682 -0.409539
O20   O     O_3   0.946384 0.264053 0.282512 -0.545987
O21   O     O_3   0.598541 0.735824 0.165440 -0.578348
O22   O     O_2   0.857120 0.766320 0.543890 -0.410845
O23   O     O_3   0.056570 0.691100 0.379020 -0.475258
O24   O     O_2   0.992184 0.883392 0.436544 -0.443462
P1    P     P_3+3 0.998770 0.403620 0.291990 1.088803
P2    P     P_3+3 0.687370 0.751000 0.571300 0.968900
P3    P     P_3+3 0.109443 0.831390 0.382820 0.967724
P4    P     P_3+3 0.190950 0.596470 0.708020 1.041206
P5    P     P_3+3 0.084425 0.171491 0.626171 0.959206
P6    P     P_3+3 0.571385 0.613706 0.213895 1.068176
P7    P     P_3+3 0.511160 0.232556 0.436480 0.947582
P8    P     P_3+3 0.614793 0.378395 0.782718 1.048143
C41   C     C_2   0.680837 0.847204 0.304961 0.743925
H40   H     H_    0.781327 0.804378 0.313630 -0.774293
O25   O     O_2   0.666881 0.915690 0.363706 -0.657549
Br1   Br    Br    0.785549 0.708987 0.843471 -0.403747
C42   C     C_2   0.453028 0.924708 0.089093 0.720549
H41   H     H_    0.328772 0.934283 0.093202 -0.074350
O26   O     O_2   0.496429 0.919795 0.015618 -0.519022
C43   C     C_2   0.503552 0.270051 0.197099 0.581169
H42   H     H_    0.521695 0.354101 0.188942 -0.017508
O27   O     O_2   0.568283 0.208886 0.152231 -0.520700
Br2   Br    Br    0.124876 0.194130 0.115690 -0.534386
Br3   Br    Br    0.789188 0.986954 0.153542 -0.495294
C44   C     C_2   0.138123 0.756015 0.053674 0.412869
H43   H     H_    0.117122 0.761369 0.981847 0.099062
O28   O     O_2   0.258180 0.722066 0.085949 -0.617106
Br4   Br    Br    0.554901 0.445175 0.006986 -0.528267
Br5   Br    Br    0.425014 0.700442 0.906644 -0.410719
C45   C     C_2   0.358315 0.700648 0.450372 0.561721
H44   H     H_    0.310050 0.654380 0.499426 -0.005759
O29   O     O_2   0.349628 0.658759 0.373697 -0.611381
C46   C     C_2   0.854508 0.745739 0.063433 0.565539
H45   H     H_    0.767458 0.795845 0.040840 0.143652
O30   O     O_2   0.816223 0.648713 0.045341 -0.511950

loop_
_geom_bond_atom_site_label_1
_geom_bond_atom_site_label_2
_ccdc_geom_bond_type
Ba2   P4    S    
C44   H43   S    
C3    C43   S    
C32   P7    S    
C39   C40   S    
C4    H16   S    
C17   C18   A    
C16   C24   A    
C12   O3    S    
Ba1   O18   S    
C41   H40   S    
C5    C6    S    
C45   O29   D    
C8    H25   S    
C34   O7    S    
O15   P7    S    
C10   C21   A    
C7    O17   S    
C14   H32   S    
O10   P5    D    
C2    C41   S    
Ba2   O14   S    
C33   C35   A    
O4    P4    D    
O14   P7    D    
C40   H11   S    
C3    C4    S    
C40   H13   S    
C13   C14   A    
C39   O2    S    
C27   C31   A    
C9    C22   A    
O20   P1    S    
Ba2   O4    S    
C15   C16   A    
Ba1   Ba2   S    
Ba2   O9    S    
C7    H24   S    
C5    H19   S    
C36   H3    S    
O3    P3    S    
C42   H41   S    
Ba1   O13   S    
C2    O21   S    
C44   O28   D    
C13   P8    S    
C4    Br2   S    
C7    C8    S    
Ba1   O22   S    
Ba1   P1    S    
C12   H36   S    
C16   C20   A    
C19   C20   A    
C20   Br5   S    
O21   P6    S    
C4    H17   S    
C37   O20   S    
C42   O26   D    
Ba2   O12   S    
C25   C32   A    
O13   P2    S    
O24   P3    D    
C9    C18   A    
O6    P8    S    
C9    P6    S    
Ba2   O13   S    
O5    P4    S    
C34   H38   S    
C37   C38   S    
C14   C15   A    
O17   P8    S    
C46   O30   D    
C25   C33   A    
Ba1   O1    S    
C1    C2    S    
Ba2   O8    S    
C17   C21   A    
C23   C44   S    
C36   H2    S    
C27   C28   A    
C1    C42   S    
O12   P1    S    
C29   C30   A    
O8    P7    S    
C34   H39   S    
O18   P6    S    
C31   C32   A    
Ba2   O6    S    
C30   C35   A    
C23   C46   S    
Ba1   O23   S    
C19   Br4   S    
C43   H42   S    
C33   P5    S    
Ba1   P2    S    
C37   H4    S    
O7    P4    S    
C8    H28   S    
C35   H34   S    
C6    H22   S    
C11   C13   A    
C12   H27   S    
C11   C24   A    
O9    P5    S    
O16   P8    D    
C45   H44   S    
C5    H18   S    
O23   P3    S    
C3    O15   S    
C37   H5    S    
Ba1   O5    S    
C38   H6    S    
Ba1   O8    S    
C28   P3    S    
C23   H37   S    
C29   P2    S    
C21   H30   S    
C26   C29   A    
C11   H31   S    
C25   H35   S    
C41   O25   D    
C1    H10   S    
C1    Br3   S    
C46   H45   S    
C27   H33   S    
C8    H26   S    
C10   C22   A    
C3    H15   S    
C26   C45   S    
C30   C31   A    
C34   C36   S    
C36   H1    S    
C40   H12   S    
C10   P1    S    
O11   P5    S    
C38   H8    S    
C5    O11   S    
C26   C28   A    
C15   C17   A    
O2    P2    S    
Ba2   O5    S    
C24   P4    S    
O1    P1    D    
C12   C23   S    
C7    H23   S    
C43   O27   D    
C6    H21   S    
C18   C19   A    
O19   P6    D    
Ba1   O12   S    
O22   P2    D    
C39   Br1   S    
C39   H9    S    
C2    H14   S    
C38   H7    S    
C22   H29   S    
C6    H20   S    
