data_mof_unit_19635.cif
_audit_creation_date              2012-12-10T16:56:32-0500
_audit_creation_method            fapswitch 2.2
_symmetry_space_group_name_H-M    P1
_symmetry_Int_Tables_number       1
_space_group_crystal_system       triclinic
_cell_length_a                    10.77431
_cell_length_b                    10.922715
_cell_length_c                    9.72361
_cell_angle_alpha                 90.34844
_cell_angle_beta                  89.641169
_cell_angle_gamma                 90.63489
_cell_volume                      1144.20692035

loop_
_atom_site_label
_atom_site_type_symbol
_atom_type_description
_atom_site_fract_x
_atom_site_fract_y
_atom_site_fract_z
_atom_type_partial_charge
C1    C     C_R   0.495500 0.265600 0.499559 0.909553
C2    C     C_3   0.878236 0.496239 0.500090 0.056304
C3    C     C_3   0.931742 0.621109 0.557860 -0.253086
C4    C     C_3   0.930260 0.483423 0.349143 -0.015366
C5    C     C_2   0.501238 0.933167 0.391850 -0.189690
C6    C     C_2   0.532737 0.865878 0.502031 -0.168433
C7    C     C_2   0.509616 0.066900 0.388242 -0.096780
C8    C     C_2   0.482113 0.133979 0.499586 -0.206103
C9    C     C_2   0.424738 0.431629 0.921559 0.298542
C10   C     C_2   0.413911 0.448118 0.076050 -0.118969
C11   C     C_R   0.260273 0.498034 0.500010 0.841752
C12   C     C_R   0.506579 0.734721 0.500475 0.763751
C13   C     C_R   0.739977 0.499203 0.499702 0.847071
C14   C     C_3   0.071048 0.382810 0.584402 -0.159119
C15   C     C_3   0.925975 0.390054 0.593493 -0.071714
C16   C     C_3   0.075152 0.614683 0.566300 -0.514478
C17   C     C_3   0.073090 0.489670 0.349325 -0.398113
C18   C     C_3   0.122627 0.494522 0.499362 0.095709
Cu1   Cu    Cu3+1 0.500030 0.500020 0.638630 0.993880
Cu2   Cu    Cu3+1 0.499970 0.499980 0.361370 0.972867
H1    H     H_    0.105855 0.394711 0.691265 0.092935
H2    H     H_    0.897700 0.564346 0.290292 0.130134
H3    H     H_    0.116593 0.695464 0.512951 0.175978
H4    H     H_    0.908345 0.694397 0.483279 0.173263
H5    H     H_    0.462448 0.889070 0.301082 0.159216
H6    H     H_    0.533728 0.110020 0.291154 0.172024
H7    H     H_    0.450349 0.091356 0.594267 0.132610
H8    H     H_    0.535260 0.576551 0.891378 0.161602
H9    H     H_    0.329281 0.415267 0.125032 0.145256
H10   H     H_    0.903662 0.415950 0.701527 0.141697
H11   H     H_    0.107300 0.619823 0.674926 0.175960
H12   H     H_    0.103582 0.573996 0.294086 0.148250
H13   H     H_    0.114017 0.412734 0.290059 0.211500
N1    N     N_2   0.498630 0.498660 0.846910 -0.245975
N2    N     N_2   0.498590 0.498630 0.153040 -0.252111
O1    O     O_R   0.500020 0.321960 0.617040 -0.541134
O2    O     O_R   0.499980 0.321920 0.382900 -0.564244
O3    O     O_R   0.317710 0.500000 0.617070 -0.583137
O4    O     O_R   0.317670 0.499960 0.382930 -0.589358
O5    O     O_R   0.500020 0.678080 0.617100 -0.598030
O6    O     O_R   0.499980 0.678040 0.382960 -0.593239
O7    O     O_R   0.682330 0.500040 0.617070 -0.567997
O8    O     O_R   0.682290 0.500000 0.382930 -0.591099
C19   C     C_2   0.605249 0.914787 0.620713 0.437007
H14   H     H_    0.593016 0.874765 0.721829 0.095829
O9    O     O_2   0.683804 0.995118 0.605350 -0.515583
N3    N     N_3   0.348318 0.340931 0.856028 -0.523967
H15   H     H_    0.368966 0.256270 0.899338 0.204946
H16   H     H_    0.255922 0.360214 0.880285 0.167814
C20   C     C_2   0.119396 0.258266 0.540234 0.309615
H17   H     H_    0.098447 0.179256 0.603738 0.087801
O10   O     O_2   0.182955 0.244248 0.437126 -0.577815
C21   C     C_2   0.623911 0.503421 0.104539 0.592328
H18   H     H_    0.681399 0.582701 0.128721 0.015044
O11   O     O_2   0.670080 0.416450 0.044084 -0.581831
N4    N     N_3   0.858792 0.273591 0.570408 -0.544095
H19   H     H_    0.872780 0.216919 0.655135 0.238481
H20   H     H_    0.891301 0.226395 0.484563 0.252325
C22   C     C_2   0.879225 0.659885 0.696105 0.395365
H21   H     H_    0.895204 0.605920 0.787408 0.066831
O12   O     O_2   0.820455 0.754247 0.707116 -0.549019
N5    N     N_3   0.883706 0.373276 0.277491 -0.528963
H22   H     H_    0.884711 0.391049 0.171948 0.239236
H23   H     H_    0.943970 0.300031 0.289690 0.236973

loop_
_geom_bond_atom_site_label_1
_geom_bond_atom_site_label_2
_ccdc_geom_bond_type
C12   O5    A    
C11   O3    A    
C20   O10   D    
C11   C18   S    
C9    N3    S    
N5    H22   S    
C2    C15   S    
Cu1   O3    S    
N2    C21   S    
C1    C8    S    
C4    H2    S    
C9    C10   S    
C14   C18   S    
C2    C4    S    
Cu1   Cu2   S    
Cu1   O7    S    
C1    O2    A    
C15   N4    S    
C13   O8    A    
C17   C18   S    
H8    N1    S    
C22   H21   S    
N3    H16   S    
C6    C19   S    
C21   H18   S    
N4    H19   S    
C16   H11   S    
C11   O4    A    
Cu2   O2    S    
C2    C13   S    
C10   H9    S    
C3    H4    S    
C14   C20   S    
C7    H6    S    
C17   H13   S    
C5    H5    S    
C4    C17   S    
C14   H1    S    
C13   O7    A    
N4    H20   S    
Cu2   O6    S    
C16   H3    S    
C2    C3    S    
Cu1   O1    S    
C21   O11   D    
C6    C12   S    
C9    N1    D    
C17   H12   S    
C10   N2    D    
C22   O12   D    
Cu1   O5    S    
C3    C16   S    
C4    N5    S    
C7    C8    D    
Cu2   O8    S    
C19   H14   S    
C15   H10   S    
C16   C18   S    
C5    C6    D    
C5    C7    S    
Cu2   O4    S    
C14   C15   S    
C8    H7    S    
N5    H23   S    
C20   H17   S    
Cu2   N2    S    
C12   O6    A    
N3    H15   S    
C1    O1    A    
C19   O9    D    
Cu1   N1    S    
C3    C22   S    
