data_mof_unit_10548.cif
_audit_creation_date              2012-12-11T16:04:50-0500
_audit_creation_method            fapswitch 2.2
_symmetry_space_group_name_H-M    P1
_symmetry_Int_Tables_number       1
_space_group_crystal_system       triclinic
_cell_length_a                    10.67966
_cell_length_b                    10.684943
_cell_length_c                    16.918504
_cell_angle_alpha                 99.151033
_cell_angle_beta                  99.00428
_cell_angle_gamma                 61.616464
_cell_volume                      1669.60232081

loop_
_atom_site_label
_atom_site_type_symbol
_atom_type_description
_atom_site_fract_x
_atom_site_fract_y
_atom_site_fract_z
_atom_type_partial_charge
C1    C     C_R   0.381839 0.707088 0.386834 0.554836
C2    C     C_3   0.310843 0.689985 0.231884 -0.130470
C3    C     C_3   0.369225 0.750197 0.308097 0.055968
C4    C     C_R   0.369795 0.345844 0.359219 0.527187
C5    C     C_3   0.488289 0.743482 0.265234 -0.133690
C6    C     C_3   0.388871 0.897750 0.243965 -0.131450
C7    C     C_3   0.270919 0.903252 0.288847 -0.113868
C8    C     C_3   0.211952 0.843993 0.211546 -0.100538
C9    C     C_3   0.331626 0.836332 0.167154 0.055440
C10   C     C_3   0.453191 0.251504 0.774785 -0.112077
C11   C     C_3   0.395491 0.394184 0.740101 0.074061
C12   C     C_3   0.749625 0.409121 0.258992 -0.102089
C13   C     C_3   0.336140 0.334229 0.663129 0.031201
C14   C     C_3   0.392327 0.191275 0.698253 -0.144172
C15   C     C_3   0.248314 0.250194 0.734501 -0.129171
C16   C     C_R   0.784714 0.372334 0.405021 0.526120
C17   C     C_3   0.191722 0.393591 0.697708 -0.151162
C18   C     C_3   0.251933 0.454108 0.775245 -0.120891
C19   C     C_3   0.310389 0.311688 0.809604 0.046037
C20   C     C_1   0.830336 0.335472 0.706975 -0.035090
C21   C     C_1   0.855938 0.308739 0.775584 -0.021942
C22   C     C_1   0.331919 0.824921 0.707452 -0.038570
C23   C     C_3   0.851412 0.330596 0.329551 0.046451
C24   C     C_1   0.307174 0.849701 0.776350 -0.016077
C25   C     C_R   0.961031 0.285065 0.102584 0.561666
C26   C     C_R   0.318711 0.298809 0.120481 0.538426
C27   C     C_R   0.294104 0.891590 0.088963 0.547738
C28   C     C_R   0.353281 0.779446 0.625185 0.573120
C29   C     C_R   0.891157 0.296441 0.859287 0.586823
C30   C     C_R   0.304829 0.289556 0.889628 0.565367
C31   C     C_R   0.277735 0.888323 0.857895 0.576699
C32   C     C_R   0.367918 0.346673 0.585774 0.569446
C33   C     C_R   0.781292 0.375973 0.627471 0.559773
C34   C     C_3   0.912600 0.188605 0.276137 -0.129039
C35   C     C_1   0.342348 0.333993 0.275548 -0.067001
C36   C     C_1   0.330554 0.324109 0.204295 -0.069266
C37   C     C_3   0.811123 0.266947 0.204786 -0.117420
C38   C     C_2   0.478675 0.475621 0.757765 0.537610
C39   C     C_3   0.858448 0.588010 0.228508 -0.258883
C40   C     C_3   0.751703 0.668088 0.160035 -0.382885
C41   C     C_3   0.027615 0.225057 0.254916 -0.164388
C42   C     C_3   0.965699 0.366468 0.310368 -0.127331
C43   C     C_3   0.864609 0.444434 0.239154 0.037075
C44   C     C_3   0.924981 0.303308 0.184903 0.056215
C45   C     C_3   0.429616 0.683035 0.186820 -0.145903
Cr1   Cr    Cr6+3 0.608340 0.611040 0.520430 1.024490
Cr2   Cr    Cr6+3 0.287650 0.601120 0.489350 1.025758
Cr3   Cr    Cr6+3 0.604040 0.287870 0.490280 1.036294
Cr4   Cr    Cr6+3 0.054020 0.052700 0.970850 1.025306
Cr5   Cr    Cr6+3 0.059230 0.375120 0.993390 1.014215
Cr6   Cr    Cr6+3 0.374950 0.061200 0.992340 1.022425
H1    H     H_    0.633611 0.471727 0.262812 0.103866
H2    H     H_    0.746468 0.227384 0.160423 0.135352
H3    H     H_    0.931932 0.084297 0.293097 0.119134
H4    H     H_    0.142976 0.160273 0.248342 0.102143
H5    H     H_    0.029920 0.405317 0.355604 0.119173
H6    H     H_    0.276615 0.606382 0.228884 0.115526
H7    H     H_    0.490693 0.593056 0.142908 0.115000
H8    H     H_    0.598592 0.706591 0.294007 0.137485
H9    H     H_    0.571555 0.572257 0.717371 0.337018
H10   H     H_    0.808961 0.679789 0.114509 0.162388
H11   H     H_    0.690949 0.611293 0.129620 0.181197
H12   H     H_    0.421006 0.983300 0.247182 0.123975
H13   H     H_    0.675773 0.777573 0.183165 0.132718
H14   H     H_    0.832797 0.657691 0.285969 0.129197
H15   H     H_    0.967239 0.566968 0.217938 0.152959
H16   H     H_    0.209336 0.987506 0.335162 0.126864
H17   H     H_    0.097050 0.886165 0.189410 0.131122
H18   H     H_    0.560425 0.194619 0.807527 0.142075
H19   H     H_    0.448574 0.083821 0.665459 0.132485
H20   H     H_    0.187250 0.190597 0.735556 0.106937
H21   H     H_    0.085287 0.450398 0.664284 0.133522
H22   H     H_    0.195684 0.560940 0.808721 0.139810
O1    O     O_R   0.751220 0.499230 0.435170 -0.533931
O2    O     O_R   0.412990 0.180750 0.091610 -0.510869
O3    O     O_R   0.366620 0.943130 0.065760 -0.504977
O4    O     O_R   0.477220 0.727600 0.436870 -0.506381
O5    O     O_R   0.160510 0.906330 0.879210 -0.511814
O6    O     O_R   0.930190 0.179050 0.889450 -0.496321
O7    O     O_R   0.909140 0.398170 0.896710 -0.495324
O8    O     O_R   0.186190 0.363460 0.918830 -0.505753
O9    O     O_R   0.401670 0.173200 0.913310 -0.516409
O10   O     O_R   0.356120 0.936130 0.900470 -0.491378
O11   O     O_3   0.162740 0.163010 0.985530 -0.291522
O12   O     O_R   0.297880 0.469080 0.560050 -0.485789
O13   O     O_R   0.258650 0.745120 0.411470 -0.523932
O14   O     O_R   0.297070 0.467240 0.395960 -0.529236
O15   O     O_R   0.488830 0.252610 0.387790 -0.510545
O16   O     O_R   0.724400 0.302390 0.420980 -0.506826
O17   O     O_R   0.752100 0.501210 0.612190 -0.515008
O18   O     O_R   0.478040 0.729440 0.600970 -0.485336
O19   O     O_R   0.259530 0.747110 0.588490 -0.493153
O20   O     O_2   0.512201 0.507123 0.827686 -0.537688
O21   O     O_R   0.517176 0.516055 0.695645 -0.666912
O22   O     O_R   0.489720 0.254590 0.564810 -0.507187
O23   O     O_R   0.725220 0.304230 0.585080 -0.470898
O24   O     O_3   0.500010 0.500010 0.500020 -0.252124
O25   O     O_R   0.171830 0.913880 0.057510 -0.527030
O26   O     O_R   0.940690 0.186050 0.054730 -0.499417
O27   O     O_R   0.920470 0.405720 0.075010 -0.517346
O28   O     O_R   0.196690 0.370460 0.084120 -0.519217

loop_
_geom_bond_atom_site_label_1
_geom_bond_atom_site_label_2
_ccdc_geom_bond_type
C27   O25   A    
C9    C45   S    
Cr3   O22   S    
C34   C37   S    
C1    O4    A    
C41   C42   S    
C13   C32   S    
C35   C36   T    
C6    C9    S    
C2    H6    S    
Cr5   O11   S    
C7    C8    S    
C11   C18   S    
C4    O14   A    
C15   C19   S    
Cr3   O24   S    
C12   C23   S    
C23   C42   S    
C16   O1    A    
Cr2   O12   S    
Cr4   O11   S    
Cr6   O2    S    
C12   C43   S    
C3    C7    S    
C26   O28   A    
C5    C6    S    
C40   H11   S    
Cr4   O5    S    
C18   C19   S    
Cr2   O19   S    
C12   C37   S    
C41   H4    S    
C42   H5    S    
Cr4   O25   S    
C25   O26   A    
C8    C9    S    
Cr3   O15   S    
C37   H2    S    
C4    C35   S    
C16   O16   A    
C22   C28   S    
C13   C14   S    
C39   H14   S    
C14   H19   S    
C34   C41   S    
C25   C44   S    
C12   H1    S    
C26   O2    A    
C2    C45   S    
C45   H7    S    
C5    H8    S    
Cr2   O13   S    
Cr6   O3    S    
C10   C14   S    
C39   C40   S    
C39   C43   S    
Cr1   O18   S    
C21   C29   S    
C40   H10   S    
Cr4   O6    S    
C1    C3    S    
Cr2   O14   S    
C6    H12   S    
C30   O9    A    
C11   C38   S    
C43   C44   S    
Cr4   O26   S    
C25   O27   A    
C29   O6    A    
C10   C19   S    
C23   C34   S    
C38   O21   S    
C17   C18   S    
C31   O10   A    
C28   O19   A    
Cr6   O9    S    
Cr5   O28   S    
Cr1   O17   S    
C20   C33   S    
C26   C36   S    
Cr1   O24   S    
C34   H3    S    
C16   C23   S    
Cr3   O16   S    
C41   C44   S    
C22   C24   T    
C42   C43   S    
C27   O3    A    
C33   O23   A    
Cr6   O10   S    
Cr1   O1    S    
C9    C27   S    
C31   O5    A    
C1    O13   A    
C15   C17   S    
Cr3   O23   S    
C2    C8    S    
C3    C5    S    
Cr5   O7    S    
Cr1   O4    S    
C8    H17   S    
C6    C7    S    
C4    O15   A    
C18   H22   S    
C15   H20   S    
Cr5   O27   S    
C40   H13   S    
C13   C17   S    
Cr2   O24   S    
C30   O8    A    
C2    C3    S    
C24   C31   S    
C33   O17   A    
C11   C13   S    
C29   O7    A    
C5    C45   S    
C37   C44   S    
C32   O12   A    
C38   O20   D    
C39   H15   S    
C28   O18   A    
C10   C11   S    
C7    H16   S    
C10   H18   S    
C32   O22   A    
C20   C21   T    
C17   H21   S    
C14   C15   S    
C19   C30   S    
Cr6   O11   S    
Cr5   O8    S    
H9    O21   S    
