data_mof_unit_5481.cif
_audit_creation_date              2012-10-26T20:06:11-0400
_audit_creation_method            fapswitch 2.2
_symmetry_space_group_name_H-M    P1
_symmetry_Int_Tables_number       1
_space_group_crystal_system       triclinic
_cell_length_a                    9.526998
_cell_length_b                    10.822676
_cell_length_c                    13.396704
_cell_angle_alpha                 90.219428
_cell_angle_beta                  72.450642
_cell_angle_gamma                 89.746964
_cell_volume                      1316.98084006

loop_
_atom_site_label
_atom_site_type_symbol
_atom_type_description
_atom_site_fract_x
_atom_site_fract_y
_atom_site_fract_z
_atom_type_partial_charge
C1    C     C_R   0.500086 0.737717 0.498782 0.600686
C2    C     C_R   0.370557 0.505567 0.815625 0.031160
C3    C     C_R   0.589146 0.934250 0.546204 -0.168108
C4    C     C_R   0.420762 0.504510 0.700390 0.598750
C5    C     C_R   0.592847 0.062770 0.546135 0.190861
C6    C     C_R   0.502285 0.128162 0.498518 -0.012841
C7    C     C_R   0.415002 0.065121 0.447503 0.320596
C8    C     C_R   0.409905 0.936523 0.449110 0.255927
C9    C     C_R   0.499626 0.871447 0.497475 -0.062803
C10   C     C_R   0.897615 0.576137 0.565651 0.005331
C11   C     C_R   0.045890 0.575463 0.566371 0.407451
C12   C     C_R   0.430228 0.512408 0.980551 -0.012016
C13   C     C_R   0.102384 0.424288 0.433713 0.456210
C14   C     C_R   0.953623 0.424206 0.433996 -0.001010
C15   C     C_R   0.500546 0.262166 0.499735 0.598534
C16   C     C_R   0.578766 0.501635 0.299871 0.564589
C17   C     C_R   0.761324 0.641100 0.038363 -0.139886
C18   C     C_R   0.623103 0.521342 0.186821 0.010483
C19   C     C_R   0.235407 0.450014 0.867149 -0.128631
C20   C     C_R   0.193034 0.433460 0.974748 -0.150511
C21   C     C_R   0.289563 0.462690 0.031051 -0.082616
C22   C     C_3   0.825014 0.106700 0.550798 -0.079845
C23   C     C_R   0.460795 0.549669 0.874796 0.028369
C24   C     C_3   0.177828 0.885777 0.448748 -0.052377
C25   C     C_3   0.512812 0.269677 0.136784 -0.054814
C26   C     C_R   0.537785 0.533488 0.032929 0.014947
C27   C     C_R   0.658918 0.611756 0.985714 -0.047114
C28   C     C_R   0.674014 0.663646 0.887956 -0.083153
C29   C     C_R   0.575986 0.634071 0.833219 0.361920
C30   C     C_R   0.531331 0.478279 0.129832 0.263404
C31   C     C_R   0.741119 0.598984 0.139620 -0.177877
Cu1   Cu    Cu3+1 0.359340 0.499980 0.500000 1.162666
Cu2   Cu    Cu3+1 0.640660 0.500020 0.500000 0.987295
F1    F     F_    0.339745 0.128033 0.392282 -0.584456
F2    F     F_    0.086430 0.650615 0.633847 -0.641573
F3    F     F_    0.199890 0.347944 0.366981 -0.548782
F4    F     F_    0.584394 0.699311 0.745345 -0.658738
H1    H     H_    0.813758 0.631329 0.182586 0.138202
H2    H     H_    0.887486 0.171742 0.585322 0.155436
H3    H     H_    0.855252 0.126659 0.465404 0.120983
H4    H     H_    0.859796 0.011546 0.563906 0.100561
H5    H     H_    0.153005 0.867879 0.534160 0.155532
H6    H     H_    0.116982 0.816260 0.417138 0.129382
H7    H     H_    0.135740 0.978349 0.436036 0.164658
H8    H     H_    0.607492 0.259086 0.168580 0.110368
H9    H     H_    0.550650 0.262060 0.049802 0.100492
H10   H     H_    0.436264 0.192175 0.167226 0.211882
H11   H     H_    0.819786 0.637875 0.617654 0.200725
H12   H     H_    0.919976 0.363434 0.381213 0.138838
H13   H     H_    0.761542 0.728595 0.853947 0.154682
H14   H     H_    0.852942 0.701799 0.003180 0.137757
H15   H     H_    0.162701 0.418183 0.824050 0.145652
H16   H     H_    0.248191 0.451600 0.114725 0.200871
H17   H     H_    0.086259 0.394724 0.014450 0.127695
H18   H     H_    0.653751 0.883394 0.586557 0.195495
N1    N     N_R   0.147940 0.499970 0.499970 -0.221858
N2    N     N_R   0.852060 0.500060 0.499990 -0.308641
O1    O     O_R   0.381250 0.680340 0.500010 -0.431333
O2    O     O_3   0.329425 0.873785 0.394617 -0.526467
O3    O     O_3   0.436914 0.381728 0.170160 -0.526362
O4    O     O_R   0.618820 0.680370 0.500010 -0.508884
O5    O     O_R   0.323240 0.499950 0.650980 -0.480666
O6    O     O_R   0.560810 0.499980 0.650980 -0.456242
O7    O     O_R   0.381180 0.319630 0.499990 -0.424589
O8    O     O_R   0.618750 0.319660 0.499990 -0.491673
O9    O     O_R   0.439190 0.500020 0.349020 -0.407409
O10   O     O_R   0.676760 0.500050 0.349020 -0.543996
O11   O     O_3   0.673219 0.125025 0.601026 -0.533116

loop_
_geom_bond_atom_site_label_1
_geom_bond_atom_site_label_2
_ccdc_geom_bond_type
Cu1   O7    S    
C2    C4    S    
C15   O7    A    
C6    C7    A    
C3    C9    A    
C25   O3    S    
C4    O5    A    
C24   H5    S    
C25   H10   S    
Cu1   O9    S    
C19   C20   A    
C4    O6    A    
C31   H1    S    
Cu1   O1    S    
Cu2   O6    S    
C13   N1    A    
C22   H3    S    
Cu1   Cu2   S    
C17   H14   S    
C11   F2    S    
C12   C21   A    
C2    C19   A    
Cu1   O5    S    
C7    C8    A    
C16   O10   A    
C13   C14   A    
C20   C21   A    
C21   H16   S    
C12   C23   A    
C22   O11   S    
C26   C27   A    
C30   O3    S    
C3    H18   S    
C5    O11   S    
C18   C30   A    
C22   H2    S    
C23   C29   A    
C20   H17   S    
C28   C29   A    
C24   H7    S    
C26   C30   A    
C24   O2    S    
C8    O2    S    
C10   H11   S    
C5    C6    A    
C17   C31   A    
C7    F1    S    
C22   H4    S    
C16   O9    A    
C10   C11   A    
C11   N1    A    
Cu2   O8    S    
C17   C27   A    
C25   H8    S    
C27   C28   A    
C10   N2    A    
C1    C9    S    
C14   H12   S    
C25   H9    S    
C13   F3    S    
Cu2   O4    S    
C29   F4    S    
C2    C23   A    
C14   N2    A    
C24   H6    S    
Cu2   N2    S    
C18   C31   A    
C3    C5    A    
C6    C15   S    
C1    O1    A    
C28   H13   S    
C19   H15   S    
Cu1   N1    S    
C16   C18   S    
Cu2   O10   S    
C12   C26   A    
C8    C9    A    
C1    O4    A    
C15   O8    A    
