data_mof_unit_16837.cif
_audit_creation_date              2012-12-11T14:36:29-0500
_audit_creation_method            fapswitch 2.2
_symmetry_space_group_name_H-M    P1
_symmetry_Int_Tables_number       1
_space_group_crystal_system       triclinic
_cell_length_a                    13.487137
_cell_length_b                    13.477883
_cell_length_c                    27.502744
_cell_angle_alpha                 90.743034
_cell_angle_beta                  90.485027
_cell_angle_gamma                 60.008755
_cell_volume                      4329.60979267

loop_
_atom_site_label
_atom_site_type_symbol
_atom_type_description
_atom_site_fract_x
_atom_site_fract_y
_atom_site_fract_z
_atom_type_partial_charge
C1    C     C_R   0.620521 0.101366 0.570126 0.543905
C2    C     C_1   0.650080 0.704813 0.658592 -0.066308
C3    C     C_3   0.509163 0.590926 0.399474 -0.123960
C4    C     C_3   0.172467 0.360713 0.134731 -0.375691
C5    C     C_3   0.349446 0.495235 0.325680 -0.150224
C6    C     C_3   0.958348 0.908972 0.311465 -0.412662
C7    C     C_3   0.190545 0.056539 0.743709 -0.117297
C8    C     C_R   0.599916 0.779427 0.568797 0.538225
C9    C     C_3   0.260250 0.082203 0.782072 -0.144431
C10   C     C_1   0.096317 0.201435 0.901819 0.000036
C11   C     C_1   0.230931 0.137782 0.617761 -0.014270
C12   C     C_3   0.077335 0.142858 0.769662 -0.114692
C13   C     C_3   0.147499 0.168196 0.807211 0.057709
C14   C     C_3   0.067291 0.241145 0.737363 -0.071916
C15   C     C_3   0.180577 0.155000 0.712332 0.007724
C16   C     C_1   0.631816 0.732024 0.616509 -0.019914
C17   C     C_3   0.138299 0.264284 0.775137 0.316585
C18   C     C_3   0.251524 0.180025 0.749852 -0.101246
C19   C     C_1   0.124183 0.182094 0.859656 -0.017723
C20   C     C_R   0.278175 0.121718 0.569791 0.542972
C21   C     C_1   0.203394 0.146897 0.659923 -0.054581
C22   C     C_3   0.720852 0.214700 0.739421 0.317531
C23   C     C_3   0.618657 0.290095 0.772854 -0.096155
C24   C     C_1   0.690377 0.208663 0.902992 -0.010839
C25   C     C_1   0.636329 0.133509 0.618111 -0.021702
C26   C     C_3   0.765648 0.114707 0.775363 -0.065476
C27   C     C_3   0.704669 0.560222 0.768201 -0.100865
C28   C     C_3   0.661739 0.188845 0.808114 0.018543
C29   C     C_3   0.694415 0.069366 0.748521 -0.135915
C30   C     C_3   0.651583 0.169535 0.712654 0.047777
C31   C     C_3   0.590697 0.143699 0.782021 -0.119266
C32   C     C_R   0.621738 0.100445 0.431538 0.546207
C33   C     C_3   0.547625 0.244162 0.745629 -0.144922
C34   C     C_1   0.673163 0.198512 0.860680 -0.052080
C35   C     C_1   0.644774 0.153073 0.660294 -0.057626
C36   C     C_R   0.733423 0.706088 0.359255 -0.180304
C37   C     C_R   0.745434 0.689557 0.308906 0.012276
C38   C     C_3   0.679151 0.655624 0.805722 0.053880
C39   C     C_R   0.762958 0.665819 0.207291 0.022679
C40   C     C_R   0.854160 0.658875 0.234891 -0.119007
C41   C     C_R   0.844527 0.673009 0.285361 -0.114493
C42   C     C_R   0.775008 0.641657 0.157438 -0.133482
C43   C     C_R   0.684892 0.642477 0.131162 -0.024888
C44   C     C_R   0.601591 0.775775 0.430199 0.547726
C45   C     C_R   0.553880 0.703701 0.355189 0.268344
C46   C     C_R   0.556686 0.705299 0.304562 -0.016569
C47   C     C_R   0.653982 0.695211 0.281336 0.002121
C48   C     C_R   0.462112 0.720667 0.276976 -0.103101
C49   C     C_3   0.594061 0.643611 0.740472 -0.110113
C50   C     C_R   0.465025 0.721335 0.226102 0.262131
C51   C     C_R   0.565990 0.701620 0.202987 0.028139
C52   C     C_R   0.660482 0.688914 0.230519 0.019304
C53   C     C_R   0.577748 0.683965 0.152954 -0.106555
C54   C     C_R   0.634796 0.719595 0.382248 -0.006843
C55   C     C_R   0.205237 0.060496 0.359068 -0.134804
C56   C     C_R   0.276713 0.121251 0.431223 0.547311
C57   C     C_R   0.176585 0.075296 0.309579 0.012751
C58   C     C_R   0.139520 0.098997 0.208614 0.012269
C59   C     C_R   0.149941 0.002584 0.232314 -0.096753
C60   C     C_3   0.663608 0.683590 0.710964 0.045874
C61   C     C_R   0.171301 0.989437 0.282309 -0.117201
C62   C     C_R   0.117112 0.113840 0.158809 -0.138321
C63   C     C_R   0.111147 0.208540 0.135130 0.004751
C64   C     C_R   0.181516 0.251474 0.363008 -0.122517
C65   C     C_R   0.159475 0.264638 0.313493 0.014251
C66   C     C_R   0.159524 0.175441 0.286293 0.057883
C67   C     C_R   0.145257 0.362587 0.290380 -0.094226
C68   C     C_3   0.774073 0.600571 0.737893 -0.093230
C69   C     C_R   0.140774 0.368340 0.240001 -0.110167
C70   C     C_R   0.143465 0.278856 0.211940 0.028137
C71   C     C_3   0.568790 0.738547 0.778734 -0.100205
C72   C     C_R   0.146497 0.184884 0.235593 0.044668
C73   C     C_R   0.140682 0.282152 0.160883 -0.001984
C74   C     C_R   0.213784 0.146337 0.385124 -0.010481
C75   C     C_R   0.547375 0.226517 0.359960 -0.128944
C76   C     C_R   0.556157 0.243947 0.310653 0.016626
C77   C     C_R   0.574204 0.269635 0.210384 -0.029733
C78   C     C_R   0.471759 0.341329 0.234639 -0.110407
C79   C     C_R   0.461856 0.329354 0.284525 0.279460
C80   C     C_3   0.748864 0.695561 0.776299 -0.092050
C81   C     C_R   0.586855 0.285615 0.160996 -0.137981
C82   C     C_3   0.638130 0.779015 0.748510 -0.102052
C83   C     C_R   0.689086 0.209832 0.137295 0.004631
C84   C     C_R   0.744729 0.071455 0.361429 -0.131374
C85   C     C_R   0.754929 0.082688 0.311739 0.031999
C86   C     C_R   0.659656 0.170005 0.286291 0.004083
C87   C     C_R   0.855822 0.005116 0.286417 0.016444
C88   C     C_R   0.859882 0.015778 0.236290 -0.104772
C89   C     C_R   0.766905 0.102986 0.211512 0.004993
C90   C     C_R   0.666908 0.181159 0.236136 0.041961
C91   C     C_R   0.774852 0.114657 0.162252 -0.121842
C92   C     C_1   0.696215 0.608711 0.900253 -0.008874
C93   C     C_1   0.687441 0.634899 0.858093 -0.049610
C94   C     C_R   0.640256 0.138309 0.384838 -0.027096
C95   C     C_R   0.048962 0.236282 0.949716 0.544334
C96   C     C_R   0.711265 0.563136 0.948217 0.545657
C97   C     C_R   0.721751 0.225508 0.950971 0.545320
C98   C     C_R   0.050171 0.244341 0.088197 0.544012
C99   C     C_R   0.707716 0.576224 0.086002 0.544387
C100  C     C_R   0.719830 0.233629 0.089699 0.546094
C101  C     C_3   0.120025 0.439607 0.758546 -0.123352
C102  C     C_3   0.735258 0.337930 0.686043 -0.129499
C103  C     C_3   0.331004 0.668623 0.207688 -0.153866
Cr1   Cr    Cr6+3 0.417550 0.169090 0.500530 1.013901
Cr2   Cr    Cr6+3 0.669180 0.913420 0.499920 1.017605
Cr3   Cr    Cr6+3 0.413260 0.917540 0.499520 1.040585
Cr4   Cr    Cr6+3 0.909170 0.177380 0.020380 1.020510
Cr5   Cr    Cr6+3 0.912710 0.429210 0.018220 1.025444
Cr6   Cr    Cr6+3 0.657170 0.432570 0.019030 1.026791
H1    H     H_    0.812203 0.717211 0.791615 0.108833
H2    H     H_    0.857846 0.543535 0.720394 0.100972
H3    H     H_    0.797813 0.714006 0.380063 0.126764
H4    H     H_    0.933026 0.641775 0.217491 0.093274
H5    H     H_    0.915317 0.668669 0.306034 0.095604
H6    H     H_    0.507451 0.688253 0.131882 0.181136
H7    H     H_    0.384505 0.736034 0.294889 0.148293
H8    H     H_    0.099650 0.054214 0.138929 0.127118
H9    H     H_    0.228082 0.979855 0.376250 0.143782
H10   H     H_    0.143906 0.936356 0.212029 0.133124
H11   H     H_    0.610316 0.869449 0.739787 0.103220
H12   H     H_    0.988683 0.306977 0.718883 0.120051
H13   H     H_    0.183946 0.912218 0.299609 0.103932
H14   H     H_    0.132710 0.444424 0.223432 0.106496
H15   H     H_    0.142386 0.432830 0.311169 0.139289
H16   H     H_    0.185086 0.319352 0.383157 0.137246
H17   H     H_    0.519643 0.357933 0.141697 0.113833
H18   H     H_    0.466203 0.276907 0.378349 0.169274
H19   H     H_    0.398362 0.405663 0.214826 0.103228
H20   H     H_    0.853602 0.053109 0.144338 0.132514
H21   H     H_    0.484616 0.795311 0.796039 0.101164
H22   H     H_    0.936479 0.956462 0.216444 0.094226
H23   H     H_    0.006510 0.126716 0.778469 0.140891
H24   H     H_    0.815295 0.004830 0.381617 0.135699
H25   H     H_    0.530580 0.622079 0.725229 0.097415
H26   H     H_    0.732452 0.469943 0.777209 0.134253
H27   H     H_    0.338750 0.017010 0.800840 0.104335
H28   H     H_    0.212147 0.970265 0.729933 0.120326
H29   H     H_    0.322931 0.195475 0.741235 0.097321
H30   H     H_    0.071602 0.443947 0.724926 0.096961
H31   H     H_    0.211755 0.406410 0.749949 0.111374
H32   H     H_    0.084438 0.528371 0.772714 0.141418
H33   H     H_    0.653250 0.407203 0.701304 0.100505
H34   H     H_    0.587758 0.380733 0.783326 0.097838
H35   H     H_    0.719502 0.305281 0.651304 0.132956
H36   H     H_    0.788867 0.376624 0.677697 0.132130
H37   H     H_    0.278237 0.693446 0.241199 0.101898
H38   H     H_    0.403472 0.578988 0.209897 0.113828
H39   H     H_    0.275451 0.671624 0.177112 0.135847
H40   H     H_    0.572949 0.577406 0.428308 0.123153
H41   H     H_    0.548307 0.520709 0.371852 0.100527
H42   H     H_    0.437902 0.586661 0.417224 0.128496
H43   H     H_    0.244910 0.362217 0.153568 0.112886
H44   H     H_    0.203890 0.328989 0.097389 0.153972
H45   H     H_    0.457860 0.297310 0.732963 0.102819
H46   H     H_    0.097885 0.449039 0.133512 0.132761
H47   H     H_    0.381799 0.536352 0.300338 0.110078
H48   H     H_    0.396571 0.475901 0.360633 0.113918
H49   H     H_    0.258356 0.558087 0.333321 0.129649
H50   H     H_    0.028725 0.856859 0.285547 0.111938
H51   H     H_    0.991986 0.944753 0.339422 0.128903
H52   H     H_    0.933530 0.850739 0.328884 0.125604
H53   H     H_    0.536554 0.114468 0.800034 0.116276
H54   H     H_    0.726028 0.978444 0.738342 0.107047
H55   H     H_    0.855605 0.061796 0.787824 0.103042
H56   H     H_    0.857230 0.612568 0.140269 0.122839
O1    O     O_R   0.301710 0.195650 0.554160 -0.512293
O2    O     O_R   0.635520 0.542770 0.964420 -0.508915
O3    O     O_R   0.665950 0.325030 0.970100 -0.494100
O4    O     O_R   0.522390 0.158990 0.550460 -0.498398
O5    O     O_R   0.816620 0.158530 0.074540 -0.526854
O6    O     O_R   0.004460 0.188870 0.069750 -0.503056
O7    O     O_R   0.025800 0.341780 0.072300 -0.519419
O8    O     O_R   0.807650 0.528950 0.067500 -0.500713
O9    O     O_R   0.633420 0.550490 0.071810 -0.520224
O10   O     O_R   0.664000 0.332180 0.069640 -0.496699
O11   O     O_3   0.826350 0.346390 0.019210 -0.243774
O12   O     O_R   0.658900 0.818120 0.449760 -0.511745
O13   O     O_R   0.694390 0.003530 0.554040 -0.505113
O14   O     O_R   0.657700 0.819660 0.549320 -0.496405
O15   O     O_R   0.501930 0.803280 0.552920 -0.512828
O16   O     O_R   0.318170 0.023580 0.549580 -0.494885
O17   O     O_R   0.303010 0.193990 0.446760 -0.522027
O18   O     O_R   0.523600 0.157450 0.450900 -0.506576
O19   O     O_R   0.695690 0.001860 0.446640 -0.518095
O20   O     O_3   0.108410 0.373004 0.794671 -0.554750
O21   O     O_3   0.795594 0.247521 0.718860 -0.583946
O22   O     O_3   0.368717 0.747046 0.198372 -0.581759
O23   O     O_R   0.503220 0.801620 0.445520 -0.459455
O24   O     O_3   0.464665 0.699130 0.377603 -0.565441
O25   O     O_3   0.356200 0.394916 0.306166 -0.590480
O26   O     O_R   0.319370 0.022040 0.450020 -0.493337
O27   O     O_3   0.499990 0.000010 0.499990 -0.244977
O28   O     O_R   0.818720 0.150820 0.967160 -0.507572
O29   O     O_R   0.006410 0.181720 0.970200 -0.499283
O30   O     O_R   0.027890 0.334070 0.964920 -0.498173
O31   O     O_R   0.809600 0.521790 0.967960 -0.491066

loop_
_geom_bond_atom_site_label_1
_geom_bond_atom_site_label_2
_ccdc_geom_bond_type
C58   C62   A    
C15   C18   S    
Cr1   O17   S    
C49   H25   S    
C68   C80   S    
C81   H17   S    
C29   H54   S    
C32   O18   A    
C32   C94   S    
Cr2   O27   S    
C76   C79   A    
C82   H11   S    
C41   H5    S    
C87   C88   A    
C78   H19   S    
C67   H15   S    
C6    H50   S    
C101  H30   S    
Cr6   O11   S    
C103  H38   S    
Cr4   O6    S    
C85   C86   A    
C33   H45   S    
C102  O21   S    
C49   C60   S    
C56   O17   A    
C30   C35   S    
C36   C37   A    
C43   C99   S    
C5    O25   S    
C63   C98   S    
C3    O24   S    
C102  H36   S    
C14   C15   S    
C89   C91   A    
C2    C60   S    
Cr4   O11   S    
C69   H14   S    
C27   C38   S    
Cr1   O27   S    
C92   C96   S    
C97   O28   A    
C18   H29   S    
C9    C13   S    
C62   H8    S    
C27   C68   S    
Cr6   O2    S    
C38   C71   S    
C55   C74   A    
C60   C82   S    
C43   C53   A    
C66   C72   A    
C62   C63   A    
C17   O20   S    
C23   C33   S    
C79   O25   S    
C103  H37   S    
C36   H3    S    
C59   H10   S    
C31   C33   S    
Cr3   O27   S    
C37   C47   A    
C2    C16   T    
Cr2   O13   S    
C42   H56   S    
C48   H7    S    
C71   C82   S    
C98   O7    A    
C7    C15   S    
C4    H44   S    
C31   H53   S    
C28   C34   S    
C8    C16   S    
C14   H12   S    
C1    C25   S    
C14   C17   S    
C23   H34   S    
C102  H35   S    
Cr3   O26   S    
Cr2   O14   S    
C101  O20   S    
C50   O22   S    
Cr3   O15   S    
C81   C83   A    
C101  H31   S    
C103  H39   S    
C17   C18   S    
C39   C42   A    
C85   C87   A    
C7    C12   S    
C4    H43   S    
C46   C48   A    
C77   C90   A    
C3    H40   S    
C59   C61   A    
C13   C19   S    
C100  O5    A    
C24   C97   S    
C56   C74   S    
C84   C85   A    
C80   C82   S    
C86   C90   A    
Cr1   O4    S    
C39   C40   A    
C7    H28   S    
Cr6   O9    S    
C63   C73   A    
C65   C67   A    
C58   C59   A    
C77   C78   A    
C70   C73   A    
C11   C20   S    
C11   C21   T    
C24   C34   T    
C6    C87   S    
C51   C52   A    
C61   H13   S    
C67   C69   A    
C68   H2    S    
C22   O21   S    
C75   C76   A    
Cr3   O16   S    
C29   C30   S    
Cr6   O3    S    
C44   C54   S    
C1    O13   A    
C8    O15   A    
C40   H4    S    
C99   O8    A    
C6    H52   S    
C77   C81   A    
C10   C19   T    
Cr5   O8    S    
C4    H46   S    
C100  O10   A    
C50   C51   A    
C96   O2    A    
C103  O22   S    
C84   C94   A    
C23   C28   S    
C12   C13   S    
Cr5   O30   S    
C48   C50   A    
C4    C73   S    
C25   C35   T    
C98   O6    A    
C45   O24   S    
C40   C41   A    
C12   C14   S    
C45   C54   A    
C65   C66   A    
C95   O29   A    
C5    H48   S    
C83   C100  S    
Cr5   O7    S    
C49   C71   S    
C15   C21   S    
Cr5   O31   S    
C42   C43   A    
C5    H49   S    
C97   O3    A    
C76   C86   A    
Cr4   O28   S    
C20   O1    A    
C27   C49   S    
C7    C9    S    
C46   C47   A    
C3    H41   S    
C95   O30   A    
C12   H23   S    
C30   C33   S    
C78   C79   A    
C101  H32   S    
C32   O19   A    
C28   C31   S    
Cr2   O12   S    
C3    H42   S    
C44   O12   A    
C6    H51   S    
Cr6   O10   S    
C57   C61   A    
C47   C52   A    
C91   H20   S    
C5    H47   S    
C83   C91   A    
C26   C28   S    
C13   C17   S    
C27   H26   S    
C64   C65   A    
C55   C57   A    
Cr3   O23   S    
C29   C31   S    
C57   C66   A    
C22   C30   S    
C71   H21   S    
C8    O14   A    
C58   C72   A    
C99   O9    A    
C38   C80   S    
C10   C95   S    
C44   O23   A    
Cr5   O11   S    
C38   C93   S    
C26   H55   S    
C92   C93   T    
C39   C52   A    
C75   H18   S    
Cr2   O19   S    
C37   C41   A    
C69   C70   A    
C56   O26   A    
C36   C54   A    
Cr1   O1    S    
C9    H27   S    
C45   C46   A    
C9    C18   S    
C96   O31   A    
Cr1   O18   S    
C88   C89   A    
C60   C68   S    
C26   C29   S    
C64   H16   S    
C22   C26   S    
C80   H1    S    
C64   C74   A    
C22   C23   S    
C1    O4    A    
C70   C72   A    
C102  H33   S    
C88   H22   S    
C51   C53   A    
C89   C90   A    
C84   H24   S    
C55   H9    S    
Cr4   O29   S    
C53   H6    S    
C75   C94   A    
C20   O16   A    
Cr4   O5    S    
