data_mof_unit_13292.cif
_audit_creation_date              2012-12-10T18:15:13-0500
_audit_creation_method            fapswitch 2.2
_symmetry_space_group_name_H-M    P1
_symmetry_Int_Tables_number       1
_space_group_crystal_system       triclinic
_cell_length_a                    12.591024
_cell_length_b                    13.124957
_cell_length_c                    23.425875
_cell_angle_alpha                 90.597908
_cell_angle_beta                  102.818579
_cell_angle_gamma                 82.229313
_cell_volume                      3739.36916719

loop_
_atom_site_label
_atom_site_type_symbol
_atom_type_description
_atom_site_fract_x
_atom_site_fract_y
_atom_site_fract_z
_atom_type_partial_charge
C1    C     C_R   0.438669 0.691356 0.495288 0.859772
C2    C     C_R   0.508248 0.678383 0.032817 -0.159719
C3    C     C_R   0.511183 0.678998 0.973775 -0.159297
C4    C     C_R   0.510107 0.587299 0.942412 -0.014835
C5    C     C_R   0.506213 0.494196 0.970801 -0.022085
C6    C     C_R   0.505115 0.401756 0.939705 -0.016159
C7    C     C_R   0.501244 0.309397 0.968391 -0.159142
C8    C     C_R   0.498174 0.308794 0.027435 -0.160564
C9    C     C_R   0.511872 0.586153 0.883004 0.501010
C10   C     C_R   0.507454 0.404451 0.880408 0.502306
C11   C     C_R   0.412243 0.481128 0.752295 -0.105327
C12   C     C_R   0.500955 0.500283 0.610569 0.862565
C13   C     C_R   0.409685 0.482521 0.692796 -0.212530
C14   C     C_R   0.503389 0.500028 0.673170 -0.041511
C15   C     C_R   0.599422 0.516549 0.713870 -0.222904
C16   C     C_R   0.601693 0.515019 0.773409 -0.098383
C17   C     C_R   0.508201 0.497120 0.792543 0.318918
C18   C     C_R   0.594856 0.504247 0.249002 -0.108585
C19   C     C_R   0.595192 0.506463 0.308235 -0.218777
C20   C     C_R   0.498717 0.496012 0.327092 -0.039117
C21   C     C_R   0.402341 0.482183 0.285913 -0.220653
C22   C     C_R   0.402332 0.480042 0.226598 -0.101996
C23   C     C_R   0.561227 0.308760 0.507124 0.865996
C24   C     C_R   0.498422 0.491576 0.208257 0.324524
C25   C     C_R   0.702730 0.066380 0.586796 -0.190281
C26   C     C_R   0.597627 0.200324 0.519686 -0.056359
C27   C     C_R   0.299509 0.837164 0.453043 -0.182901
C28   C     C_R   0.271523 0.941509 0.439777 -0.142379
C29   C     C_R   0.345500 0.009437 0.462168 -0.182995
C30   C     C_R   0.447218 0.973983 0.500978 0.091453
C31   C     C_R   0.466830 0.871099 0.521224 0.092434
C32   C     C_R   0.530172 0.036974 0.520473 0.083612
C33   C     C_R   0.622439 0.002174 0.566170 0.175924
C34   C     C_R   0.499361 0.499061 0.389475 0.865937
C35   C     C_R   0.631742 0.904910 0.591432 -0.243825
C36   C     C_R   0.554601 0.840153 0.569375 -0.200375
C37   C     C_R   0.524428 0.133473 0.495186 -0.245999
C38   C     C_R   0.689236 0.166344 0.564309 -0.189270
C39   C     C_R   0.398861 0.801155 0.492116 -0.117557
C40   C     C_R   0.089824 0.343196 0.418672 0.020493
C41   C     C_R   0.800659 0.629406 0.569377 0.024162
C42   C     C_R   0.905333 0.657966 0.583196 -0.245553
C43   C     C_R   0.986107 0.609042 0.556480 -0.191581
C44   C     C_R   0.962476 0.530181 0.515802 0.029971
C45   C     C_R   0.496458 0.401859 0.118107 0.499261
C46   C     C_R   0.854394 0.504039 0.503444 0.237173
C47   C     C_R   0.041382 0.476359 0.487251 -0.038787
C48   C     C_R   0.011212 0.397120 0.447024 0.156079
C49   C     C_R   0.903799 0.373204 0.436595 -0.299909
C50   C     C_R   0.827511 0.425641 0.464292 -0.217087
C51   C     C_R   0.149982 0.497916 0.497372 -0.065699
C52   C     C_R   0.195877 0.369552 0.431484 -0.035715
C53   C     C_R   0.501313 0.583496 0.120667 0.502053
C54   C     C_R   0.504182 0.586059 0.061463 -0.016577
C55   C     C_R   0.503150 0.493583 0.030396 -0.022005
C56   C     C_R   0.499018 0.400523 0.058778 -0.015067
H1    H     H_    0.509155 0.750335 0.055873 0.193425
H2    H     H_    0.670850 0.516447 0.339086 0.167792
H3    H     H_    0.327060 0.473661 0.299399 0.160559
H4    H     H_    0.327722 0.470354 0.194826 0.139616
H5    H     H_    0.746325 0.218382 0.583873 0.161527
H6    H     H_    0.699462 0.878279 0.627692 0.144972
H7    H     H_    0.772905 0.040917 0.621978 0.142203
H8    H     H_    0.460142 0.160967 0.457827 0.140117
H9    H     H_    0.245342 0.784327 0.431195 0.160054
H10   H     H_    0.319732 0.089298 0.449531 0.125880
H11   H     H_    0.194374 0.969351 0.409992 0.143011
H12   H     H_    0.514123 0.751429 0.952828 0.193358
H13   H     H_    0.563378 0.765881 0.590764 0.154685
H14   H     H_    0.258565 0.330484 0.410918 0.130596
H15   H     H_    0.876651 0.313551 0.406972 0.167577
H16   H     H_    0.180438 0.555903 0.526963 0.132984
H17   H     H_    0.737831 0.666624 0.590235 0.128395
H18   H     H_    0.065715 0.634454 0.568831 0.139151
H19   H     H_    0.923852 0.717843 0.614524 0.150976
H20   H     H_    0.747696 0.402366 0.454257 0.215073
H21   H     H_    0.500355 0.237448 0.945333 0.193585
H22   H     H_    0.495155 0.236383 0.048381 0.193011
H23   H     H_    0.339767 0.467790 0.767268 0.140797
H24   H     H_    0.334520 0.469828 0.662336 0.164646
H25   H     H_    0.672705 0.530297 0.699835 0.162023
H26   H     H_    0.675927 0.527416 0.804729 0.142119
H27   H     H_    0.669240 0.512789 0.234596 0.135917
N1    N     N_R   0.497914 0.492353 0.147485 -0.359349
N2    N     N_R   0.510168 0.495739 0.853515 -0.358916
N3    N     N_R   0.222200 0.444670 0.469780 -0.111343
N4    N     N_R   0.776960 0.554790 0.529910 -0.129859
O1    O     O_R   0.366740 0.627150 0.485570 -0.614953
O2    O     O_2   0.501652 0.671156 0.151329 -0.553989
O3    O     O_2   0.513985 0.674590 0.854627 -0.557965
O4    O     O_2   0.507207 0.316807 0.849739 -0.554149
O5    O     O_R   0.544830 0.662520 0.504870 -0.607111
O6    O     O_R   0.410930 0.482340 0.574190 -0.615668
O7    O     O_R   0.589010 0.517710 0.593490 -0.630640
O8    O     O_R   0.455170 0.337480 0.495130 -0.608751
O9    O     O_R   0.633260 0.372850 0.514430 -0.638836
O10   O     O_R   0.410990 0.482290 0.406510 -0.619855
O11   O     O_R   0.589070 0.517660 0.425810 -0.633005
O12   O     O_2   0.493557 0.313639 0.146474 -0.559050
Zn1   Zn    Zn3+2 0.381090 0.476380 0.487110 0.942923
Zn2   Zn    Zn3+2 0.618910 0.523620 0.512890 0.933969
C57   C     C_3   0.064854 0.258506 0.375193 -0.447860
C58   C     C_3   0.002666 0.303492 0.314956 -0.337732
C59   C     C_3   0.973512 0.218477 0.271735 -0.843746
H28   H     H_    0.049285 0.169061 0.266159 0.262850
H29   H     H_    0.919358 0.170427 0.287590 0.263357
H30   H     H_    0.929312 0.253222 0.228531 0.255327
H31   H     H_    0.925692 0.353108 0.318448 0.225287
H32   H     H_    0.054957 0.351706 0.297579 0.224232
H33   H     H_    0.142645 0.211848 0.369970 0.192931
H34   H     H_    0.018341 0.203977 0.392062 0.205719

loop_
_geom_bond_atom_site_label_1
_geom_bond_atom_site_label_2
_ccdc_geom_bond_type
C30   C32   A    
C55   C56   A    
C10   N2    A    
C41   C42   A    
C3    H12   S    
C8    C56   A    
C59   H29   S    
C2    H1    S    
C7    C8    A    
C15   H25   S    
C53   C54   A    
C42   H19   S    
C53   N1    A    
C18   C24   A    
C28   C29   A    
C21   H3    S    
C22   H4    S    
C5    C6    A    
C33   C35   A    
C15   C16   A    
C34   O10   A    
C23   O9    A    
C18   C19   A    
C25   H7    S    
C23   C26   S    
C9    N2    A    
N4    Zn2   S    
C19   C20   A    
C45   C56   A    
C27   C39   A    
C16   C17   A    
C58   H31   S    
N3    Zn1   S    
C44   C47   A    
C7    H21   S    
C38   H5    S    
C20   C34   S    
C43   H18   S    
C13   H24   S    
C13   C14   A    
C8    H22   S    
C12   O7    A    
C57   H34   S    
C51   N3    A    
C59   H28   S    
C44   C46   A    
C19   H2    S    
C41   N4    A    
C28   H11   S    
O9    Zn2   S    
O7    Zn2   S    
C45   O12   S    
O8    Zn1   S    
C26   C38   A    
C47   C51   A    
C40   C52   A    
C40   C57   S    
C35   C36   A    
C43   C44   A    
C29   C30   A    
C27   H9    S    
C50   H20   S    
C25   C38   A    
C47   C48   A    
C16   H26   S    
C18   H27   S    
C32   C37   A    
O6    Zn1   S    
O1    Zn1   S    
C11   H23   S    
O5    Zn2   S    
C48   C49   A    
C12   C14   S    
C10   O4    S    
C1    O5    A    
C2    C54   A    
C17   N2    S    
C12   O6    A    
C57   H33   S    
C45   N1    A    
C42   C43   A    
C3    C4    A    
C58   C59   S    
C37   H8    S    
C36   H13   S    
C46   N4    A    
C40   C48   A    
C54   C55   A    
C11   C17   A    
O10   Zn1   S    
C31   C36   A    
C5    C55   A    
C4    C5    A    
C9    O3    S    
C6    C10   A    
C26   C37   A    
C6    C7    A    
O11   Zn2   S    
C46   C50   A    
C51   H16   S    
C58   H32   S    
C32   C33   A    
C52   N3    A    
C2    C3    A    
C24   N1    S    
C53   O2    S    
C11   C13   A    
C30   C31   A    
C1    O1    A    
C34   O11   A    
C23   O8    A    
C35   H6    S    
C22   C24   A    
C57   C58   S    
C52   H14   S    
C1    C39   S    
C41   H17   S    
C29   H10   S    
C20   C21   A    
C49   C50   A    
C49   H15   S    
C27   C28   A    
C31   C39   A    
C14   C15   A    
C4    C9    A    
C21   C22   A    
C59   H30   S    
C25   C33   A    
