data_mof_unit_32891.cif
_audit_creation_date              2013-03-05T16:26:55-0500
_audit_creation_method            fapswitch 2.2
_symmetry_space_group_name_H-M    P1
_symmetry_Int_Tables_number       1
_space_group_crystal_system       triclinic
_cell_length_a                    19.473752
_cell_length_b                    18.134161
_cell_length_c                    15.037948
_cell_angle_alpha                 89.957959
_cell_angle_beta                  88.839529
_cell_angle_gamma                 89.774107
_cell_volume                      5309.37165675

loop_
_atom_site_label
_atom_site_type_symbol
_atom_site_description
_atom_site_fract_x
_atom_site_fract_y
_atom_site_fract_z
_atom_type_partial_charge
O1    O     O_R   0.400190 0.561980 0.499990 -0.572579
O2    O     O_R   0.599810 0.438020 0.500010 -0.572404
O3    O     O_R   0.599810 0.561980 0.500010 -0.563958
O4    O     O_R   0.400190 0.438020 0.499990 -0.563830
C1    C     C_R   0.367761 0.500075 0.491772 0.792333
C2    C     C_R   0.632256 0.499931 0.508122 0.792305
O5    O     O_R   0.499980 0.561960 0.370260 -0.590693
O6    O     O_R   0.500020 0.438040 0.629740 -0.590719
O7    O     O_R   0.500020 0.561960 0.629740 -0.597100
O8    O     O_R   0.499980 0.438040 0.370260 -0.597359
C3    C     C_R   0.501108 0.500058 0.328856 0.817013
C4    C     C_R   0.498891 0.499939 0.671151 0.817123
Cu1   Cu    Cu3+1 0.500000 0.573360 0.500000 0.951293
Cu2   Cu    Cu3+1 0.500000 0.426640 0.500000 0.951334
C5    C     C_R   0.557230 0.518032 0.811058 -0.281636
C6    C     C_R   0.442776 0.481864 0.188979 -0.281797
C7    C     C_R   0.497202 0.499703 0.767519 -0.096267
C8    C     C_R   0.502791 0.500279 0.232501 -0.096217
C9    C     C_R   0.437113 0.480376 0.815666 -0.067353
C10   C     C_R   0.562873 0.519627 0.184356 -0.067400
C11   C     C_R   0.437830 0.480689 0.909585 0.070160
C12   C     C_R   0.562161 0.519277 0.090443 0.070108
C13   C     C_R   0.499133 0.499621 0.953215 0.049067
C14   C     C_R   0.500862 0.500317 0.046817 0.049029
C15   C     C_R   0.558772 0.518042 0.903415 0.124612
C16   C     C_R   0.441228 0.481875 0.096620 0.124687
C17   C     C_R   0.378795 0.463432 0.961138 -0.212918
C18   C     C_R   0.621192 0.536548 0.038895 -0.212845
C19   C     C_R   0.380678 0.463815 0.053505 -0.218501
C20   C     C_R   0.619321 0.536118 0.946529 -0.218598
H1    H     H_    0.603152 0.531386 0.772624 0.119261
H2    H     H_    0.396874 0.468421 0.227437 0.119266
H3    H     H_    0.330615 0.449639 0.930812 0.162647
H4    H     H_    0.669357 0.550395 0.069230 0.162655
H5    H     H_    0.334537 0.449994 0.091366 0.141353
H6    H     H_    0.665461 0.549941 0.908669 0.141355
C21   C     C_R   0.745361 0.432111 0.525565 -0.021615
C22   C     C_R   0.254836 0.568031 0.473438 -0.021377
C23   C     C_R   0.254772 0.432793 0.471830 0.001519
C24   C     C_R   0.745149 0.567346 0.528233 0.001663
C25   C     C_R   0.817094 0.433100 0.519493 -0.222253
C26   C     C_R   0.183094 0.567244 0.479505 -0.222086
C27   C     C_R   0.182995 0.434437 0.477066 -0.228734
C28   C     C_R   0.816928 0.565897 0.522869 -0.228798
H7    H     H_    0.845416 0.381502 0.518816 0.133778
H8    H     H_    0.154885 0.618909 0.479770 0.133547
H9    H     H_    0.154426 0.383344 0.473489 0.134154
H10   H     H_    0.845404 0.617032 0.526756 0.134240
C29   C     C_R   0.852820 0.499502 0.515579 0.067776
C30   C     C_R   0.147226 0.500942 0.483921 0.067905
C31   C     C_R   0.707914 0.499831 0.522187 -0.137243
C32   C     C_R   0.292134 0.500242 0.477473 -0.137630
C33   C     C_R   0.961117 0.548063 0.447751 -0.187605
C34   C     C_R   0.038911 0.452588 0.551926 -0.187620
C35   C     C_R   0.032459 0.548556 0.439901 -0.179581
C36   C     C_R   0.967574 0.452078 0.559751 -0.179593
H11   H     H_    0.931540 0.584688 0.406231 0.119963
H12   H     H_    0.068471 0.415962 0.593464 0.119924
H13   H     H_    0.056804 0.585421 0.392260 0.128214
H14   H     H_    0.943217 0.415186 0.607354 0.128319
C37   C     C_R   0.071840 0.500818 0.491967 0.119285
C38   C     C_R   0.928199 0.499788 0.507658 0.119232
C39   C     C_R   0.527637 0.720561 0.429412 0.063454
C40   C     C_R   0.472849 0.279400 0.570876 0.063176
C41   C     C_R   0.472775 0.720905 0.570758 0.060571
C42   C     C_R   0.526700 0.279102 0.428895 0.060282
H15   H     H_    0.548752 0.689530 0.373833 0.134457
H16   H     H_    0.452128 0.310372 0.626740 0.134539
H17   H     H_    0.451830 0.690077 0.626521 0.128563
H18   H     H_    0.547247 0.309919 0.372890 0.128833
C43   C     C_R   0.526960 0.798061 0.426041 -0.092310
C44   C     C_R   0.473568 0.201902 0.574178 -0.092492
C45   C     C_R   0.473858 0.798458 0.574141 -0.090580
C46   C     C_R   0.525519 0.201550 0.425449 -0.090758
C47   C     C_R   0.500322 0.838694 0.499899 -0.008328
C48   C     C_R   0.499626 0.161308 0.499986 -0.008393
N1    N     N_R   0.500000 0.683620 0.500000 -0.179461
N2    N     N_R   0.500000 0.316380 0.500000 -0.179346
C49   C     C_R   0.438758 0.961394 0.514182 -0.168027
C50   C     C_R   0.561179 0.038638 0.485594 -0.168237
C51   C     C_R   0.561324 0.961198 0.485275 -0.168183
C52   C     C_R   0.438633 0.038833 0.514646 -0.168541
H19   H     H_    0.390773 0.932424 0.524868 0.129826
H20   H     H_    0.609142 0.067617 0.474776 0.129430
H21   H     H_    0.609437 0.932083 0.474562 0.130851
H22   H     H_    0.390538 0.067961 0.525456 0.130487
C53   C     C_R   0.499840 0.078451 0.500328 0.111115
C54   C     C_R   0.500109 0.921568 0.499536 0.110468
C55   C     C_R   0.373489 0.462178 0.768178 0.100066
C56   C     C_R   0.351699 0.388680 0.762571 -0.149315
C57   C     C_R   0.287935 0.372367 0.726643 -0.153830
C58   C     C_R   0.245927 0.429164 0.695751 -0.099563
C59   C     C_R   0.268093 0.502300 0.699380 -0.131944
C60   C     C_R   0.331852 0.518887 0.735248 -0.155228
H23   H     H_    0.383236 0.344468 0.788176 0.132423
H24   H     H_    0.270614 0.315809 0.724053 0.114000
H25   H     H_    0.196184 0.416495 0.669013 0.119991
H26   H     H_    0.235592 0.546172 0.675139 0.134074
H27   H     H_    0.348031 0.575844 0.739416 0.124068
C61   C     C_R   0.626489 0.537881 0.231842 0.099948
C62   C     C_R   0.668316 0.481202 0.264445 -0.155528
C63   C     C_R   0.732044 0.497884 0.300344 -0.131967
C64   C     C_R   0.753985 0.571085 0.304348 -0.099389
C65   C     C_R   0.711801 0.627839 0.273750 -0.153964
C66   C     C_R   0.648074 0.611431 0.237763 -0.149108
H28   H     H_    0.652307 0.424203 0.260001 0.124087
H29   H     H_    0.764695 0.454038 0.324316 0.133981
H30   H     H_    0.803695 0.583841 0.331126 0.120187
H31   H     H_    0.728975 0.684435 0.276594 0.113978
H32   H     H_    0.616398 0.655621 0.212384 0.132559
C67   C     C_R   0.712878 0.359435 0.542888 0.146020
C68   C     C_R   0.673148 0.348174 0.620899 -0.084008
C69   C     C_R   0.646401 0.278448 0.640455 -0.130153
C70   C     C_R   0.660441 0.219181 0.583560 -0.109349
C71   C     C_R   0.700435 0.229639 0.506538 -0.155248
C72   C     C_R   0.726268 0.299517 0.485789 -0.175018
H33   H     H_    0.663190 0.393330 0.666570 0.101650
H34   H     H_    0.615397 0.270174 0.700162 0.123820
H35   H     H_    0.640691 0.165003 0.599191 0.112934
H36   H     H_    0.711718 0.183381 0.463164 0.123111
H37   H     H_    0.757363 0.306782 0.425908 0.114961
C73   C     C_R   0.287507 0.640505 0.455353 0.145864
C74   C     C_R   0.274021 0.700970 0.511572 -0.175400
C75   C     C_R   0.300140 0.770587 0.490121 -0.155084
C76   C     C_R   0.340524 0.780247 0.413283 -0.109459
C77   C     C_R   0.354647 0.720444 0.357248 -0.129676
C78   C     C_R   0.327608 0.650975 0.377485 -0.083641
H38   H     H_    0.242661 0.694326 0.571332 0.114984
H39   H     H_    0.288803 0.817254 0.532827 0.123072
H40   H     H_    0.360518 0.834222 0.397135 0.113137
H41   H     H_    0.385954 0.728097 0.297679 0.123917
H42   H     H_    0.337655 0.605396 0.332463 0.101318
C79   C     C_R   0.287196 0.359824 0.453651 0.149164
C80   C     C_R   0.329441 0.349665 0.377665 -0.085751
C81   C     C_R   0.356218 0.279960 0.357038 -0.128432
C82   C     C_R   0.339646 0.219507 0.410820 -0.109016
C83   C     C_R   0.296755 0.228663 0.485456 -0.161264
C84   C     C_R   0.270627 0.298410 0.506971 -0.163059
H43   H     H_    0.341161 0.395692 0.334341 0.092454
H44   H     H_    0.389210 0.272667 0.298883 0.126066
H45   H     H_    0.359391 0.165368 0.394435 0.113220
H46   H     H_    0.283284 0.181495 0.526250 0.121591
H47   H     H_    0.236523 0.304237 0.564229 0.112732
C85   C     C_R   0.712582 0.640136 0.547095 0.149084
C86   C     C_R   0.728929 0.701921 0.494295 -0.163847
C87   C     C_R   0.702622 0.771462 0.516489 -0.160984
C88   C     C_R   0.659697 0.780016 0.591206 -0.109088
C89   C     C_R   0.643336 0.719179 0.644448 -0.128183
C90   C     C_R   0.670354 0.649706 0.623201 -0.085508
H48   H     H_    0.762956 0.696527 0.436892 0.112696
H49   H     H_    0.715933 0.818929 0.476120 0.121771
H50   H     H_    0.639742 0.833978 0.608076 0.113424
H51   H     H_    0.610327 0.725992 0.702671 0.126000
H52   H     H_    0.658823 0.603382 0.666113 0.092000
C91   C     C_R   0.550530 0.833449 0.342103 0.103611
C92   C     C_R   0.616488 0.818286 0.306916 -0.189325
C93   C     C_R   0.636866 0.846482 0.224040 -0.140027
C94   C     C_R   0.590999 0.888469 0.174622 -0.097692
C95   C     C_R   0.524872 0.902520 0.208307 -0.128607
C96   C     C_R   0.504932 0.876171 0.292233 -0.116867
H53   H     H_    0.651742 0.783832 0.343022 0.126041
H54   H     H_    0.687792 0.834658 0.197469 0.120168
H55   H     H_    0.606357 0.909287 0.109772 0.110842
H56   H     H_    0.488609 0.932737 0.168692 0.107219
H57   H     H_    0.453358 0.887148 0.316870 0.110180
C97   C     C_R   0.450828 0.166445 0.658407 0.104344
C98   C     C_R   0.497116 0.124155 0.707726 -0.116956
C99   C     C_R   0.478038 0.097779 0.791943 -0.130435
C100  C     C_R   0.412072 0.111361 0.826475 -0.097562
C101  C     C_R   0.365515 0.152919 0.777600 -0.139227
C102  C     C_R   0.385040 0.181165 0.694414 -0.188553
H58   H     H_    0.548577 0.113566 0.682422 0.110074
H59   H     H_    0.514846 0.067869 0.831076 0.106907
H60   H     H_    0.397370 0.090504 0.891547 0.110574
H61   H     H_    0.314715 0.164376 0.804826 0.120050
H62   H     H_    0.349266 0.215302 0.658708 0.125750
C103  C     C_R   0.451215 0.834392 0.658420 0.100074
C104  C     C_R   0.386816 0.817659 0.697218 -0.182423
C105  C     C_R   0.367342 0.847607 0.779605 -0.131347
C106  C     C_R   0.412657 0.892783 0.825151 -0.101038
C107  C     C_R   0.477341 0.908252 0.788122 -0.125453
C108  C     C_R   0.496266 0.880192 0.704654 -0.115096
H63   H     H_    0.351992 0.780797 0.664340 0.122102
H64   H     H_    0.317557 0.834759 0.808814 0.121622
H65   H     H_    0.398034 0.915002 0.889612 0.110651
H66   H     H_    0.513343 0.941013 0.824714 0.108424
H67   H     H_    0.546700 0.892633 0.677470 0.111530
C109  C     C_R   0.547303 0.165622 0.340810 0.100554
C110  C     C_R   0.501710 0.119930 0.295315 -0.115140
C111  C     C_R   0.519679 0.092012 0.211459 -0.127168
C112  C     C_R   0.583987 0.107471 0.173296 -0.100958
C113  C     C_R   0.629864 0.152499 0.218120 -0.130656
C114  C     C_R   0.611315 0.182334 0.300904 -0.181837
H68   H     H_    0.451559 0.107481 0.323365 0.111457
H69   H     H_    0.483210 0.059356 0.175486 0.107929
H70   H     H_    0.597882 0.085357 0.108533 0.110441
H71   H     H_    0.679353 0.165336 0.188042 0.121478
H72   H     H_    0.646534 0.219110 0.333221 0.121788

loop_
_geom_bond_atom_site_label_1
_geom_bond_atom_site_label_2
_geom_bond_distance
_ccdc_geom_bond_type
C28   C29   1.393088 A    
C43   C47   1.421428 A    
C83   H46   1.082254 S    
C3    C8    1.448688 S    
C62   C63   1.397656 A    
C35   H13   1.083048 S    
C17   C19   1.390256 A    
C74   C75   1.397984 A    
C100  C101  1.396754 A    
C88   C89   1.396710 A    
C44   C48   1.421087 A    
O3    C2    1.295199 A    
C70   C71   1.395859 A    
C56   C57   1.396990 A    
C81   C82   1.396765 A    
C107  C108  1.396755 A    
C17   H3    1.081756 S    
O5    C3    1.283956 A    
C61   C66   1.403450 A    
C77   C78   1.398228 A    
C76   C77   1.396912 A    
C46   C48   1.421960 A    
O1    C1    1.297402 A    
C40   H16   1.081287 S    
C92   C93   1.397423 A    
C9    C11   1.412715 A    
C66   H32   1.083295 S    
C14   C16   1.410264 A    
C87   C88   1.395146 A    
C50   C53   1.407077 A    
C84   H47   1.081686 S    
C34   H12   1.083336 S    
C65   H31   1.081832 S    
C21   C31   1.427165 A    
C5    C15   1.389789 A    
C22   C32   1.427255 A    
C101  C102  1.397545 A    
C103  C108  1.405054 A    
C42   C46   1.407627 A    
C73   C78   1.407442 A    
Cu2   N2    1.999473 S    
C41   C45   1.407574 A    
C26   H8    1.084173 S    
C55   C60   1.403249 A    
O7    Cu1   1.961802 S    
C78   H42   1.083520 S    
C49   C54   1.407217 A    
C64   C65   1.397756 A    
C63   C64   1.397821 A    
C57   H24   1.081913 S    
C112  H70   1.082396 S    
C110  H68   1.080567 S    
C93   C94   1.396604 A    
C67   C68   1.407366 A    
C4    C7    1.448895 S    
C100  H60   1.082377 S    
C1    C32   1.492644 S    
C15   C20   1.397297 A    
C64   H30   1.081878 S    
C2    C31   1.492661 S    
C87   H49   1.082248 S    
C8    C10   1.408824 A    
C70   H35   1.080463 S    
O3    Cu1   1.953792 S    
C50   H20   1.082864 S    
C45   C103  1.483785 S    
C40   C44   1.406224 A    
C23   C32   1.429079 A    
C11   C17   1.409607 A    
C18   H4    1.081779 S    
C97   C102  1.405421 A    
C98   C99   1.397212 A    
C12   C18   1.409566 A    
Cu1   Cu2   2.660642 S    
O4    Cu2   1.953796 S    
C99   H59   1.080650 S    
C45   C47   1.422285 A    
C97   C98   1.404100 A    
O2    C2    1.297493 A    
C40   N2    1.358011 A    
C76   H40   1.080477 S    
C25   C29   1.393659 A    
C65   C66   1.397084 A    
C58   H25   1.081891 S    
C104  C105  1.397863 A    
C46   C109  1.483792 S    
C101  H61   1.082373 S    
C33   C35   1.391990 A    
C6    C16   1.389829 A    
C81   H44   1.082510 S    
C42   N2    1.358837 A    
C39   H15   1.081309 S    
C41   N1    1.358611 A    
C72   H37   1.083181 S    
C102  H62   1.080786 S    
C112  C113  1.396495 A    
C56   H23   1.083294 S    
C89   C90   1.398088 A    
O8    Cu2   1.961802 S    
C80   H43   1.080679 S    
C33   H11   1.083345 S    
C50   C51   1.404311 A    
C23   C27   1.398592 A    
C52   H22   1.082910 S    
C36   H14   1.083073 S    
C109  C110  1.405054 A    
C104  H63   1.081137 S    
C90   H52   1.080450 S    
C111  C112  1.396309 A    
C82   H45   1.079801 S    
C9    C55   1.481014 S    
C79   C80   1.406226 A    
C33   C38   1.403125 A    
C95   C96   1.397363 A    
C10   C61   1.481098 S    
C24   C28   1.398646 A    
O6    C4    1.283959 A    
C43   C91   1.481027 S    
C63   H29   1.082263 S    
C27   C30   1.393165 A    
C59   C60   1.397618 A    
C113  H71   1.082367 S    
C79   C84   1.406553 A    
C48   C53   1.502546 S    
C22   C73   1.484953 S    
C94   H55   1.082369 S    
C26   C30   1.393735 A    
C111  H69   1.080298 S    
C99   C100  1.396865 A    
C10   C12   1.412624 A    
C92   H53   1.080600 S    
C103  C104  1.406535 A    
C11   C13   1.417323 A    
Cu1   N1    1.999473 S    
C94   C95   1.396777 A    
C36   C38   1.402957 A    
O1    Cu1   1.955414 S    
C89   H51   1.082504 S    
C86   C87   1.397406 A    
C57   C58   1.397823 A    
C106  C107  1.396286 A    
C69   C70   1.396923 A    
C39   N1    1.357882 A    
C68   C69   1.398215 A    
C62   H28   1.083283 S    
C5    C7    1.392855 A    
O6    Cu2   1.962104 S    
C29   C38   1.470356 S    
C85   C90   1.406135 A    
C91   C96   1.404207 A    
C44   C97   1.480613 S    
C22   C26   1.398347 A    
C86   H48   1.081798 S    
C39   C43   1.406305 A    
C82   C83   1.395036 A    
C109  C114  1.406511 A    
C49   C52   1.404306 A    
C107  H66   1.080136 S    
C34   C36   1.391861 A    
C5    H1    1.083046 S    
C98   H58   1.081235 S    
C34   C37   1.403215 A    
C105  C106  1.396425 A    
C6    H2    1.083275 S    
C24   C31   1.429290 A    
C23   C79   1.487051 S    
C83   C84   1.397194 A    
C19   H5    1.084058 S    
C80   C81   1.398125 A    
C24   C85   1.487168 S    
C20   H6    1.084061 S    
C68   H33   1.083518 S    
C85   C86   1.406545 A    
C67   C72   1.405671 A    
C113  C114  1.397936 A    
C59   H26   1.082305 S    
C96   H57   1.081236 S    
C88   H50   1.079949 S    
C77   H41   1.082483 S    
C49   H19   1.082891 S    
C74   H38   1.083167 S    
C42   H18   1.081262 S    
C60   H27   1.083285 S    
C41   H17   1.081357 S    
O4    C1    1.295291 A    
C35   C37   1.403094 A    
C18   C20   1.390238 A    
C58   C59   1.397798 A    
C7    C9    1.408851 A    
C75   H39   1.082095 S    
C12   C14   1.417338 A    
C108  H67   1.080716 S    
C13   C15   1.410216 A    
C21   C25   1.398236 A    
C110  C111  1.396625 A    
O2    Cu2   1.955410 S    
O7    C4    1.285229 A    
C51   H21   1.082911 S    
C21   C67   1.484698 S    
C51   C54   1.407021 A    
O8    C3    1.285141 A    
C13   C14   1.408732 A    
C69   H34   1.082486 S    
C105  H64   1.082373 S    
C28   H10   1.084545 S    
C47   C54   1.502837 S    
O5    Cu1   1.962104 S    
C16   C19   1.397269 A    
C6    C8    1.392873 A    
C71   H36   1.082088 S    
C106  H65   1.082395 S    
C91   C92   1.405458 A    
C73   C74   1.405713 A    
C30   C37   1.470592 S    
C25   H7    1.084216 S    
C95   H56   1.080444 S    
C61   C62   1.403250 A    
C71   C72   1.397959 A    
C55   C56   1.403443 A    
C27   H9    1.084542 S    
C93   H54   1.082383 S    
C114  H72   1.081160 S    
C52   C53   1.406891 A    
C75   C76   1.395820 A    
