data_mof_unit_35143.cif
_audit_creation_date              2012-12-10T19:05:16-0500
_audit_creation_method            fapswitch 2.2
_symmetry_space_group_name_H-M    P1
_symmetry_Int_Tables_number       1
_space_group_crystal_system       triclinic
_cell_length_a                    9.554436
_cell_length_b                    10.864009
_cell_length_c                    17.288026
_cell_angle_alpha                 90.218716
_cell_angle_beta                  86.510033
_cell_angle_gamma                 89.838901
_cell_volume                      1791.13878027

loop_
_atom_site_label
_atom_site_type_symbol
_atom_type_description
_atom_site_fract_x
_atom_site_fract_y
_atom_site_fract_z
_atom_type_partial_charge
C1    C     C_R   0.499943 0.737256 0.500513 0.797164
C2    C     C_R   0.373194 0.465911 0.781486 -0.336407
C3    C     C_R   0.425536 0.548707 0.143641 -0.303522
C4    C     C_R   0.420001 0.558878 0.224894 0.510934
C5    C     C_R   0.622145 0.421289 0.225713 -0.301650
C6    C     C_R   0.622591 0.408160 0.145741 -0.146090
C7    C     C_R   0.525835 0.473214 0.104110 0.022886
C8    C     C_2   0.497135 0.559173 0.976219 -0.292633
C9    C     C_2   0.527496 0.460504 0.019240 0.529470
C10   C     C_R   0.522449 0.496529 0.265451 -0.111256
C11   C     C_R   0.378412 0.938230 0.503161 -0.060466
C12   C     C_R   0.482564 0.504107 0.649655 0.813470
C13   C     C_R   0.501349 0.869863 0.501514 -0.088549
C14   C     C_R   0.628931 0.935154 0.501686 -0.213889
C15   C     C_R   0.628709 0.064218 0.503093 -0.209740
C16   C     C_R   0.501270 0.130154 0.503458 -0.079322
C17   C     C_R   0.378170 0.062519 0.505164 0.000537
C18   C     C_3   0.222057 0.073921 0.510262 0.260496
C19   C     C_3   0.221007 0.931496 0.508235 0.276894
C20   C     C_R   0.934587 0.486758 0.432350 0.185019
C21   C     C_R   0.918380 0.524182 0.565763 -0.084114
C22   C     C_R   0.066798 0.523903 0.565809 -0.060159
C23   C     C_R   0.500061 0.262773 0.501474 0.813407
C24   C     C_R   0.081736 0.488811 0.432325 0.236108
C25   C     C_3   0.098449 0.385475 0.376105 -0.566734
C26   C     C_3   0.939163 0.381046 0.376151 0.284562
C27   C     C_R   0.517221 0.500416 0.350091 0.823912
C28   C     C_R   0.477174 0.521724 0.733201 -0.074994
C29   C     C_R   0.579312 0.595626 0.764781 -0.205031
C30   C     C_R   0.579945 0.611729 0.844185 -0.273920
C31   C     C_R   0.482059 0.550273 0.892979 0.114748
C32   C     C_R   0.377296 0.476366 0.862620 0.579330
Cu1   Cu    Cu3+1 0.359330 0.500020 0.500000 0.987348
Cu2   Cu    Cu3+1 0.640670 0.499980 0.500000 0.969719
H1    H     H_    0.658642 0.641337 0.727845 0.153191
H2    H     H_    0.699382 0.347910 0.116561 0.153953
H3    H     H_    0.727865 0.111704 0.504278 0.192736
H4    H     H_    0.182250 0.120782 0.458901 0.091704
H5    H     H_    0.180110 0.889533 0.563638 0.126775
H6    H     H_    0.857883 0.542657 0.619358 0.138539
H7    H     H_    0.115084 0.542038 0.619521 0.142993
H8    H     H_    0.148922 0.414486 0.319723 0.178014
H9    H     H_    0.147360 0.303654 0.401492 0.211784
H10   H     H_    0.896648 0.407033 0.319974 0.072364
H11   H     H_    0.696542 0.369100 0.256911 0.155240
H12   H     H_    0.350711 0.598219 0.110967 0.144228
H13   H     H_    0.291926 0.413000 0.755916 0.156401
H14   H     H_    0.491169 0.650522 0.002062 0.109135
N1    N     N_R   0.852130 0.499070 0.499500 -0.169627
N2    N     N_R   0.148040 0.499110 0.499500 -0.170839
O1    O     O_R   0.381190 0.680360 0.500000 -0.559792
O2    O     O_R   0.618770 0.680320 0.499990 -0.592962
O3    O     O_R   0.367430 0.500040 0.613600 -0.591801
O4    O     O_R   0.605020 0.500000 0.613590 -0.601666
O5    O     O_R   0.381230 0.319680 0.500010 -0.574604
O6    O     O_R   0.618810 0.319640 0.500000 -0.544124
O7    O     O_R   0.394980 0.500000 0.386410 -0.544276
O8    O     O_R   0.632570 0.499960 0.386400 -0.594225
H15   H     H_    0.728619 0.887334 0.501092 0.173876
O9    O     O_3   0.174195 0.122169 0.583117 -0.575962
C33   C     C_3   0.030767 0.151805 0.581459 -0.283875
H16   H     H_    0.968084 0.071201 0.563957 0.156384
H17   H     H_    0.015314 0.230940 0.542270 0.209684
H18   H     H_    0.991197 0.179870 0.640571 0.176740
O10   O     O_3   0.153961 0.881113 0.443720 -0.588622
C34   C     C_3   0.230384 0.895617 0.371637 -0.250418
H19   H     H_    0.321099 0.831363 0.366960 0.216060
H20   H     H_    0.265892 0.991698 0.361330 0.115767
H21   H     H_    0.160632 0.872359 0.324844 0.181345
O11   O     O_3   0.324192 0.635004 0.266349 -0.587838
C35   C     C_3   0.191634 0.638205 0.234282 -0.374053
H22   H     H_    0.160724 0.547668 0.210249 0.155329
H23   H     H_    0.189825 0.710844 0.189326 0.170882
H24   H     H_    0.111296 0.662425 0.280905 0.190782
O12   O     O_3   0.883408 0.272399 0.410247 -0.548713
C36   C     C_3   0.887423 0.177620 0.354079 -0.340459
H25   H     H_    0.861343 0.089157 0.383143 0.192085
H26   H     H_    0.993551 0.166379 0.324555 0.158392
H27   H     H_    0.808309 0.194383 0.310813 0.158690
O13   O     O_3   0.548314 0.344363 0.986577 -0.560524
C37   C     C_3   0.683641 0.337192 0.948991 -0.357645
H28   H     H_    0.714472 0.238841 0.944070 0.187856
H29   H     H_    0.765215 0.385012 0.981314 0.144671
H30   H     H_    0.682945 0.374058 0.889270 0.185111
O14   O     O_3   0.276102 0.424243 0.913586 -0.580226
C38   C     C_3   0.249665 0.300630 0.893770 -0.278158
H31   H     H_    0.347456 0.249180 0.875763 0.178798
H32   H     H_    0.173114 0.295908 0.848030 0.147026
H33   H     H_    0.201465 0.253835 0.945681 0.188367
H34   H     H_    0.660459 0.668177 0.867874 0.157978

loop_
_geom_bond_atom_site_label_1
_geom_bond_atom_site_label_2
_ccdc_geom_bond_type
C10   C27   S    
Cu1   O5    S    
C34   H20   S    
Cu2   O6    S    
C36   H27   S    
C30   H34   S    
C25   H9    S    
C4    O11   S    
C37   H28   S    
C26   H10   S    
C23   O6    A    
O14   C38   S    
C14   H15   S    
C11   C19   S    
C29   C30   A    
C12   C28   S    
C28   C29   A    
C36   H26   S    
C3    C7    A    
C30   C31   A    
C38   H32   S    
C34   H21   S    
C15   C16   A    
C2    C32   A    
C18   C19   S    
C33   H17   S    
C15   H3    S    
C20   C24   A    
C6    H2    S    
C8    C9    D    
O11   C35   S    
C12   O3    A    
C22   N2    A    
C34   H19   S    
C21   C22   A    
C24   N2    A    
C21   N1    A    
C37   H29   S    
C17   C18   S    
Cu1   O3    S    
C24   C25   S    
C27   O7    A    
C35   H23   S    
C38   H31   S    
C16   C17   A    
Cu1   N2    S    
C5    H11   S    
C38   H33   S    
O9    C33   S    
C9    O13   S    
C33   H18   S    
O12   C36   S    
C8    H14   S    
C20   N1    A    
C31   C32   A    
C26   O12   S    
C25   C26   S    
C36   H25   S    
C1    O1    A    
C19   H5    S    
C18   O9    S    
Cu2   O4    S    
C16   C23   S    
C1    C13   S    
C4    C10   A    
C3    C4    A    
C37   H30   S    
C7    C9    S    
C11   C17   A    
Cu2   N1    S    
Cu1   O7    S    
C8    C31   S    
O13   C37   S    
C27   O8    A    
C25   H8    S    
C35   H24   S    
C23   O5    A    
C6    C7    A    
C2    H13   S    
Cu1   O1    S    
C29   H1    S    
C3    H12   S    
Cu2   O2    S    
C18   H4    S    
C5    C10   A    
C11   C13   A    
C5    C6    A    
C21   H6    S    
C20   C26   S    
C32   O14   S    
Cu1   Cu2   S    
C19   O10   S    
C33   H16   S    
C1    O2    A    
C22   H7    S    
C35   H22   S    
O10   C34   S    
Cu2   O8    S    
C14   C15   A    
C2    C28   A    
C13   C14   A    
C12   O4    A    
