data_mof_unit_6421.cif
_audit_creation_date              2013-03-05T15:45:55-0500
_audit_creation_method            fapswitch 2.2
_symmetry_space_group_name_H-M    P1
_symmetry_Int_Tables_number       1
_space_group_crystal_system       triclinic
_cell_length_a                    11.676413
_cell_length_b                    11.008249
_cell_length_c                    9.95805
_cell_angle_alpha                 110.137875
_cell_angle_beta                  98.312598
_cell_angle_gamma                 92.55289
_cell_volume                      1182.95830569

loop_
_atom_site_label
_atom_site_type_symbol
_atom_site_description
_atom_site_fract_x
_atom_site_fract_y
_atom_site_fract_z
_atom_type_partial_charge
O1    O     O_R   0.510560 0.332330 0.577400 -0.608301
O2    O     O_R   0.489440 0.667670 0.422600 -0.544456
O3    O     O_R   0.477140 0.295500 0.332650 -0.515326
O4    O     O_R   0.522860 0.704500 0.667350 -0.510651
C1    C     C_R   0.494933 0.254337 0.442616 0.760351
C2    C     C_R   0.516273 0.744255 0.557400 0.850583
O5    O     O_R   0.353910 0.518430 0.622380 -0.546445
O6    O     O_R   0.646090 0.481570 0.377620 -0.608187
O7    O     O_R   0.320490 0.481600 0.377630 -0.524042
O8    O     O_R   0.679510 0.518400 0.622370 -0.518889
C3    C     C_R   0.284452 0.500016 0.500442 0.849259
C4    C     C_R   0.715579 0.500464 0.499640 0.801153
Cu1   Cu    Cu3+1 0.519790 0.521810 0.644910 1.128073
Cu2   Cu    Cu3+1 0.480210 0.478190 0.355090 1.129097
C5    C     C_1   0.162742 0.500490 0.501205 -0.062759
C6    C     C_1   0.837297 0.500583 0.498929 -0.061345
C7    C     C_1   0.060056 0.500688 0.500660 0.062385
C8    C     C_1   0.939988 0.500695 0.499480 0.070063
C9    C     C_2   0.491702 0.114553 0.420251 -0.259023
C10   C     C_2   0.564232 0.874808 0.579556 -0.165747
C11   C     C_2   0.543471 0.079295 0.532131 -0.150865
C12   C     C_2   0.493705 0.963246 0.557261 -0.078283
N1    N     N_2   0.450460 0.445430 0.137370 -0.107727
N2    N     N_2   0.549540 0.554570 0.862630 -0.115312
C13   C     C_2   0.521583 0.495601 0.074861 0.073186
C14   C     C_2   0.494303 0.481343 0.917774 0.048570
C15   C     C_2   0.366059 0.952665 0.566046 0.942298
O9    O     O_2   0.305870 0.035616 0.547735 -0.584321
O10   O     O_R   0.315162 0.852024 0.600369 -0.766832
H1    H     H_    0.229106 0.857572 0.603672 0.348522
C16   C     C_2   0.645706 0.161392 0.640934 1.001085
O11   O     O_2   0.658347 0.165231 0.766269 -0.475316
O12   O     O_R   0.730790 0.229232 0.600762 -0.699988
H2    H     H_    0.721192 0.208865 0.492302 0.289709
C17   C     C_2   0.691973 0.885281 0.580174 0.857222
O13   O     O_2   0.756670 0.849520 0.664162 -0.539252
O14   O     O_R   0.737714 0.928857 0.480575 -0.728966
H3    H     H_    0.825463 0.929759 0.491615 0.351657
C18   C     C_2   0.415506 0.020325 0.288460 0.964564
O15   O     O_2   0.420195 0.903281 0.257058 -0.505717
O16   O     O_R   0.338809 0.065789 0.199321 -0.694112
H4    H     H_    0.292361 0.992738 0.113203 0.365012
C19   C     C_2   0.418096 0.362869 0.822292 0.930608
O17   O     O_2   0.448114 0.256181 0.814527 -0.560159
O18   O     O_R   0.305885 0.372622 0.758822 -0.695338
H5    H     H_    0.260590 0.284688 0.702158 0.362503
C20   C     C_2   0.642848 0.543143 0.146056 0.918428
O19   O     O_2   0.721352 0.478393 0.102690 -0.545518
O20   O     O_R   0.668292 0.664565 0.257031 -0.686975
H6    H     H_    0.754871 0.686621 0.294808 0.338138
N3    N     N_R   0.597319 0.679041 0.953287 0.239424
O21   O     O_R   0.689801 0.729907 0.925962 -0.249277
O22   O     O_R   0.536538 0.754771 0.041040 -0.269390
N4    N     N_R   0.332382 0.431007 0.080540 0.240617
O23   O     O_R   0.268107 0.328473 0.072724 -0.259070
O24   O     O_R   0.282069 0.530229 0.066466 -0.284919

loop_
_geom_bond_atom_site_label_1
_geom_bond_atom_site_label_2
_geom_bond_distance
_ccdc_geom_bond_type
Cu2   N1    2.045470 S    
O5    Cu1   1.914528 S    
N3    O22   1.301036 A    
O7    Cu2   1.910844 S    
C16   O12   1.399727 S    
O14   H3    1.013787 S    
C1    C9    1.474885 S    
Cu1   Cu2   2.722819 S    
C15   O10   1.399363 S    
C2    C10   1.449813 S    
O16   H4    1.013933 S    
C13   C20   1.472980 S    
C17   O13   1.222964 D    
O6    C4    1.305338 A    
C19   O17   1.220709 D    
C11   C16   1.507106 S    
N2    N3    1.392204 S    
N1    C13   1.314338 D    
C7    C8    1.400310 S    
C18   O16   1.398704 S    
C6    C8    1.198233 T    
O2    C2    1.298630 A    
C11   C12   1.492750 S    
O5    C3    1.305528 A    
C19   O18   1.395528 S    
O10   H1    1.013968 S    
O3    Cu2   1.943593 S    
C9    C18   1.494222 S    
O1    C1    1.301405 A    
O8    C4    1.303876 A    
O4    C2    1.305679 A    
C9    C11   1.371568 D    
C10   C12   1.357428 D    
C14   C19   1.481510 S    
O12   H2    1.012601 S    
C12   C15   1.507283 S    
O7    C3    1.303653 A    
O2    Cu2   1.951357 S    
N4    O24   1.302526 A    
O1    Cu1   1.951356 S    
N3    O21   1.299874 A    
C18   O15   1.222576 D    
C4    C6    1.422212 S    
O4    Cu1   1.943593 S    
N1    N4    1.392615 S    
C20   O20   1.395968 S    
O20   H6    1.013765 S    
C15   O9    1.223024 D    
C5    C7    1.198337 T    
N4    O23   1.300185 A    
O6    Cu2   1.914529 S    
C17   O14   1.398920 S    
C13   C14   1.501830 S    
O18   H5    1.013482 S    
C10   C17   1.489844 S    
C3    C5    1.422483 S    
C16   O11   1.221136 D    
C20   O19   1.222910 D    
Cu1   N2    2.045469 S    
N2    C14   1.314612 D    
O3    C1    1.316013 A    
O8    Cu1   1.910844 S    
