data_mof_unit_5878.cif
_audit_creation_date              2013-03-05T15:53:27-0500
_audit_creation_method            fapswitch 2.2
_symmetry_space_group_name_H-M    P1
_symmetry_Int_Tables_number       1
_space_group_crystal_system       triclinic
_cell_length_a                    24.313704
_cell_length_b                    17.205749
_cell_length_c                    15.585864
_cell_angle_alpha                 89.854545
_cell_angle_beta                  128.646102
_cell_angle_gamma                 90.065199
_cell_volume                      5092.31533239

loop_
_atom_site_label
_atom_site_type_symbol
_atom_site_description
_atom_site_fract_x
_atom_site_fract_y
_atom_site_fract_z
_atom_type_partial_charge
C1    C     C_R   0.833140 0.892165 0.200151 -0.195502
C2    C     C_R   0.162571 0.878028 0.787143 -0.220050
C3    C     C_R   0.333333 0.390383 0.200916 -0.194159
C4    C     C_R   0.662799 0.378508 0.787564 -0.215720
H1    H     H_    0.780593 0.889514 0.175086 0.126859
H2    H     H_    0.215298 0.873593 0.813140 0.125636
H3    H     H_    0.280934 0.388560 0.176287 0.120770
H4    H     H_    0.715525 0.374267 0.813486 0.124349
N1    N     N_R   0.888400 0.921830 0.294620 -0.064509
N2    N     N_R   0.111600 0.921830 0.705380 -0.062356
N3    N     N_R   0.388400 0.421830 0.294620 -0.064513
N4    N     N_R   0.611600 0.421830 0.705380 -0.064098
C5    C     C_R   0.085455 0.855274 0.407368 -0.066569
C6    C     C_R   0.911637 0.855387 0.590784 -0.063522
C7    C     C_R   0.585364 0.355273 0.407342 -0.069152
C8    C     C_R   0.412221 0.355329 0.591120 -0.070350
H5    H     H_    0.051900 0.837068 0.323242 0.148110
H6    H     H_    0.942702 0.836847 0.674169 0.139993
H7    H     H_    0.551902 0.337141 0.323175 0.149518
H8    H     H_    0.443587 0.336778 0.674540 0.141073
N5    N     N_R   0.079940 0.922160 0.443410 -0.031769
N6    N     N_R   0.920060 0.922160 0.556590 -0.037623
N7    N     N_R   0.579940 0.422160 0.443410 -0.032849
N8    N     N_R   0.420060 0.422160 0.556590 -0.036732
C9    C     C_R   0.164149 0.856911 0.589906 -0.106451
C10   C     C_R   0.835823 0.857182 0.408080 -0.106820
C11   C     C_R   0.664023 0.356825 0.589918 -0.109094
C12   C     C_R   0.336109 0.356889 0.408465 -0.105814
H9    H     H_    0.207912 0.841915 0.673115 0.099340
H10   H     H_    0.794927 0.842261 0.323303 0.107321
H11   H     H_    0.707736 0.341754 0.673139 0.099998
H12   H     H_    0.295004 0.341698 0.323879 0.106310
N9    N     N_R   0.125650 0.922400 0.556620 -0.047089
N10   N     N_R   0.874350 0.922400 0.443380 -0.050641
N11   N     N_R   0.625650 0.422400 0.556620 -0.048474
N12   N     N_R   0.374350 0.422400 0.443380 -0.050275
C13   C     C_R   0.073225 0.879152 0.792351 0.300382
C14   C     C_R   0.922641 0.897690 0.195444 0.289152
C15   C     C_R   0.573483 0.379546 0.792814 0.295528
C16   C     C_R   0.422392 0.396749 0.195328 0.288408
N13   N     N_R   0.054230 0.922730 0.705400 -0.091005
N14   N     N_R   0.945770 0.922730 0.294600 -0.093265
N15   N     N_R   0.554230 0.422730 0.705400 -0.091848
N16   N     N_R   0.445770 0.422730 0.294600 -0.092575
C17   C     C_R   0.852636 0.877186 0.135751 0.003606
C18   C     C_R   0.137921 0.844376 0.837191 0.035954
C19   C     C_R   0.352338 0.374160 0.135797 0.007736
C20   C     C_R   0.638313 0.345025 0.837923 0.037719
C21   C     C_R   0.138301 0.813039 0.497066 0.043591
C22   C     C_R   0.859405 0.812925 0.499813 0.055265
C23   C     C_R   0.638141 0.313019 0.497039 0.043851
C24   C     C_R   0.360105 0.312773 0.500544 0.054384
C25   C     C_R   0.811207 0.099723 0.410545 -0.124027
C26   C     C_R   0.189490 0.096092 0.588359 -0.164455
C27   C     C_R   0.311103 0.599532 0.410426 -0.124453
C28   C     C_R   0.689640 0.594987 0.587542 -0.118185
H13   H     H_    0.762776 0.090168 0.329746 0.153437
H14   H     H_    0.237643 0.081745 0.668060 0.135641
H15   H     H_    0.262761 0.589896 0.329566 0.153275
H16   H     H_    0.737806 0.579614 0.666585 0.148357
N17   N     N_R   0.873790 0.077030 0.443380 -0.053487
N18   N     N_R   0.126210 0.077030 0.556620 -0.056569
N19   N     N_R   0.373790 0.577030 0.443380 -0.053364
N20   N     N_R   0.626210 0.577030 0.556620 -0.056230
C29   C     C_R   0.928958 0.118687 0.208732 -0.114525
C30   C     C_R   0.059535 0.137440 0.763598 -0.116254
C31   C     C_R   0.428862 0.618541 0.208556 -0.112661
C32   C     C_R   0.555565 0.642188 0.752988 -0.099361
H17   H     H_    0.960744 0.121874 0.182229 0.162296
H18   H     H_    0.022564 0.151243 0.777961 0.132225
H19   H     H_    0.460612 0.621679 0.181985 0.163361
H20   H     H_    0.517109 0.658350 0.763273 0.129883
N21   N     N_R   0.945200 0.076700 0.294600 -0.064487
N22   N     N_R   0.054800 0.076700 0.705400 -0.054994
N23   N     N_R   0.445200 0.576700 0.294600 -0.064467
N24   N     N_R   0.554800 0.576700 0.705400 -0.056585
C33   C     C_R   0.152895 0.136932 0.767876 0.171826
C34   C     C_R   0.837062 0.118156 0.207806 0.205925
C35   C     C_R   0.649282 0.640572 0.758053 0.202615
C36   C     C_R   0.336983 0.617976 0.207657 0.204895
N25   N     N_R   0.111030 0.077600 0.705380 -0.067703
N26   N     N_R   0.888970 0.077600 0.294620 -0.065959
N27   N     N_R   0.611030 0.577600 0.705380 -0.066585
N28   N     N_R   0.388970 0.577600 0.294620 -0.066167
C37   C     C_R   0.884997 0.103835 0.591999 -0.066833
C38   C     C_R   0.114557 0.103646 0.407186 -0.050242
C39   C     C_R   0.384706 0.603314 0.591789 -0.073920
C40   C     C_R   0.614380 0.603328 0.406768 -0.051417
H21   H     H_    0.906180 0.103098 0.676877 0.163273
H22   H     H_    0.091941 0.104533 0.321681 0.165328
H23   H     H_    0.405769 0.602199 0.676602 0.166583
H24   H     H_    0.591343 0.604304 0.321106 0.167917
N29   N     N_R   0.919490 0.077280 0.556590 -0.055121
N30   N     N_R   0.080510 0.077280 0.443410 -0.051823
N31   N     N_R   0.419490 0.577280 0.556590 -0.056063
N32   N     N_R   0.580510 0.577280 0.443410 -0.054561
Ni1   Ni    Ni4+2 0.882160 0.999430 0.370180 0.204990
Ni2   Ni    Ni4+2 0.117840 0.999430 0.629820 0.200197
Ni3   Ni    Ni4+2 0.382160 0.499430 0.370180 0.204231
Ni4   Ni    Ni4+2 0.617840 0.499430 0.629820 0.206544
Ni5   Ni    Ni4+2 0.012460 0.999430 0.370180 0.298984
Ni6   Ni    Ni4+2 0.987540 0.999430 0.629820 0.303326
Ni7   Ni    Ni4+2 0.512460 0.499430 0.370180 0.297845
Ni8   Ni    Ni4+2 0.487540 0.499430 0.629820 0.303541
C41   C     C_R   0.815898 0.116837 0.500869 0.079781
C42   C     C_R   0.184461 0.113816 0.497379 0.089799
C43   C     C_R   0.315594 0.616332 0.500653 0.080852
C44   C     C_R   0.684481 0.612751 0.496422 0.065532
C45   C     C_R   0.860599 0.145534 0.151831 0.007337
C46   C     C_R   0.120166 0.177881 0.801626 0.059545
C47   C     C_R   0.360449 0.645251 0.151538 0.007489
C48   C     C_R   0.614480 0.684186 0.786396 0.020220
C49   C     C_R   0.852823 0.704777 0.600026 0.082295
C50   C     C_R   0.150496 0.717590 0.392401 0.083178
C51   C     C_R   0.352322 0.207763 0.602603 0.080916
C52   C     C_R   0.651220 0.218864 0.392408 0.082905
C53   C     C_R   0.833149 0.736826 0.501818 -0.021963
C54   C     C_R   0.164562 0.739201 0.490754 -0.027305
C55   C     C_R   0.334109 0.237065 0.503987 -0.025084
C56   C     C_R   0.664578 0.239477 0.490528 -0.027442
C57   C     C_R   0.781125 0.697351 0.403755 -0.270697
C58   C     C_R   0.211838 0.693721 0.584953 -0.273998
C59   C     C_R   0.283283 0.196025 0.406876 -0.270399
C60   C     C_R   0.711498 0.193598 0.584422 -0.274483
H25   H     H_    0.771073 0.712944 0.327807 0.176501
H26   H     H_    0.217662 0.703577 0.658839 0.168880
H27   H     H_    0.274363 0.210074 0.331358 0.176595
H28   H     H_    0.716887 0.202957 0.658026 0.168957
C61   C     C_R   0.239484 0.141128 0.405335 0.308045
C62   C     C_R   0.756060 0.140239 0.585962 0.319057
C63   C     C_R   0.737716 0.641748 0.402096 0.309750
C64   C     C_R   0.256149 0.640039 0.586325 0.318541
C65   C     C_R   0.244787 0.132752 0.500886 -0.083165
C66   C     C_R   0.755073 0.138092 0.494034 -0.088741
C67   C     C_R   0.744569 0.631011 0.498724 -0.076814
C68   C     C_R   0.254696 0.637267 0.493954 -0.087844
C69   C     C_R   0.307128 0.157983 0.600439 0.089337
C70   C     C_R   0.696870 0.170110 0.394946 0.083175
C71   C     C_R   0.808315 0.653925 0.598135 0.077963
C72   C     C_R   0.195974 0.668609 0.394732 0.081948
C73   C     C_3   0.825921 0.685824 0.701880 -0.587813
C74   C     C_3   0.190852 0.713323 0.307184 -0.579126
C75   C     C_3   0.320652 0.194312 0.699187 -0.603173
C76   C     C_3   0.693070 0.215876 0.309296 -0.579301
C77   C     C_3   0.875885 0.740704 0.705684 0.186276
C78   C     C_3   0.140544 0.766954 0.303676 0.169176
C79   C     C_3   0.371811 0.247581 0.704090 0.187810
C80   C     C_3   0.642667 0.269370 0.305651 0.166231
H29   H     H_    0.781268 0.717041 0.689002 0.197413
H30   H     H_    0.240884 0.742689 0.337865 0.196370
H31   H     H_    0.274302 0.226450 0.679292 0.186915
H32   H     H_    0.743541 0.244962 0.341715 0.196658
H33   H     H_    0.852496 0.641812 0.768832 0.224604
H34   H     H_    0.166078 0.678704 0.230964 0.229813
H35   H     H_    0.345672 0.153081 0.769453 0.227491
H36   H     H_    0.668650 0.182146 0.232470 0.229263
H37   H     H_    0.861542 0.802912 0.700088 0.117866
H38   H     H_    0.160159 0.827587 0.329383 0.123231
H39   H     H_    0.356792 0.309968 0.693499 0.118804
H40   H     H_    0.662677 0.329705 0.333147 0.122544
H41   H     H_    0.727011 0.119305 0.975840 0.163549
H42   H     H_    0.204468 0.286469 0.818989 0.138743
H43   H     H_    0.226805 0.618841 0.975610 0.165357
H44   H     H_    0.739697 0.715792 0.955206 0.157881
H45   H     H_    0.210525 0.737702 0.824400 0.153023
H46   H     H_    0.710844 0.881318 0.988480 0.145458
H47   H     H_    0.710654 0.238216 0.824762 0.153567
H48   H     H_    0.210631 0.374978 0.997936 0.138256
C81   C     C_2   0.169571 0.774578 0.904999 -0.079062
C82   C     C_2   0.807154 0.843189 0.027329 -0.062952
C83   C     C_2   0.669992 0.275247 0.905745 -0.085221
C84   C     C_2   0.304200 0.346566 0.021916 -0.060919
C85   C     C_2   0.205930 0.726977 0.888405 -0.154899
C86   C     C_2   0.738122 0.839683 0.974631 -0.148058
C87   C     C_2   0.706193 0.227562 0.888924 -0.158854
C88   C     C_2   0.234412 0.347385 0.965749 -0.147927
H49   H     H_    0.843196 0.234825 0.036519 0.152209
H50   H     H_    0.133026 0.256790 0.923879 0.155450
H51   H     H_    0.342935 0.734296 0.035878 0.152685
H52   H     H_    0.600139 0.805211 0.817739 0.150598
C89   C     C_2   0.819390 0.185750 0.046456 -0.141559
C90   C     C_2   0.146515 0.247494 0.870028 -0.168178
C91   C     C_2   0.319168 0.685277 0.045998 -0.143090
C92   C     C_2   0.637190 0.757867 0.844450 -0.165423
C93   C     C_2   0.751461 0.168872 0.969356 -0.099677
C94   C     C_2   0.191146 0.295096 0.873045 -0.094593
C95   C     C_2   0.251234 0.668355 0.968972 -0.100436
C96   C     C_2   0.705300 0.766039 0.925042 -0.126802
H53   H     H_    0.164967 0.762499 0.968661 0.182811
H54   H     H_    0.831731 0.803118 0.006394 0.175872
H55   H     H_    0.665489 0.263224 0.969527 0.183101
H56   H     H_    0.326150 0.316142 0.988483 0.187357
N33   N     N_R   0.189855 0.096987 0.307546 0.235442
O1    O     O_R   0.165002 0.124593 0.211649 -0.373679
O2    O     O_R   0.177872 0.024587 0.315391 -0.361025
N34   N     N_R   0.802541 0.091796 0.680675 0.235390
O3    O     O_R   0.824540 0.114285 0.777156 -0.375860
O4    O     O_R   0.814327 0.020518 0.668288 -0.368341
N35   N     N_R   0.687144 0.599010 0.303313 0.234933
O5    O     O_R   0.661144 0.628468 0.207819 -0.369261
O6    O     O_R   0.675308 0.526182 0.309393 -0.358705
N36   N     N_R   0.302775 0.591811 0.681230 0.235389
O7    O     O_R   0.325111 0.614691 0.777746 -0.375110
O8    O     O_R   0.314297 0.520353 0.669056 -0.370544
N37   N     N_R   0.949353 0.723524 0.798644 0.263770
O9    O     O_R   0.993504 0.699753 0.783421 -0.408811
O10   O     O_R   0.971283 0.733458 0.898228 -0.263423
N38   N     N_R   0.069632 0.762543 0.198125 0.265543
O11   O     O_R   0.020286 0.721514 0.186383 -0.392385
O12   O     O_R   0.055433 0.801437 0.114813 -0.214643
N39   N     N_R   0.444414 0.232233 0.801549 0.264940
O13   O     O_R   0.490560 0.204030 0.793187 -0.405688
O14   O     O_R   0.463333 0.247619 0.898268 -0.251388
N40   N     N_R   0.572243 0.266205 0.199108 0.266523
O15   O     O_R   0.522378 0.224206 0.184361 -0.384785
O16   O     O_R   0.559197 0.306726 0.117728 -0.210360
N41   N     N_R   0.044987 0.889957 0.849347 0.238005
O17   O     O_R   0.072634 0.854168 0.941684 -0.294797
O18   O     O_R   0.998416 0.944056 0.817541 -0.362075
N42   N     N_R   0.956677 0.916521 0.148882 0.241261
O19   O     O_R   0.929142 0.895787 0.049224 -0.294746
O20   O     O_R   0.012296 0.960602 0.202546 -0.380237
N43   N     N_R   0.545366 0.390656 0.849935 0.240281
O21   O     O_R   0.573647 0.355778 0.943085 -0.291894
O22   O     O_R   0.498320 0.444309 0.817388 -0.359295
N44   N     N_R   0.456186 0.416145 0.148486 0.241249
O23   O     O_R   0.429877 0.393917 0.049925 -0.297099
O24   O     O_R   0.511204 0.461139 0.201701 -0.378951
N45   N     N_2   0.226010 0.140430 0.821070 -0.114046
H57   H     H_    0.238348 0.169939 0.777726 0.154118
C97   C     C_3   0.264729 0.069087 0.872645 -0.848834
H58   H     H_    0.321564 0.079344 0.915753 0.258854
H59   H     H_    0.245839 0.022717 0.810545 0.227259
H60   H     H_    0.258346 0.049435 0.933947 0.266314
N46   N     N_2   0.767872 0.123438 0.174547 -0.123131
H61   H     H_    0.738735 0.170332 0.125448 0.178604
C98   C     C_3   0.729250 0.050953 0.140311 -0.958799
H62   H     H_    0.675468 0.061675 0.113235 0.270854
H63   H     H_    0.755919 0.009346 0.209802 0.251348
H64   H     H_    0.725004 0.024339 0.071631 0.250807
N47   N     N_2   0.716530 0.654219 0.786806 -0.128747
H65   H     H_    0.733348 0.711083 0.801839 0.180837
C99   C     C_3   0.769656 0.598194 0.863934 -0.924576
H66   H     H_    0.820514 0.612627 0.882343 0.266929
H67   H     H_    0.753862 0.538708 0.828715 0.251195
H68   H     H_    0.777381 0.598632 0.942051 0.260925
N48   N     N_2   0.267736 0.622912 0.174223 -0.123094
H69   H     H_    0.238425 0.669669 0.124943 0.178871
C100  C     C_3   0.229439 0.550213 0.140236 -0.957728
H70   H     H_    0.175551 0.560648 0.112868 0.270901
H71   H     H_    0.256207 0.508790 0.209946 0.250721
H72   H     H_    0.225471 0.523525 0.071830 0.252776

loop_
_geom_bond_atom_site_label_1
_geom_bond_atom_site_label_2
_geom_bond_distance
_ccdc_geom_bond_type
N24   Ni8   1.851059 S    
C16   C19   1.392675 A    
C40   N32   1.338073 A    
C29   H17   1.081415 S    
C65   C69   1.399228 A    
N38   O12   1.299741 A    
N19   N31   1.378134 A    
C39   H23   1.079046 S    
C22   C53   1.464822 S    
C71   C73   1.496146 S    
C27   H15   1.071332 S    
C6    H6    1.064740 S    
C63   N35   1.436047 S    
N43   O21   1.300136 A    
C81   H53   1.085276 S    
C68   C72   1.400197 A    
C79   H39   1.112426 S    
C17   C82   1.445732 S    
C77   N37   1.464199 S    
C19   C84   1.467642 S    
C90   C94   1.336034 D    
C73   H29   1.111790 S    
C48   C92   1.452908 S    
C38   C42   1.382677 A    
N37   O9    1.302125 A    
C2    C18   1.372502 A    
C7    H7    1.071716 S    
N1    N14   1.395143 A    
N8    N12   1.378115 A    
N36   O8    1.301732 A    
C35   C48   1.394369 A    
C1    H1    1.078676 S    
C25   H13   1.071428 S    
N3    Ni3   1.850457 S    
C28   H16   1.075257 S    
C72   C74   1.500626 S    
C14   N14   1.344448 A    
N4    N15   1.395175 A    
C62   N34   1.436388 S    
C10   C22   1.387183 A    
C46   C90   1.460579 S    
C54   C58   1.406224 A    
C40   C44   1.381904 A    
C79   N39   1.463925 S    
N23   N28   1.367462 A    
N5    N9    1.378137 A    
N25   Ni2   1.864237 S    
H45   C85   1.086223 S    
C99   H66   1.108859 S    
C30   N22   1.342514 A    
C51   C79   1.504817 S    
C13   N41   1.434581 S    
N10   Ni1   1.832101 S    
C29   N21   1.343339 A    
N13   Ni6   1.835664 S    
H43   C95   1.079085 S    
N47   H65   1.029529 S    
C80   H40   1.112976 S    
C49   C77   1.503152 S    
C4    H4    1.079418 S    
N2    Ni2   1.845890 S    
C74   C78   1.506445 S    
N15   Ni8   1.835665 S    
C28   C44   1.378943 A    
C14   C17   1.381862 A    
H41   C93   1.079068 S    
C38   N30   1.338442 A    
C86   C96   1.439470 S    
N18   Ni2   1.845900 S    
C37   N29   1.340484 A    
C10   N10   1.340294 A    
C42   C65   1.469501 S    
N7    Ni7   1.849439 S    
C40   H24   1.078154 S    
N30   Ni5   1.865057 S    
N1    Ni1   1.850457 S    
C34   N46   1.420526 S    
N33   O2    1.301733 A    
C39   N31   1.341086 A    
N19   Ni3   1.850422 S    
N46   H61   1.029329 S    
C49   C71   1.376820 A    
N44   O23   1.300122 A    
C7    C23   1.373287 A    
C34   C45   1.389765 A    
C16   N16   1.349568 A    
C52   C70   1.372694 A    
C76   C80   1.505853 S    
C60   H28   1.082725 S    
N44   O24   1.300678 A    
N5    Ni5   1.849439 S    
C58   H26   1.082676 S    
C7    N7    1.324411 A    
C69   C75   1.496627 S    
N35   O5    1.301342 A    
C8    N8    1.331404 A    
N9    Ni2   1.836596 S    
C98   H62   1.110392 S    
C59   C61   1.411615 A    
N2    N13   1.395175 A    
N23   Ni7   1.849434 S    
N46   C98   1.448025 S    
C15   N43   1.434509 S    
N42   O20   1.300654 A    
C2    H2    1.079257 S    
C74   H34   1.112608 S    
C25   N17   1.325667 A    
C57   C63   1.411948 A    
C37   C41   1.381578 A    
N24   N27   1.367422 A    
C58   C64   1.409860 A    
N42   O19   1.300586 A    
N16   Ni7   1.837308 S    
C11   C23   1.387909 A    
C55   C59   1.408493 A    
H51   C91   1.087292 S    
N21   Ni5   1.849434 S    
N48   C100  1.448054 S    
C9    H9    1.075195 S    
N6    N10   1.378115 A    
C31   C47   1.386062 A    
C100  H71   1.107222 S    
H46   C86   1.086420 S    
N36   O7    1.301890 A    
C26   C42   1.378389 A    
C83   H55   1.085292 S    
C36   N28   1.332197 A    
C51   C69   1.376186 A    
C12   H12   1.077333 S    
C1    N1    1.328533 A    
N20   N32   1.378116 A    
C44   C67   1.472413 S    
N34   O4    1.301745 A    
C38   H22   1.078530 S    
C1    C17   1.376380 A    
N17   N29   1.378134 A    
C52   C80   1.506650 S    
C92   C96   1.319914 D    
C89   C93   1.333387 D    
N40   O15   1.302208 A    
N38   O11   1.302218 A    
C15   N15   1.351469 A    
C26   N18   1.329872 A    
C11   N11   1.344416 A    
N41   O17   1.300132 A    
C83   C87   1.344448 D    
C84   H56   1.086128 S    
C52   C56   1.397174 A    
C51   C55   1.399699 A    
C27   N19   1.326387 A    
C32   H20   1.079499 S    
N8    Ni8   1.850922 S    
C76   H36   1.112593 S    
C75   C79   1.507345 S    
C24   C55   1.462648 S    
C57   H25   1.081700 S    
N45   H57   1.027225 S    
C14   N42   1.436937 S    
C87   C93   1.440615 S    
C20   C83   1.459720 S    
C77   H37   1.112307 S    
C34   N26   1.332238 A    
C63   C67   1.419591 A    
C59   H27   1.081980 S    
N39   O13   1.302127 A    
C33   N25   1.338402 A    
C8    H8    1.064869 S    
C99   H68   1.110013 S    
C29   C45   1.385967 A    
C47   C91   1.456424 S    
C23   C56   1.452078 S    
C100  H70   1.110389 S    
C36   N48   1.420479 S    
C60   C62   1.409609 A    
N3    N16   1.395143 A    
C97   H59   1.110010 S    
C50   C54   1.397450 A    
C32   N24   1.344262 A    
C30   C46   1.384580 A    
C50   C78   1.506260 S    
H50   C90   1.087298 S    
C3    C19   1.381665 A    
C5    C21   1.373618 A    
C78   N38   1.463703 S    
N39   O14   1.299899 A    
C10   H10   1.077331 S    
C50   C72   1.373325 A    
N27   Ni4   1.864236 S    
N18   N30   1.378116 A    
C11   H11   1.075316 S    
C6    N6    1.333625 A    
C26   H14   1.075799 S    
N26   Ni1   1.859642 S    
C49   C53   1.399139 A    
C98   H64   1.109298 S    
C4    N4    1.323483 A    
N22   N25   1.367422 A    
N11   Ni4   1.836597 S    
C2    N2    1.323812 A    
N14   Ni5   1.837307 S    
N21   N26   1.367462 A    
H52   C92   1.086236 S    
N31   Ni8   1.863597 S    
H42   C94   1.085510 S    
C4    C20   1.372187 A    
C45   C89   1.456195 S    
H48   C88   1.084203 S    
C64   C68   1.418808 A    
C85   C95   1.440811 S    
C100  H72   1.109406 S    
C37   H21   1.079079 S    
C61   C65   1.419269 A    
N28   Ni3   1.859642 S    
C33   N45   1.417869 S    
N17   Ni1   1.850422 S    
C8    C24   1.379684 A    
N34   O3    1.301882 A    
H44   C96   1.084600 S    
C39   C43   1.381828 A    
C80   N40   1.463273 S    
N29   Ni6   1.863598 S    
C66   C70   1.399615 A    
C61   N33   1.436148 S    
N48   H69   1.029332 S    
N43   O22   1.301246 A    
C88   C94   1.452479 S    
C78   H38   1.112935 S    
C82   C86   1.331737 D    
C53   C57   1.409228 A    
N41   O18   1.301254 A    
C82   H54   1.088346 S    
C3    H3    1.077321 S    
N6    Ni6   1.850920 S    
C18   C81   1.459859 S    
N22   Ni6   1.851060 S    
C75   H35   1.112487 S    
C67   C71   1.400201 A    
C74   H30   1.112235 S    
C98   H63   1.107222 S    
N40   O16   1.299618 A    
C76   H32   1.112233 S    
C16   N44   1.437661 S    
C70   C76   1.500476 S    
C5    N5    1.325008 A    
C35   N27   1.327188 A    
C12   C24   1.387736 A    
C73   H33   1.111216 S    
C28   N20   1.333217 A    
C6    C22   1.382403 A    
H49   C89   1.087287 S    
C36   C47   1.389735 A    
C75   H31   1.111766 S    
C73   C77   1.509507 S    
C56   C60   1.406112 A    
H47   C87   1.086238 S    
N12   Ni3   1.832101 S    
C31   H19   1.081388 S    
C35   N47   1.419089 S    
C13   N13   1.351282 A    
C33   C46   1.390074 A    
C62   C66   1.418499 A    
N7    N11   1.378137 A    
C9    C21   1.388222 A    
N4    Ni4   1.845890 S    
C3    N3    1.333547 A    
C97   H60   1.111181 S    
C5    H5    1.071605 S    
C21   C54   1.453380 S    
C25   C41   1.372248 A    
N20   Ni4   1.845899 S    
C31   N23   1.343473 A    
C30   H18   1.080097 S    
C12   N12   1.341601 A    
N45   C97   1.446244 S    
N33   O1    1.301416 A    
N32   Ni7   1.865057 S    
C27   C43   1.372309 A    
C97   H58   1.110203 S    
N35   O6    1.301752 A    
C81   C85   1.344441 D    
C15   C20   1.395540 A    
C99   H67   1.111307 S    
N47   C99   1.449244 S    
C13   C18   1.395591 A    
N37   O10   1.300000 A    
C64   N36   1.436372 S    
C32   C48   1.383162 A    
C91   C95   1.333488 D    
C84   C88   1.338065 D    
C9    N9    1.344574 A    
C41   C66   1.461641 S    
C43   C68   1.463195 S    
