data_mof_unit_24145.cif
_audit_creation_date              2012-12-10T18:21:25-0500
_audit_creation_method            fapswitch 2.2
_symmetry_space_group_name_H-M    P1
_symmetry_Int_Tables_number       1
_space_group_crystal_system       triclinic
_cell_length_a                    14.976489
_cell_length_b                    14.178987
_cell_length_c                    10.740601
_cell_angle_alpha                 89.040886
_cell_angle_beta                  84.600687
_cell_angle_gamma                 90.051597
_cell_volume                      2270.33734757

loop_
_atom_site_label
_atom_site_type_symbol
_atom_type_description
_atom_site_fract_x
_atom_site_fract_y
_atom_site_fract_z
_atom_type_partial_charge
Br1   Br    Br    0.240576 0.394942 0.751903 -0.596998
Br2   Br    Br    0.620934 0.738782 0.280928 -0.509665
Br3   Br    Br    0.666362 0.268339 0.344870 -0.471292
Br4   Br    Br    0.784234 0.587836 0.269875 -0.488803
Br5   Br    Br    0.737995 0.348372 0.697773 -0.600561
C1    C     C_R   0.326993 0.500324 0.507895 0.901206
C2    C     C_R   0.032595 0.408865 0.718176 -0.194427
C3    C     C_R   0.086835 0.461984 0.629223 0.058988
C4    C     C_R   0.502936 0.500641 0.256630 0.940004
C5    C     C_R   0.046132 0.517298 0.539757 0.060266
C6    C     C_R   0.099087 0.571254 0.449069 0.134173
C7    C     C_R   0.059707 0.629692 0.364634 -0.233296
C8    C     C_R   0.967807 0.628963 0.362363 -0.140948
C9    C     C_R   0.180754 0.459027 0.623794 0.152279
C10   C     C_R   0.231106 0.504299 0.522927 -0.144101
C11   C     C_R   0.190936 0.563182 0.440272 -0.332069
C12   C     C_3   0.583221 0.463882 0.907791 -0.528972
C13   C     C_R   0.555979 0.801048 0.415013 0.271460
C14   C     C_R   0.568434 0.201939 0.432993 0.291945
C15   C     C_R   0.445073 0.797981 0.589179 0.477381
C16   C     C_R   0.432230 0.198405 0.564581 0.493604
C17   C     C_R   0.447784 0.898565 0.594674 -0.059988
C18   C     C_R   0.442924 0.099612 0.585690 -0.103441
C19   C     C_R   0.673473 0.499605 0.503043 1.022048
C20   C     C_R   0.505856 0.949705 0.507957 0.024345
C21   C     C_R   0.506567 0.050389 0.508234 0.036757
C22   C     C_R   0.562558 0.900771 0.420078 -0.042085
C23   C     C_R   0.824329 0.555283 0.427411 0.197517
C24   C     C_R   0.568209 0.101819 0.427390 -0.046296
C25   C     C_R   0.394409 0.949876 0.685213 -0.178814
C26   C     C_R   0.388049 0.048531 0.676345 -0.194363
C27   C     C_R   0.628078 0.051534 0.344167 -0.155432
C28   C     C_R   0.624232 0.953271 0.339059 -0.140967
C29   C     C_R   0.490893 0.499639 0.742234 0.886766
C30   C     C_3   0.475565 0.600600 0.071243 -0.484623
C31   C     C_3   0.427535 0.430759 0.085035 -0.465995
C32   C     C_3   0.469948 0.600188 0.930042 -0.392682
C33   C     C_3   0.418497 0.432882 0.943395 -0.383766
C34   C     C_R   0.769954 0.499210 0.511788 -0.186325
C35   C     C_3   0.595562 0.471335 0.050065 0.903330
C36   C     C_3   0.501838 0.501213 0.118552 0.054666
C37   C     C_3   0.490436 0.499717 0.878281 0.060687
C38   C     C_3   0.304845 0.731360 0.640435 0.138000
C39   C     C_3   0.231653 0.792868 0.706996 -0.453207
C40   C     C_3   0.138201 0.753899 0.691407 -0.903974
C41   C     C_3   0.294220 0.199666 0.494683 0.095282
C42   C     C_3   0.203092 0.248055 0.498678 -0.288313
C43   C     C_3   0.140443 0.198356 0.416604 -0.965163
C44   C     C_3   0.696847 0.606380 0.995910 0.109169
C45   C     C_R   0.807923 0.444941 0.604447 0.149009
C46   C     C_3   0.788026 0.580021 0.927601 -0.375324
C47   C     C_3   0.825883 0.660295 0.841977 -0.918137
C48   C     C_3   0.701899 0.347225 0.051387 0.182569
C49   C     C_3   0.696461 0.242663 0.019134 -0.347883
C50   C     C_3   0.789455 0.198812 0.997057 -0.898629
C51   C     C_R   0.899696 0.454977 0.619168 0.072908
C52   C     C_R   0.952895 0.515376 0.536409 -0.018863
C53   C     C_R   0.914353 0.568095 0.442987 0.045635
C54   C     C_R   0.940326 0.404835 0.712583 -0.176663
H1    H     H_    0.524868 0.654632 0.093419 0.237377
H2    H     H_    0.671247 0.919571 0.271475 0.187494
H3    H     H_    0.409382 0.621713 0.118532 0.193790
H4    H     H_    0.361884 0.449208 0.136208 0.174816
H5    H     H_    0.401181 0.621632 0.909769 0.209734
H6    H     H_    0.350730 0.459155 0.927338 0.223410
H7    H     H_    0.515425 0.654755 0.883928 0.204460
H8    H     H_    0.425384 0.360254 0.905936 0.219156
H9    H     H_    0.637107 0.496569 0.844163 0.156253
H10   H     H_    0.586675 0.388257 0.881682 0.216915
H11   H     H_    0.901837 0.361099 0.781339 0.179138
H12   H     H_    0.443572 0.357520 0.114226 0.226579
H13   H     H_    0.287336 0.657693 0.669237 0.200884
H14   H     H_    0.301893 0.738665 0.537168 0.133453
H15   H     H_    0.240681 0.795620 0.808427 0.239476
H16   H     H_    0.235381 0.865234 0.665908 0.220367
H17   H     H_    0.127109 0.751425 0.590693 0.269417
H18   H     H_    0.086589 0.800294 0.739382 0.267794
H19   H     H_    0.130190 0.681800 0.733172 0.270251
H20   H     H_    0.281639 0.123139 0.513465 0.138382
H21   H     H_    0.327922 0.208963 0.397958 0.118257
H22   H     H_    0.171169 0.248241 0.596251 0.259487
H23   H     H_    0.060751 0.366861 0.789664 0.197497
H24   H     H_    0.212921 0.321201 0.462731 0.237022
H25   H     H_    0.170562 0.197253 0.318088 0.266697
H26   H     H_    0.075680 0.236765 0.419857 0.284418
H27   H     H_    0.127128 0.124872 0.450876 0.267943
H28   H     H_    0.707520 0.670594 0.049937 0.233984
H29   H     H_    0.649365 0.629280 0.929668 0.109436
H30   H     H_    0.836427 0.563102 0.996889 0.266313
H31   H     H_    0.781983 0.517245 0.869346 0.216702
H32   H     H_    0.779695 0.676408 0.769371 0.267015
H33   H     H_    0.891782 0.639133 0.794594 0.270836
H34   H     H_    0.231712 0.601541 0.367139 0.157268
H35   H     H_    0.835515 0.724541 0.896996 0.271582
H36   H     H_    0.732049 0.385415 0.967051 0.133486
H37   H     H_    0.747823 0.357485 0.125362 0.219125
H38   H     H_    0.657234 0.203042 0.095726 0.249040
H39   H     H_    0.660851 0.235228 0.933645 0.241812
H40   H     H_    0.829614 0.236093 0.919147 0.276448
H41   H     H_    0.782942 0.123558 0.972305 0.268883
H42   H     H_    0.824933 0.202652 0.083128 0.270801
H43   H     H_    0.100139 0.673686 0.297653 0.147647
H44   H     H_    0.939741 0.674721 0.294630 0.192255
H45   H     H_    0.355955 0.914388 0.762094 0.172370
H46   H     H_    0.341252 0.085092 0.741739 0.181216
H47   H     H_    0.676963 0.087015 0.279231 0.179068
N1    N     N_R   0.500070 0.750030 0.500050 -0.168460
N2    N     N_R   0.500070 0.249970 0.500050 -0.163468
O1    O     O_R   0.367860 0.580280 0.500020 -0.661802
O2    O     O_3   0.347642 0.237824 0.584844 -0.578436
O3    O     O_3   0.664644 0.534287 0.082850 -0.624945
O4    O     O_3   0.614981 0.379373 0.095662 -0.649137
O5    O     O_R   0.367860 0.419720 0.500020 -0.560940
O6    O     O_R   0.500000 0.580270 0.314790 -0.588892
O7    O     O_R   0.500000 0.419730 0.314790 -0.593332
O8    O     O_R   0.632160 0.580270 0.499960 -0.580511
O9    O     O_R   0.632160 0.419730 0.499960 -0.530245
O10   O     O_R   0.500030 0.580270 0.685200 -0.608520
O11   O     O_R   0.500030 0.419730 0.685200 -0.592054
O12   O     O_3   0.391145 0.748589 0.680265 -0.646639
Zn1   Zn    Zn3+2 0.500020 0.607200 0.499990 1.014172
Zn2   Zn    Zn3+2 0.500020 0.392800 0.499990 1.069529

loop_
_geom_bond_atom_site_label_1
_geom_bond_atom_site_label_2
_ccdc_geom_bond_type
C29   O10   A    
C12   H10   S    
C38   H13   S    
C48   H36   S    
C44   H28   S    
C29   C37   S    
O9    Zn2   S    
C16   O2    S    
C2    C3    A    
C35   O4    S    
C48   C49   S    
C22   C28   A    
C11   H34   S    
C40   H17   S    
C4    O6    A    
C30   C32   S    
C33   C37   S    
C24   C27   A    
C46   H31   S    
C41   H20   S    
Br2   C13   S    
C10   C11   A    
C19   C34   S    
C51   C52   A    
C18   C21   A    
C32   C37   S    
C13   N1    A    
C1    C10   S    
C12   C37   S    
O6    Zn1   S    
C38   H14   S    
O5    Zn2   S    
C44   C46   S    
C17   C20   A    
C50   H41   S    
C49   H38   S    
C47   H35   S    
C40   H19   S    
C42   H24   S    
C8    H44   S    
C31   H4    S    
C31   H12   S    
C38   O12   S    
C44   O3    S    
C15   N1    A    
C14   N2    A    
O7    Zn2   S    
C27   H47   S    
C32   H7    S    
C48   H37   S    
C26   H46   S    
C44   H29   S    
C31   C36   S    
C2    C54   A    
Br4   C23   S    
C35   O3    S    
O8    Zn1   S    
C46   C47   S    
C4    O7    A    
C5    C52   A    
C8    C53   A    
C23   C34   A    
C20   C21   A    
C45   C51   A    
C43   H25   S    
C30   H1    S    
C12   C35   S    
C18   C26   A    
C39   H16   S    
C38   C39   S    
C1    O5    A    
C7    H43   S    
C6    C11   A    
C42   C43   S    
C33   H6    S    
Br3   C14   S    
C2    H23   S    
C19   O9    A    
C7    C8    A    
C39   H15   S    
C48   O4    S    
C28   H2    S    
C35   C36   S    
C15   C17   A    
C19   O8    A    
C16   C18   A    
C1    O1    A    
C43   H27   S    
Br5   C45   S    
C47   H33   S    
N1    Zn1   S    
C50   H40   S    
C14   C24   A    
C15   O12   S    
C32   H5    S    
C39   C40   S    
O11   Zn2   S    
C29   O11   A    
C41   C42   S    
C12   H9    S    
C3    C9    A    
C17   C25   A    
C43   H26   S    
C13   C22   A    
N2    Zn2   S    
C49   C50   S    
C6    C7    A    
C23   C53   A    
C20   C22   A    
C50   H42   S    
C4    C36   S    
C51   C54   A    
C27   C28   A    
C31   C33   S    
C41   O2    S    
C46   H30   S    
C41   H21   S    
O1    Zn1   S    
C52   C53   A    
C25   C26   A    
C30   H3    S    
C42   H22   S    
C30   C36   S    
C16   N2    A    
C5    C6    A    
C54   H11   S    
C34   C45   A    
C33   H8    S    
C21   C24   A    
C3    C5    A    
C25   H45   S    
C9    C10   A    
C49   H39   S    
C47   H32   S    
C40   H18   S    
Br1   C9    S    
O10   Zn1   S    
