data_mof_unit_65263.cif
_audit_creation_date              2012-12-10T19:35:22-0500
_audit_creation_method            fapswitch 2.2
_symmetry_space_group_name_H-M    P1
_symmetry_Int_Tables_number       1
_space_group_crystal_system       triclinic
_cell_length_a                    13.368935
_cell_length_b                    15.867746
_cell_length_c                    17.101533
_cell_angle_alpha                 83.171772
_cell_angle_beta                  90.863659
_cell_angle_gamma                 110.052624
_cell_volume                      3382.44916266

loop_
_atom_site_label
_atom_site_type_symbol
_atom_type_description
_atom_site_fract_x
_atom_site_fract_y
_atom_site_fract_z
_atom_type_partial_charge
C1    C     C_R   0.498137 0.510240 0.348713 0.934233
C2    C     C_R   0.983009 0.540638 0.498405 -0.144560
C3    C     C_R   0.879603 0.528227 0.527486 -0.229126
C4    C     C_R   0.034604 0.479832 0.529160 0.075493
C5    C     C_R   0.999844 0.428971 0.603990 -0.047773
C6    C     C_R   0.905107 0.427739 0.639596 0.090783
C7    C     C_R   0.842577 0.472622 0.599421 0.628837
C8    C     C_R   0.120363 0.468356 0.488959 0.210216
C9    C     C_R   0.158069 0.387693 0.608191 -0.165510
C10   C     C_R   0.820076 0.577542 0.486895 -0.245454
C11   C     C_R   0.493594 0.516217 0.262739 -0.375525
C12   C     C_R   0.703458 0.548211 0.496867 0.974117
C13   C     C_R   0.424473 0.444571 0.225315 -0.000125
C14   C     C_R   0.422611 0.452475 0.143204 0.611951
C15   C     C_R   0.489492 0.531199 0.097779 0.064109
C16   C     C_R   0.554591 0.603570 0.135200 0.032140
C17   C     C_R   0.557295 0.595861 0.217204 0.560465
C18   C     C_R   0.470599 0.545973 0.856630 -0.305347
C19   C     C_R   0.474065 0.549538 0.775183 0.594438
C20   C     C_R   0.488810 0.474845 0.904721 0.149774
C21   C     C_R   0.496212 0.481978 0.739179 -0.345062
C22   C     C_R   0.513737 0.409586 0.788157 0.050930
C23   C     C_R   0.499454 0.488947 0.651975 0.929021
C24   C     C_R   0.508870 0.406813 0.870141 0.596788
C25   C     C_R   0.557563 0.266261 0.462942 0.022982
C26   C     C_R   0.558118 0.177225 0.462689 -0.355191
C27   C     C_R   0.484976 0.105195 0.511325 0.232357
C28   C     C_R   0.414032 0.125439 0.558232 0.534334
C29   C     C_R   0.415172 0.214468 0.556913 0.231052
C30   C     C_R   0.452872 0.830021 0.533262 0.428536
C31   C     C_R   0.447453 0.739333 0.536769 0.636838
C32   C     C_R   0.526989 0.898217 0.480751 -0.038457
C33   C     C_R   0.583974 0.779458 0.438922 0.609546
C34   C     C_R   0.297052 0.452269 0.505162 0.812920
C35   C     C_R   0.592259 0.870794 0.433523 0.407077
C36   C     C_R   0.062921 0.383090 0.642600 -0.088104
C37   C     C_R   0.185896 0.427327 0.530691 -0.086654
C38   C     C_R   0.871118 0.649719 0.428827 0.499566
C39   C     C_R   0.979475 0.673110 0.411736 0.078010
C40   C     C_R   0.035592 0.619532 0.446560 0.564006
Cu1   Cu    Cu3+1 0.505120 0.585970 0.496130 1.162450
Cu2   Cu    Cu3+1 0.494880 0.414030 0.503870 1.032433
H1    H     H_    0.212547 0.364663 0.644227 0.166528
H2    H     H_    0.452804 0.598859 0.881846 0.237710
H3    H     H_    0.614998 0.165392 0.424957 0.224225
H4    H     H_    0.613983 0.320658 0.425037 0.174288
H5    H     H_    0.043577 0.348145 0.701500 0.186538
N1    N     N_2   0.491673 0.539676 0.014504 -0.166350
N2    N     N_2   0.486700 0.468494 0.988103 -0.046735
N3    N     N_R   0.487180 0.284900 0.509690 -0.225469
N4    N     N_2   0.477476 0.012058 0.516495 -0.033253
N5    N     N_2   0.538862 0.992953 0.472897 -0.100147
N6    N     N_R   0.512820 0.715120 0.490310 -0.380880
O1    O     O_R   0.504790 0.580580 0.382450 -0.493243
O2    O     O_R   0.496140 0.435390 0.388990 -0.597034
O3    O     O_R   0.657420 0.608020 0.495150 -0.507171
O4    O     O_R   0.648770 0.462830 0.501690 -0.584264
O5    O     O_R   0.503860 0.564610 0.611010 -0.498706
O6    O     O_R   0.495210 0.419420 0.617550 -0.558694
O7    O     O_R   0.351230 0.537170 0.498310 -0.516749
O8    O     O_R   0.342580 0.391980 0.504850 -0.578716
I1    I     I_    0.653742 0.724151 0.068522 -0.006228
F1    F     F_    0.624331 0.665323 0.252408 -0.522508
I2    I     I_    0.552290 0.302196 0.747561 -0.016012
F2    F     F_    0.353597 0.384382 0.107580 -0.562167
F3    F     F_    0.525763 0.337997 0.917217 -0.562265
I3    I     I_    0.314935 0.325224 0.288293 -0.083940
F4    F     F_    0.375654 0.675438 0.586939 -0.512896
F5    F     F_    0.385740 0.849588 0.581034 -0.505488
F6    F     F_    0.342481 0.057243 0.605585 -0.554497
I4    I     I_    0.853575 0.361648 0.755430 -0.106751
I5    I     I_    0.298900 0.228536 0.631324 -0.136119
F7    F     F_    0.647533 0.755475 0.391861 -0.465930
F8    F     F_    0.664148 0.932758 0.381864 -0.527008
I6    I     I_    0.139202 0.488442 0.362952 -0.190609
F9    F     F_    0.815767 0.697382 0.388449 -0.527414
F10   F     F_    0.143258 0.650545 0.436745 -0.602384
I7    I     I_    0.058433 0.788793 0.331529 0.062443
F11   F     F_    0.752328 0.470689 0.636106 -0.652353
F12   F     F_    0.454201 0.619344 0.732081 -0.558268

loop_
_geom_bond_atom_site_label_1
_geom_bond_atom_site_label_2
_ccdc_geom_bond_type
C23   O5    A    
C35   F8    S    
C34   C37   S    
Cu1   Cu2   S    
C1    C11   S    
C4    C8    A    
C38   F9    S    
C23   O6    A    
C26   C27   A    
C5    C6    A    
C28   C29   A    
C19   C21   A    
Cu1   O5    S    
C3    C7    A    
C30   C31   A    
C15   C16   A    
C5    C36   A    
C36   H5    S    
C18   C19   A    
C25   N3    A    
C32   N5    S    
C26   H3    S    
C20   C24   A    
C16   C17   A    
C9    C36   A    
C24   F3    S    
C29   I5    S    
C21   C22   A    
C34   O7    A    
C6    I4    S    
C16   I1    S    
C15   N1    S    
Cu2   O4    S    
C27   N4    S    
C29   N3    A    
C33   N6    A    
C31   F4    S    
C9    H1    S    
N4    N5    D    
C32   C35   A    
C39   C40   A    
C25   C26   A    
C8    I6    S    
C2    C4    A    
C1    O1    A    
C39   I7    S    
Cu1   O3    S    
C20   N2    S    
C18   H2    S    
Cu2   O2    S    
C9    C37   A    
C31   N6    A    
Cu2   O8    S    
Cu1   N6    S    
C12   O3    A    
C10   C12   S    
Cu2   N3    S    
C12   O4    A    
C33   F7    S    
N1    N2    D    
C21   C23   S    
C22   C24   A    
C8    C37   A    
C30   F5    S    
C7    F11   S    
C13   I3    S    
C11   C17   A    
C14   C15   A    
C28   F6    S    
Cu1   O7    S    
C4    C5    A    
Cu2   O6    S    
C6    C7    A    
C10   C38   A    
C2    C3    A    
C1    O2    A    
C3    C10   A    
C17   F1    S    
C30   C32   A    
C11   C13   A    
C38   C39   A    
C33   C35   A    
C14   F2    S    
C18   C20   A    
C34   O8    A    
C19   F12   S    
Cu1   O1    S    
C22   I2    S    
C2    C40   A    
C27   C28   A    
C40   F10   S    
C13   C14   A    
C25   H4    S    
