data_mof_unit_47114.cif
_audit_creation_date              2012-10-26T19:41:50-0400
_audit_creation_method            fapswitch 2.2
_symmetry_space_group_name_H-M    P1
_symmetry_Int_Tables_number       1
_space_group_crystal_system       triclinic
_cell_length_a                    10.688127
_cell_length_b                    10.784073
_cell_length_c                    9.720565
_cell_angle_alpha                 87.651844
_cell_angle_beta                  90.553364
_cell_angle_gamma                 94.986639
_cell_volume                      1115.20841252

loop_
_atom_site_label
_atom_site_type_symbol
_atom_type_description
_atom_site_fract_x
_atom_site_fract_y
_atom_site_fract_z
_atom_type_partial_charge
C1    C     C_R   0.499248 0.260996 0.503120 0.555424
C2    C     C_R   0.472745 0.048499 0.634521 0.021076
C3    C     C_R   0.485151 0.122878 0.508946 -0.008815
C4    C     C_R   0.259428 0.493916 0.499389 0.562089
C5    C     C_R   0.460869 0.064129 0.383370 -0.121838
C6    C     C_R   0.440667 0.935597 0.379819 -0.077998
C7    C     C_R   0.444492 0.863045 0.500783 -0.003496
C8    C     C_R   0.712114 0.624275 0.131710 0.218454
C9    C     C_R   0.821315 0.631025 0.052759 -0.037802
C10   C     C_R   0.808802 0.665722 0.914628 0.142756
C11   C     C_R   0.693211 0.637837 0.850538 -0.124747
C12   C     C_3   0.966364 0.584441 0.410636 -0.089473
C13   C     C_R   0.595546 0.567305 0.922271 0.023235
C14   C     C_R   0.599070 0.565459 0.071247 0.108960
C15   C     C_R   0.412222 0.433152 0.078301 0.057847
C16   C     C_R   0.477813 0.733013 0.498732 0.574101
C17   C     C_R   0.410641 0.430555 0.932312 0.369034
C18   C     C_R   0.740306 0.500649 0.500805 0.576202
C19   C     C_3   0.032021 0.403370 0.589038 -0.134469
C20   C     C_3   0.942251 0.384085 0.465046 -0.157631
C21   C     C_3   0.877301 0.498839 0.502533 -0.011702
C22   C     C_3   0.964590 0.518000 0.627533 -0.066649
C23   C     C_3   0.033261 0.469803 0.375142 0.236811
C24   C     C_3   0.055772 0.603751 0.535936 -0.093236
C25   C     C_3   0.713961 0.135900 0.749708 -0.004299
C26   C     C_3   0.819844 0.180488 0.846727 -0.247684
C27   C     C_3   0.824243 0.320136 0.862304 -0.354749
C28   C     C_3   0.121858 0.489174 0.497754 0.025434
C29   C     C_R   0.502168 0.091895 0.768487 0.325380
C30   C     C_R   0.449992 0.026586 0.884559 -0.066397
C31   C     C_R   0.383656 0.910988 0.871394 -0.137028
C32   C     C_R   0.379048 0.855792 0.744363 -0.088863
C33   C     C_R   0.431474 0.921106 0.626671 -0.029830
Cu1   Cu    Cu3+1 0.499990 0.499990 0.640660 1.054965
Cu2   Cu    Cu3+1 0.500010 0.500010 0.359340 1.064457
H1    H     H_    0.893766 0.293573 0.435944 0.128380
H2    H     H_    0.104904 0.693885 0.565255 0.179972
H3    H     H_    0.941352 0.660379 0.338386 0.182519
H4    H     H_    0.458453 0.117057 0.286390 0.157040
H5    H     H_    0.467949 0.062079 0.986154 0.148550
H6    H     H_    0.592229 0.852096 0.058040 0.324464
H7    H     H_    0.847756 0.927068 0.905557 0.334418
H8    H     H_    0.229502 0.197436 0.724121 0.348327
H9    H     H_    0.890431 0.311143 0.174158 0.349094
H10   H     H_    0.736419 0.172793 0.643438 0.138968
H11   H     H_    0.711575 0.032039 0.749674 0.122185
H12   H     H_    0.343825 0.860277 0.961331 0.176304
H13   H     H_    0.806103 0.133125 0.949852 0.192931
H14   H     H_    0.910546 0.156455 0.804401 0.170831
H15   H     H_    0.797093 0.365288 0.764602 0.170591
H16   H     H_    0.921133 0.356805 0.888391 0.230802
H17   H     H_    0.757333 0.342463 0.942512 0.193419
H18   H     H_    0.331986 0.763128 0.737961 0.180866
H19   H     H_    0.419369 0.893072 0.283301 0.195128
H20   H     H_    0.341534 0.379361 0.138449 0.219314
H21   H     H_    0.910739 0.657646 0.101208 0.213906
H22   H     H_    0.682468 0.671779 0.746640 0.222009
H23   H     H_    0.055427 0.325128 0.659025 0.181095
H24   H     H_    0.935858 0.535050 0.732813 0.196183
N1    N     N_R   0.501210 0.501210 0.147910 -0.286195
N2    N     N_R   0.501250 0.501290 0.852040 -0.254881
O1    O     O_R   0.499990 0.319640 0.618810 -0.398009
O2    O     O_2   0.821047 0.859632 0.161555 -0.284455
O3    O     O_3   0.581048 0.833676 0.158034 -0.554880
O4    O     O_2   0.052801 0.714095 0.853474 -0.239960
O5    O     O_2   0.900380 0.784985 0.682533 -0.309329
O6    O     O_3   0.935798 0.905554 0.905816 -0.449479
O7    O     O_2   0.234503 0.240702 0.974153 -0.282721
O8    O     O_2   0.172659 0.428958 0.855520 -0.248122
O9    O     O_3   0.289454 0.272873 0.719615 -0.519187
O10   O     O_2   0.141517 0.524091 0.129806 -0.224006
O11   O     O_2   0.132432 0.306208 0.220544 -0.258158
O12   O     O_R   0.500000 0.319660 0.381240 -0.533404
O13   O     O_3   0.925738 0.391321 0.131222 -0.564222
O14   O     O_3   0.599939 0.180638 0.791759 -0.544003
O15   O     O_R   0.316850 0.499960 0.618770 -0.439171
O16   O     O_R   0.316860 0.499980 0.381190 -0.488027
O17   O     O_R   0.500000 0.680340 0.618760 -0.551376
O18   O     O_R   0.500010 0.680360 0.381190 -0.405770
O19   O     O_R   0.683140 0.500020 0.618810 -0.540815
O20   O     O_R   0.683150 0.500040 0.381230 -0.483662
O21   O     O_2   0.723506 0.759671 0.363032 -0.239302
S1    S     S_3+6 0.712182 0.771036 0.209186 0.006897
S2    S     S_3+6 0.927854 0.766626 0.833571 -0.006290
S3    S     S_3+6 0.274918 0.342171 0.869056 0.052393
S4    S     S_3+6 0.064608 0.422431 0.208915 0.029322

loop_
_geom_bond_atom_site_label_1
_geom_bond_atom_site_label_2
_ccdc_geom_bond_type
C18   C21   S    
C15   N1    A    
C19   C20   S    
C1    O1    A    
Cu2   O20   S    
C12   C23   S    
C26   C27   S    
C2    C29   A    
C17   S3    S    
C21   C22   S    
C30   C31   A    
C8    S1    S    
Cu1   O1    S    
C18   O20   A    
Cu1   Cu2   S    
C10   S2    S    
Cu1   O19   S    
C8    C9    A    
C23   S4    S    
C9    C10   A    
C27   H15   S    
C26   H13   S    
C17   N2    A    
O6    S2    S    
C31   H12   S    
C13   C14   A    
O7    S3    D    
C7    C33   A    
C6    H19   S    
C4    C28   S    
C27   H16   S    
C19   H23   S    
C19   C22   S    
C26   H14   S    
C22   H24   S    
O4    S2    D    
C25   C26   S    
C12   C21   S    
Cu2   O16   S    
Cu1   N2    S    
O2    S1    D    
Cu2   N1    S    
C1    C3    S    
C15   H20   S    
O3    S1    S    
C29   C30   A    
O10   S4    D    
C31   C32   A    
C20   C23   S    
C24   H2    S    
C30   H5    S    
C9    H21   S    
C23   C28   S    
O13   S4    S    
H9    O13   S    
C19   C28   S    
C2    C33   A    
C7    C16   S    
H8    O9    S    
C5    H4    S    
H7    O6    S    
C22   C24   S    
C25   H10   S    
C32   H18   S    
O8    S3    D    
C27   H17   S    
C15   C17   A    
Cu2   O12   S    
C8    C14   A    
C24   C28   S    
C3    C5    A    
O11   S4    D    
C6    C7    A    
C29   O14   S    
C14   N1    A    
C12   C24   S    
C16   O18   A    
C1    O12   A    
C32   C33   A    
C2    C3    A    
C4    O16   A    
Cu1   O17   S    
C11   C13   A    
C5    C6    A    
Cu2   O18   S    
C16   O17   A    
C12   H3    S    
C4    O15   A    
C10   C11   A    
O5    S2    D    
C20   H1    S    
C13   N2    A    
C20   C21   S    
C18   O19   A    
O21   S1    D    
H6    O3    S    
C25   O14   S    
C11   H22   S    
O9    S3    S    
C25   H11   S    
Cu1   O15   S    
