data_mof_unit_44147.cif
_audit_creation_date              2012-12-10T18:33:39-0500
_audit_creation_method            fapswitch 2.2
_symmetry_space_group_name_H-M    P1
_symmetry_Int_Tables_number       1
_space_group_crystal_system       triclinic
_cell_length_a                    10.515645
_cell_length_b                    14.933829
_cell_length_c                    15.208386
_cell_angle_alpha                 82.48831
_cell_angle_beta                  89.629723
_cell_angle_gamma                 103.422734
_cell_volume                      2301.45350011

loop_
_atom_site_label
_atom_site_type_symbol
_atom_type_description
_atom_site_fract_x
_atom_site_fract_y
_atom_site_fract_z
_atom_type_partial_charge
C1    C     C_R   0.486011 0.442142 0.662983 0.887623
C2    C     C_R   0.522009 0.557944 0.336977 0.868384
C3    C     C_R   0.552819 0.474196 0.812306 -0.217963
C4    C     C_R   0.562801 0.526570 0.186498 -0.211575
C5    C     C_R   0.593833 0.448068 0.896955 0.083609
C6    C     C_R   0.623842 0.552360 0.102301 0.085508
C7    C     C_R   0.571667 0.352212 0.928891 0.139068
C8    C     C_R   0.667264 0.648145 0.070647 0.133170
C9    C     C_R   0.643053 0.515012 0.953707 -0.011697
C10   C     C_R   0.630887 0.485213 0.045986 -0.013966
C11   C     C_R   0.621464 0.389352 0.077198 0.198490
C12   C     C_R   0.698586 0.610774 0.922923 0.209818
C13   C     C_R   0.593423 0.324177 0.017479 -0.302629
C14   C     C_R   0.711164 0.676004 0.982495 -0.299194
C15   C     C_R   0.707864 0.842731 0.631751 -0.299311
C16   C     C_R   0.350698 0.172212 0.336552 -0.310177
C17   C     C_R   0.666371 0.752220 0.613480 0.036223
C18   C     C_R   0.361410 0.254768 0.371408 0.049964
C19   C     C_R   0.520242 0.796904 0.507751 -0.025926
C20   C     C_R   0.478805 0.202548 0.492330 -0.061176
C21   C     C_R   0.566536 0.891532 0.517312 0.007573
C22   C     C_R   0.482994 0.121132 0.455736 -0.004418
C23   C     C_R   0.742376 0.500229 0.499448 0.931057
C24   C     C_R   0.257859 0.500233 0.499459 0.937180
C25   C     C_R   0.657653 0.912705 0.584047 0.114248
C26   C     C_R   0.411732 0.105135 0.378424 0.138261
C27   C     C_R   0.523065 0.964642 0.465459 -0.007958
C28   C     C_R   0.552170 0.054807 0.493819 -0.051739
C29   C     C_R   0.652369 0.075301 0.556461 0.190721
C30   C     C_R   0.457675 0.952848 0.384198 0.192203
C31   C     C_R   0.701762 0.003687 0.600785 -0.202346
C32   C     C_R   0.404938 0.023860 0.341767 -0.242750
C33   C     C_3   0.932946 0.419116 0.475821 -0.231806
C34   C     C_3   0.067875 0.582281 0.521540 -0.227738
C35   C     C_3   0.018185 0.430818 0.557190 0.460732
C36   C     C_3   0.982469 0.570496 0.440199 0.457766
C37   C     C_3   0.123159 0.501145 0.498874 -0.109343
C38   C     C_3   0.877455 0.500103 0.498613 -0.112616
C39   C     C_3   0.040335 0.490519 0.416813 -0.287398
C40   C     C_3   0.960500 0.510821 0.580622 -0.292228
C41   C     C_R   0.506133 0.408537 0.755599 -0.070194
C42   C     C_R   0.561837 0.592020 0.243903 -0.073643
C43   C     C_R   0.525154 0.285798 0.872154 -0.180989
C44   C     C_R   0.664208 0.714645 0.127425 -0.167838
C45   C     C_R   0.494094 0.313940 0.785410 -0.179137
C46   C     C_R   0.613762 0.686552 0.214339 -0.148248
H1    H     H_    0.518250 0.216102 0.555458 0.150265
H2    H     H_    0.440352 0.772489 0.466766 0.170562
H3    H     H_    0.321146 0.309321 0.336882 0.128367
H4    H     H_    0.707877 0.697940 0.647208 0.143712
H5    H     H_    0.780203 0.858173 0.681456 0.140085
H6    H     H_    0.298382 0.161985 0.276124 0.143914
H7    H     H_    0.875813 0.353001 0.456368 0.169317
H8    H     H_    0.126176 0.649078 0.539341 0.175971
H9    H     H_    0.077091 0.483015 0.350206 0.165903
H10   H     H_    0.923376 0.517633 0.647281 0.167692
H11   H     H_    0.583314 0.251084 0.041215 0.142655
H12   H     H_    0.751149 0.748992 0.959038 0.144201
H13   H     H_    0.512780 0.455161 0.207568 0.182240
H14   H     H_    0.552805 0.545965 0.790762 0.187095
H15   H     H_    0.615514 0.738442 0.258125 0.168339
H16   H     H_    0.460105 0.261945 0.742096 0.159083
H17   H     H_    0.511246 0.212266 0.895207 0.136626
H18   H     H_    0.700422 0.788114 0.104563 0.135768
H19   H     H_    0.778869 0.019766 0.647223 0.161544
H20   H     H_    0.358596 0.015780 0.278934 0.153280
N1    N     N_R   0.574200 0.731700 0.552740 -0.108191
N2    N     N_R   0.425800 0.268300 0.447260 -0.097684
O1    O     O_R   0.462600 0.383110 0.605620 -0.605284
O2    O     O_R   0.537400 0.616890 0.394380 -0.600199
O3    O     O_R   0.510210 0.531900 0.639510 -0.627481
O4    O     O_R   0.489790 0.468100 0.360490 -0.630412
O5    O     O_R   0.662240 0.425610 0.483080 -0.633336
O6    O     O_R   0.337760 0.574390 0.516920 -0.632601
O7    O     O_R   0.709860 0.574400 0.516970 -0.592697
O8    O     O_R   0.290140 0.425600 0.483030 -0.587761
Zn1   Zn    Zn3+2 0.468210 0.400660 0.477370 0.962749
Zn2   Zn    Zn3+2 0.531790 0.599340 0.522630 0.967101
Cl1   Cl    Cl    0.048597 0.338897 0.635101 -0.642637
Cl2   Cl    Cl    0.954000 0.662897 0.362042 -0.643355
N3    N     N_2   0.722211 0.167868 0.563970 -0.304783
H21   H     H_    0.724238 0.218157 0.510473 0.222865
C47   C     C_3   0.724728 0.196907 0.651368 -0.709473
H22   H     H_    0.755948 0.273853 0.645455 0.259088
H23   H     H_    0.795298 0.167041 0.692673 0.267436
H24   H     H_    0.626142 0.174273 0.684895 0.207689
N4    N     N_2   0.465133 0.877878 0.336780 -0.337705
H25   H     H_    0.536627 0.896029 0.286678 0.226712
C48   C     C_3   0.342148 0.823834 0.309784 -0.763365
H26   H     H_    0.357583 0.758087 0.289896 0.242620
H27   H     H_    0.304931 0.862527 0.252153 0.241370
H28   H     H_    0.268029 0.806051 0.365639 0.269879
N5    N     N_2   0.646716 0.358119 0.166719 -0.319850
H29   H     H_    0.608671 0.288252 0.187145 0.224957
C49   C     C_3   0.780716 0.388859 0.191843 -0.736784
H30   H     H_    0.788684 0.364940 0.263449 0.236625
H31   H     H_    0.812668 0.465854 0.181131 0.263624
H32   H     H_    0.846471 0.359293 0.152585 0.232979
N6    N     N_2   0.749914 0.641751 0.834287 -0.328157
H33   H     H_    0.759314 0.711705 0.813825 0.216036
C50   C     C_3   0.865747 0.611212 0.812571 -0.778521
H34   H     H_    0.896662 0.637338 0.742139 0.229012
H35   H     H_    0.845744 0.534176 0.821372 0.257524
H36   H     H_    0.946819 0.638989 0.855324 0.247798

loop_
_geom_bond_atom_site_label_1
_geom_bond_atom_site_label_2
_ccdc_geom_bond_type
C25   C31   A    
C38   C40   S    
N4    H25   S    
C26   C32   A    
N5    H29   S    
O2    Zn2   S    
C34   C37   S    
O1    Zn1   S    
C49   H30   S    
N3    H21   S    
C49   H32   S    
C43   H17   S    
C44   H18   S    
C29   N3    S    
C33   C39   S    
C34   C40   S    
C28   C29   A    
C35   C37   S    
C15   C25   A    
C13   H11   S    
C18   N2    A    
C45   H16   S    
C31   H19   S    
C42   C46   A    
O5    Zn1   S    
C12   N6    S    
C39   H9    S    
N6    H33   S    
C40   H10   S    
C19   N1    A    
C7    C43   A    
C48   H27   S    
C9    C10   A    
C3    H14   S    
C11   N5    S    
C21   C27   A    
C50   H35   S    
C22   C28   A    
C27   C30   A    
C33   H7    S    
N1    Zn2   S    
C23   O5    A    
C2    O4    A    
N3    C47   S    
C44   C46   A    
C16   C26   A    
C14   H12   S    
C17   N1    A    
C46   H15   S    
C50   H34   S    
C16   H6    S    
O8    Zn1   S    
C4    C6    A    
C36   Cl2   S    
C23   O7    A    
C5    C7    A    
C19   H2    S    
C24   O8    A    
C6    C8    A    
O7    Zn2   S    
C1    O1    A    
C5    C9    A    
O4    Zn1   S    
C47   H22   S    
C29   C31   A    
C24   C37   S    
C1    O3    A    
C48   H28   S    
C43   C45   A    
C1    C41   S    
C47   H23   S    
C20   C22   A    
C34   H8    S    
C50   H36   S    
C15   H5    S    
N4    C48   S    
O6    Zn2   S    
C32   H20   S    
N2    Zn1   S    
C15   C17   A    
C21   C25   A    
C3    C41   A    
C8    C14   A    
N6    C50   S    
C20   N2    A    
C36   C39   S    
C8    C44   A    
C12   C14   A    
C3    C5    A    
C17   H4    S    
C6    C10   A    
C49   H31   S    
C23   C38   S    
C33   C38   S    
C36   C38   S    
C35   C40   S    
C48   H26   S    
C37   C39   S    
C30   C32   A    
C11   C13   A    
C24   O6    A    
N5    C49   S    
C4    C42   A    
C2    C42   S    
C4    H13   S    
C35   Cl1   S    
C33   C35   S    
C34   C36   S    
C9    C12   A    
C20   H1    S    
C10   C11   A    
C7    C13   A    
C47   H24   S    
C16   C18   A    
C22   C26   A    
C27   C28   A    
C41   C45   A    
C30   N4    S    
C2    O2    A    
O3    Zn2   S    
C18   H3    S    
C19   C21   A    
