data_mof_unit_49082.cif
_audit_creation_date              2012-12-11T14:58:39-0500
_audit_creation_method            fapswitch 2.2
_symmetry_space_group_name_H-M    P1
_symmetry_Int_Tables_number       1
_space_group_crystal_system       triclinic
_cell_length_a                    11.026085
_cell_length_b                    10.97247
_cell_length_c                    18.782829
_cell_angle_alpha                 90.542786
_cell_angle_beta                  90.517717
_cell_angle_gamma                 59.326434
_cell_volume                      1954.36113658

loop_
_atom_site_label
_atom_site_type_symbol
_atom_type_description
_atom_site_fract_x
_atom_site_fract_y
_atom_site_fract_z
_atom_type_partial_charge
C1    C     C_R   0.358524 0.773267 0.398069 0.545413
C2    C     C_R   0.205600 0.379672 0.216348 -0.155057
C3    C     C_R   0.212482 0.400376 0.289660 -0.028169
C4    C     C_R   0.379486 0.346658 0.392291 0.546269
C5    C     C_R   0.918689 0.727164 0.427996 -0.107041
C6    C     C_R   0.960433 0.586224 0.440707 -0.087188
C7    C     C_R   0.046586 0.481101 0.391901 -0.079754
C8    C     C_R   0.093675 0.515819 0.329967 0.036148
C9    C     C_R   0.335157 0.305962 0.326315 0.000187
C10   C     C_R   0.851375 0.235705 0.293687 -0.166699
C11   C     C_R   0.859095 0.234131 0.220223 -0.193789
C12   C     C_R   0.594137 0.058613 0.194324 0.043897
C13   C     C_R   0.856596 0.344946 0.183722 0.069841
C14   C     C_R   0.832978 0.467061 0.220579 0.220252
C15   C     C_R   0.820583 0.469996 0.293785 -0.123693
C16   C     C_R   0.777307 0.379374 0.402886 0.543004
C17   C     C_R   0.828065 0.355414 0.330561 0.001954
C18   C     C_R   0.468220 0.795607 0.288814 -0.123356
C19   C     C_R   0.457633 0.817932 0.215674 -0.150040
C20   C     C_R   0.324660 0.886758 0.184215 0.026170
C21   C     C_R   0.203699 0.940824 0.226887 -0.127845
C22   C     C_R   0.213730 0.915951 0.298794 -0.144838
C23   C     C_R   0.322416 0.268242 0.179453 0.000925
C24   C     C_R   0.346066 0.837253 0.329468 0.031751
C25   C     C_R   0.381235 0.199151 0.692878 -0.138134
C26   C     C_R   0.369973 0.185569 0.764911 -0.123802
C27   C     C_R   0.298004 0.306644 0.808532 0.029446
C28   C     C_R   0.344956 0.768356 0.604802 0.544643
C29   C     C_R   0.226936 0.441422 0.778722 -0.156992
C30   C     C_R   0.237396 0.455186 0.706057 -0.135537
C31   C     C_R   0.320547 0.333976 0.663763 0.030035
C32   C     C_R   0.906148 0.393717 0.707721 -0.130399
C33   C     C_R   0.943632 0.374910 0.778937 -0.130616
C34   C     C_R   0.432886 0.178484 0.293937 -0.139914
C35   C     C_R   0.920710 0.283564 0.820673 0.025891
C36   C     C_R   0.869956 0.201955 0.788813 -0.133131
C37   C     C_R   0.830245 0.222209 0.717159 -0.135989
C38   C     C_R   0.842286 0.323269 0.677244 0.027319
C39   C     C_R   0.196531 0.848127 0.711425 -0.137361
C40   C     C_R   0.368641 0.350682 0.595299 0.542078
C41   C     C_R   0.186623 0.858630 0.784595 -0.137879
C42   C     C_R   0.300712 0.843146 0.825283 0.034282
C43   C     C_R   0.426579 0.812378 0.792131 -0.139240
C44   C     C_R   0.437099 0.800427 0.718808 -0.140686
C45   C     C_R   0.444287 0.165382 0.219921 -0.010708
C46   C     C_R   0.322455 0.816925 0.678078 0.030731
C47   C     C_R   0.909790 0.317809 0.111636 0.571542
C48   C     C_R   0.304107 0.255764 0.102068 0.562252
C49   C     C_R   0.301759 0.909707 0.108078 0.545002
C50   C     C_R   0.948026 0.280083 0.897099 0.565200
C51   C     C_R   0.292668 0.285037 0.883862 0.553448
C52   C     C_R   0.767956 0.373805 0.609313 0.544849
C53   C     C_R   0.275625 0.893661 0.898086 0.546789
C54   C     C_R   0.878599 0.852760 0.158991 -0.094070
C55   C     C_R   0.849155 0.940975 0.217567 -0.143101
C56   C     C_R   0.052047 0.657848 0.317900 -0.069885
C57   C     C_R   0.709916 0.044478 0.234016 -0.113185
C58   C     C_R   0.965065 0.762822 0.367133 -0.092081
C59   C     C_R   0.629183 0.960056 0.138543 -0.077043
C60   C     C_R   0.767859 0.862476 0.119226 -0.100119
Cr1   Cr    Cr6+3 0.601770 0.606860 0.505860 0.994473
Cr2   Cr    Cr6+3 0.291380 0.601660 0.495070 1.021386
Cr3   Cr    Cr6+3 0.606880 0.291510 0.499120 1.006048
Cr4   Cr    Cr6+3 0.062440 0.063090 0.008210 1.010989
Cr5   Cr    Cr6+3 0.062880 0.375170 0.998920 1.022936
Cr6   Cr    Cr6+3 0.374700 0.061720 0.992470 0.993474
H1    H     H_    0.515726 0.096833 0.326443 0.134714
H2    H     H_    0.100391 0.997156 0.203693 0.137359
H3    H     H_    0.788901 0.790638 0.074904 0.137769
H4    H     H_    0.118799 0.950321 0.329433 0.110912
H5    H     H_    0.444160 0.105026 0.660835 0.121969
H6    H     H_    0.420624 0.079718 0.786754 0.138691
H7    H     H_    0.167853 0.535015 0.811633 0.119828
H8    H     H_    0.189461 0.560910 0.684180 0.138414
H9    H     H_    0.918856 0.470421 0.677815 0.127166
H10   H     H_    0.984358 0.437302 0.802402 0.134394
H11   H     H_    0.853809 0.128812 0.819853 0.130299
H12   H     H_    0.853171 0.808436 0.466185 0.091399
H13   H     H_    0.781789 0.166031 0.694523 0.131569
H14   H     H_    0.107041 0.859740 0.681254 0.126850
H15   H     H_    0.937556 0.871552 0.360328 0.093921
H16   H     H_    0.087345 0.885017 0.808851 0.127877
H17   H     H_    0.515150 0.802036 0.822692 0.129825
H18   H     H_    0.536431 0.773625 0.694434 0.135155
H19   H     H_    0.986513 0.775689 0.145293 0.129374
H20   H     H_    0.935459 0.934186 0.248134 0.085768
H21   H     H_    0.692240 0.113878 0.278630 0.125351
H22   H     H_    0.094787 0.685293 0.273314 0.110549
H23   H     H_    0.928219 0.557997 0.489086 0.128983
H24   H     H_    0.552945 0.951948 0.110365 0.181607
H25   H     H_    0.110308 0.453049 0.187954 0.173889
H26   H     H_    0.811471 0.654853 0.219762 0.314048
H27   H     H_    0.081846 0.371500 0.403805 0.096629
H28   H     H_    0.860056 0.146174 0.321852 0.113474
H29   H     H_    0.873734 0.144238 0.190594 0.149615
H30   H     H_    0.800541 0.565147 0.321518 0.131207
H31   H     H_    0.571635 0.736325 0.312524 0.133182
H32   H     H_    0.551674 0.775199 0.183769 0.151568
O1    O     O_R   0.748800 0.497470 0.428000 -0.540987
O2    O     O_R   0.417600 0.174890 0.067840 -0.519903
O3    O     O_R   0.375320 0.946260 0.070860 -0.548224
O4    O     O_R   0.476420 0.724060 0.429470 -0.510346
O5    O     O_R   0.160600 0.919630 0.926660 -0.525544
O6    O     O_R   0.933060 0.190520 0.936020 -0.496938
O7    O     O_R   0.908880 0.403460 0.925020 -0.515921
O8    O     O_R   0.179600 0.361450 0.918490 -0.522670
O9    O     O_R   0.391510 0.170860 0.907530 -0.515475
O10   O     O_R   0.351130 0.942530 0.922260 -0.510087
O11   O     O_3   0.166667 0.166667 0.999870 -0.300699
O12   O     O_R   0.300070 0.471040 0.567100 -0.512368
O13   O     O_R   0.264580 0.744340 0.416750 -0.512489
O14   O     O_R   0.309380 0.472470 0.418200 -0.478017
O15   O     O_R   0.501710 0.260430 0.414300 -0.536187
O16   O     O_R   0.728090 0.305600 0.428960 -0.500754
O17   O     O_R   0.738760 0.495930 0.588610 -0.533931
O18   O     O_R   0.467110 0.722640 0.578360 -0.506984
O19   O     O_R   0.254530 0.742800 0.577360 -0.529969
O20   O     O_3   0.823670 0.581073 0.184883 -0.712273
O21   O     O_R   0.491670 0.258900 0.574910 -0.523922
O22   O     O_R   0.718780 0.304180 0.577850 -0.504455
O23   O     O_3   0.500010 0.500010 0.500020 -0.239794
O24   O     O_R   0.186690 0.923650 0.086970 -0.517181
O25   O     O_R   0.957250 0.194250 0.084630 -0.523972
O26   O     O_R   0.934970 0.407490 0.085330 -0.460221
O27   O     O_R   0.203780 0.365190 0.067090 -0.495325

loop_
_geom_bond_atom_site_label_1
_geom_bond_atom_site_label_2
_ccdc_geom_bond_type
C25   C31   A    
Cr4   O5    S    
C50   O6    A    
C23   C45   A    
C27   C29   A    
C43   H17   S    
C41   C42   A    
C19   C20   A    
Cr6   O9    S    
C8    C56   A    
C32   H9    S    
C47   O26   A    
C7    C8    A    
C39   C41   A    
C54   C60   A    
C37   H13   S    
C28   C46   S    
C26   C27   A    
C29   C30   A    
C5    C58   A    
C18   C24   A    
C36   C37   A    
C37   C38   A    
C36   H11   S    
C42   C53   S    
C49   O3    A    
C30   C31   A    
C30   H8    S    
C56   H22   S    
C29   H7    S    
C10   H28   S    
C10   C17   A    
C26   H6    S    
C31   C40   S    
Cr1   O23   S    
C18   C19   A    
Cr5   O26   S    
Cr6   O2    S    
H26   O20   S    
Cr2   O19   S    
C28   O18   A    
C48   O27   A    
C12   C59   A    
Cr2   O13   S    
C35   C36   A    
C27   C51   S    
C16   C17   S    
C14   O20   S    
Cr1   O17   S    
C50   O7    A    
C25   H5    S    
C18   H31   S    
C32   C38   A    
C4    O14   A    
C59   C60   A    
C13   C14   A    
Cr3   O16   S    
Cr6   O3    S    
Cr1   O1    S    
C35   C50   S    
C48   O2    A    
Cr5   O7    S    
Cr3   O23   S    
C19   H32   S    
C44   C46   A    
C7    H27   S    
C4    O15   A    
C3    C8    S    
C58   H15   S    
C15   H30   S    
C13   C47   S    
C40   O12   A    
C25   C26   A    
C57   H21   S    
C59   H24   S    
Cr5   O27   S    
C43   C44   A    
C20   C49   S    
C3    C9    A    
Cr3   O21   S    
C33   H10   S    
C47   O25   A    
Cr2   O12   S    
Cr1   O18   S    
Cr2   O14   S    
C34   C45   A    
Cr5   O11   S    
C39   C46   A    
C12   C57   A    
C52   O22   A    
C55   C57   A    
C21   H2    S    
C9    C34   A    
C22   C24   A    
C42   C43   A    
Cr4   O25   S    
Cr5   O8    S    
C52   O17   A    
C11   H29   S    
Cr4   O6    S    
C54   C55   A    
C23   C48   S    
Cr6   O10   S    
C12   C45   S    
C44   H18   S    
C16   O16   A    
C34   H1    S    
C54   H19   S    
C16   O1    A    
C15   C17   A    
C6    C7    A    
C6    H23   S    
C28   O19   A    
C32   C33   A    
C55   H20   S    
Cr1   O4    S    
C4    C9    S    
C41   H16   S    
C39   H14   S    
Cr3   O22   S    
C11   C13   A    
C53   O10   A    
Cr4   O11   S    
C5    C6    A    
C60   H3    S    
C53   O5    A    
C51   O8    A    
Cr4   O24   S    
C49   O24   A    
C33   C35   A    
C56   C58   A    
C2    C3    A    
Cr6   O11   S    
C2    H25   S    
C10   C11   A    
Cr3   O15   S    
C40   O21   A    
C38   C52   S    
C20   C21   A    
C1    C24   S    
C51   O9    A    
C2    C23   A    
C14   C15   A    
C5    H12   S    
C21   C22   A    
C1    O4    A    
C22   H4    S    
Cr2   O23   S    
C1    O13   A    
