data_mof_unit_60096.cif
_audit_creation_date              2012-10-26T19:53:51-0400
_audit_creation_method            fapswitch 2.2
_symmetry_space_group_name_H-M    P1
_symmetry_Int_Tables_number       1
_space_group_crystal_system       triclinic
_cell_length_a                    16.000262
_cell_length_b                    14.783694
_cell_length_c                    15.920178
_cell_angle_alpha                 90.004405
_cell_angle_beta                  89.928105
_cell_angle_gamma                 90.000224
_cell_volume                      3765.80332786

loop_
_atom_site_label
_atom_site_type_symbol
_atom_type_description
_atom_site_fract_x
_atom_site_fract_y
_atom_site_fract_z
_atom_type_partial_charge
C1    C     C_R   0.340873 0.500000 0.500038 0.542770
C2    C     C_R   0.043882 0.418013 0.500154 -0.090557
C3    C     C_R   0.043883 0.581990 0.500676 -0.090668
C4    C     C_R   0.087342 0.500001 0.500341 -0.009681
C5    C     C_1   0.823141 0.500002 0.500383 0.022911
C6    C     C_R   0.500030 0.499993 0.339899 0.545892
C7    C     C_1   0.176768 0.500001 0.500207 -0.051079
C8    C     C_1   0.251788 0.500000 0.500112 -0.020640
C9    C     C_1   0.748126 0.500001 0.500233 0.032846
C10   C     C_R   0.567239 0.952138 0.531577 0.098236
C11   C     C_R   0.566953 0.048308 0.531418 0.097399
C12   C     C_3   0.591157 0.528487 0.953303 0.036190
C13   C     C_R   0.498742 0.902926 0.499302 -0.015591
C14   C     C_R   0.498134 0.097122 0.499006 -0.012299
C15   C     C_R   0.429294 0.951056 0.466453 -0.001457
C16   C     C_R   0.428786 0.048160 0.466229 0.002614
C17   C     C_1   0.499635 0.802540 0.499808 0.167251
C18   C     C_1   0.499371 0.197455 0.499678 0.167385
C19   C     C_R   0.659094 0.500000 0.500059 0.554257
C20   C     C_R   0.500030 0.500007 0.660160 0.549877
C21   C     C_3   0.435841 0.572055 0.047069 -0.086559
C22   C     C_3   0.481347 0.401985 0.047091 -0.086915
C23   C     C_3   0.586612 0.527144 0.051939 -0.204428
C24   C     C_3   0.477121 0.405294 0.949612 -0.205082
C25   C     C_3   0.433972 0.566742 0.949587 -0.205512
C26   C     C_1   0.500555 0.500061 0.749557 -0.026637
C27   C     C_3   0.497917 0.499368 0.082951 0.079247
C28   C     C_3   0.502366 0.500655 0.917072 0.075018
C29   C     C_3   0.356626 0.896486 0.432015 -0.383063
C30   C     C_3   0.354125 0.098589 0.430909 -0.387462
C31   C     C_3   0.346875 0.571297 0.084348 -0.411388
C32   C     C_3   0.405799 0.351191 0.084418 -0.410933
C33   C     C_3   0.617187 0.624472 0.923482 -0.378498
C34   C     C_1   0.501273 0.500264 0.824889 -0.071091
C35   C     C_3   0.660524 0.462321 0.923528 -0.379426
C36   C     C_1   0.498874 0.499722 0.175158 -0.069918
C37   C     C_1   0.499574 0.499938 0.250501 -0.033188
C38   C     C_R   0.956632 0.582459 0.500768 0.083542
C39   C     C_R   0.956631 0.417544 0.500242 0.083609
C40   C     C_R   0.912715 0.500002 0.500502 0.044086
Cu1   Cu    Cu3+1 0.500000 0.589220 0.500020 1.019238
Cu2   Cu    Cu3+1 0.500000 0.410780 0.500020 1.020488
H1    H     H_    0.371688 0.543423 0.927114 0.124595
H2    H     H_    0.077705 0.354514 0.499928 0.143358
H3    H     H_    0.304429 0.937516 0.407256 0.134685
H4    H     H_    0.378943 0.852828 0.379833 0.136690
H5    H     H_    0.330664 0.852839 0.482469 0.141590
H6    H     H_    0.345620 0.080587 0.363752 0.134863
H7    H     H_    0.297101 0.080524 0.467006 0.142488
H8    H     H_    0.360069 0.173141 0.433768 0.138584
H9    H     H_    0.308366 0.515682 0.058948 0.139503
H10   H     H_    0.348005 0.566960 0.153882 0.147672
H11   H     H_    0.314823 0.635416 0.067445 0.129898
H12   H     H_    0.412940 0.389017 0.927184 0.125624
H13   H     H_    0.404807 0.355333 0.153970 0.150662
H14   H     H_    0.345764 0.376099 0.059269 0.138716
H15   H     H_    0.410218 0.278494 0.067287 0.130424
H16   H     H_    0.680901 0.641292 0.946443 0.137205
H17   H     H_    0.618018 0.628899 0.853854 0.154714
H18   H     H_    0.574670 0.677379 0.948267 0.122810
H19   H     H_    0.650649 0.393051 0.948329 0.125148
H20   H     H_    0.663444 0.458973 0.853901 0.151344
H21   H     H_    0.722688 0.484932 0.946499 0.135313
H22   H     H_    0.536493 0.359684 0.064036 0.133352
H23   H     H_    0.461547 0.639719 0.064037 0.130868
H24   H     H_    0.517821 0.351879 0.922372 0.115755
H25   H     H_    0.442070 0.635402 0.922360 0.112076
H26   H     H_    0.603171 0.594457 0.078689 0.115701
H27   H     H_    0.633837 0.479868 0.078721 0.115547
H28   H     H_    0.077707 0.645489 0.500854 0.143197
I1    I     I_    0.894719 0.709464 0.501319 -0.305589
I2    I     I_    0.894717 0.290538 0.499982 -0.304898
I3    I     I_    0.671217 0.122055 0.580402 -0.232858
I4    I     I_    0.671651 0.878895 0.580756 -0.235514
N1    N     N_1   0.499980 0.276710 0.500030 -0.181050
N2    N     N_1   0.499980 0.723290 0.500030 -0.179956
O1    O     O_R   0.380310 0.575320 0.500040 -0.497597
O2    O     O_R   0.380310 0.424680 0.500040 -0.498033
O3    O     O_R   0.500000 0.575380 0.379460 -0.493230
O4    O     O_R   0.500000 0.424620 0.379460 -0.493845
O5    O     O_R   0.619690 0.575360 0.500000 -0.473847
O6    O     O_R   0.619690 0.424640 0.500000 -0.473307
O7    O     O_R   0.500000 0.575310 0.620580 -0.487640
O8    O     O_R   0.500000 0.424690 0.620580 -0.485806

loop_
_geom_bond_atom_site_label_1
_geom_bond_atom_site_label_2
_ccdc_geom_bond_type
Cu2   O4    S    
C18   N1    T    
C1    C8    S    
C1    O1    A    
Cu1   Cu2   S    
C14   C18   S    
C25   H25   S    
C31   H10   S    
C25   H1    S    
C7    C8    T    
C25   C28   S    
C21   C31   S    
C12   C23   S    
Cu2   N1    S    
C33   H16   S    
C22   C32   S    
C29   H5    S    
C30   H6    S    
C36   C37   T    
Cu1   O1    S    
C11   C14   A    
C16   C30   S    
C15   C16   A    
Cu1   O7    S    
C23   H27   S    
C2    C39   A    
C26   C34   T    
C3    C38   A    
C2    H2    S    
Cu2   O6    S    
C17   N2    T    
C39   I2    S    
C23   C27   S    
C19   O6    A    
C32   H13   S    
C24   H24   S    
C21   C27   S    
C28   C34   S    
C33   H17   S    
C1    O2    A    
C32   H15   S    
C4    C7    S    
C9    C19   S    
C15   C29   S    
C3    H28   S    
Cu2   O8    S    
C11   I3    S    
C39   C40   A    
C29   H3    S    
C23   H26   S    
C2    C4    A    
C5    C9    T    
C6    O4    A    
Cu1   O5    S    
C6    C37   S    
C35   H19   S    
C31   H11   S    
C12   C35   S    
C30   H7    S    
C12   C28   S    
Cu2   O2    S    
C33   H18   S    
C22   C27   S    
C13   C15   A    
C14   C16   A    
C20   O7    A    
C3    C4    A    
C21   C25   S    
C38   I1    S    
C21   H23   S    
C24   C28   S    
C31   H9    S    
C10   C13   A    
Cu1   O3    S    
C27   C36   S    
C13   C17   S    
C29   H4    S    
C20   O8    A    
Cu1   N2    S    
C38   C40   A    
C10   I4    S    
C6    O3    A    
C20   C26   S    
C35   H20   S    
C22   C24   S    
C30   H8    S    
C10   C11   A    
C22   H22   S    
C5    C40   S    
C35   H21   S    
C12   C33   S    
C19   O5    A    
C24   H12   S    
C32   H14   S    
