data_mof_unit_61998.cif
_audit_creation_date              2012-10-26T18:35:33-0400
_audit_creation_method            fapswitch 2.2
_symmetry_space_group_name_H-M    P1
_symmetry_Int_Tables_number       1
_space_group_crystal_system       triclinic
_cell_length_a                    19.757565
_cell_length_b                    19.705608
_cell_length_c                    12.759736
_cell_angle_alpha                 89.999989
_cell_angle_beta                  101.385199
_cell_angle_gamma                 90.0
_cell_volume                      4870.05410314

loop_
_atom_site_label
_atom_site_type_symbol
_atom_type_description
_atom_site_fract_x
_atom_site_fract_y
_atom_site_fract_z
_atom_type_partial_charge
C1    C     C_R   0.407521 0.091462 0.483402 0.549728
C2    C     C_1   0.480623 0.000000 0.143607 0.169944
C3    C     C_1   0.019377 0.500000 0.856393 0.169944
C4    C     C_1   0.980623 0.500000 0.143607 0.169944
C5    C     C_1   0.644098 0.142648 0.526217 0.034552
C6    C     C_1   0.355902 0.857352 0.473783 0.034552
C7    C     C_1   0.355900 0.142646 0.473783 0.034552
C8    C     C_1   0.644100 0.857354 0.526217 0.034553
C9    C     C_1   0.144098 0.642648 0.526217 0.034552
C10   C     C_1   0.855902 0.357352 0.473783 0.034552
C11   C     C_1   0.855900 0.642646 0.473783 0.034552
C12   C     C_R   0.592479 0.908538 0.516598 0.549729
C13   C     C_1   0.144100 0.357354 0.526217 0.034553
C14   C     C_2   0.739707 0.237561 0.544271 0.026841
C15   C     C_2   0.260293 0.762439 0.455729 0.026841
C16   C     C_2   0.260287 0.237555 0.455728 0.026842
C17   C     C_2   0.739713 0.762445 0.544272 0.026842
C18   C     C_2   0.239707 0.737561 0.544271 0.026841
C19   C     C_2   0.760293 0.262439 0.455729 0.026841
C20   C     C_2   0.760287 0.737555 0.455728 0.026842
C21   C     C_2   0.239713 0.262445 0.544272 0.026842
C22   C     C_1   0.312384 0.814175 0.465365 -0.018809
C23   C     C_R   0.592479 0.091462 0.516598 0.549729
C24   C     C_1   0.687615 0.185825 0.534635 -0.018809
C25   C     C_1   0.687619 0.814179 0.534635 -0.018809
C26   C     C_1   0.312381 0.185821 0.465364 -0.018809
C27   C     C_1   0.812385 0.314175 0.465365 -0.018809
C28   C     C_1   0.187615 0.685825 0.534635 -0.018809
C29   C     C_1   0.187619 0.314179 0.534635 -0.018809
C30   C     C_1   0.812381 0.685821 0.465364 -0.018809
C31   C     C_2   0.472980 1.000000 0.025659 -0.143048
C32   C     C_2   0.527020 0.000000 0.974341 -0.143048
C33   C     C_2   0.972980 0.500000 0.025659 -0.143048
C34   C     C_R   0.407521 0.908538 0.483402 0.549729
C35   C     C_2   0.027020 0.500000 0.974341 -0.143048
C36   C     C_2   0.732329 0.239755 0.343933 0.230698
C37   C     C_2   0.267671 0.760245 0.656067 0.230697
C38   C     C_2   0.267695 0.239779 0.656071 0.230697
C39   C     C_2   0.732305 0.760221 0.343929 0.230697
C40   C     C_2   0.232329 0.739755 0.343933 0.230698
C41   C     C_2   0.767671 0.260245 0.656067 0.230697
C42   C     C_2   0.767695 0.739779 0.656071 0.230697
C43   C     C_2   0.232305 0.260221 0.343929 0.230697
C44   C     C_R   0.907521 0.591462 0.483402 0.549728
C45   C     C_R   0.092479 0.408538 0.516598 0.549729
C46   C     C_R   0.092479 0.591462 0.516598 0.549729
C47   C     C_R   0.907521 0.408538 0.483402 0.549729
C48   C     C_1   0.519377 0.000000 0.856393 0.169944
Cu1   Cu    Cu3+1 0.493900 0.000000 0.394780 1.045106
Cu2   Cu    Cu3+1 0.506100 0.000000 0.605220 1.045107
Cu3   Cu    Cu3+1 0.993900 0.500000 0.394780 1.045106
Cu4   Cu    Cu3+1 0.006100 0.500000 0.605220 1.045107
H1    H     H_    0.579134 0.000000 0.021602 0.143886
H2    H     H_    0.747878 0.237254 0.721310 0.114430
H3    H     H_    0.747911 0.762778 0.721315 0.114429
H4    H     H_    0.252089 0.237222 0.278684 0.114429
H5    H     H_    0.420866 1.000000 0.978398 0.143886
H6    H     H_    0.079134 0.500000 0.021602 0.143886
H7    H     H_    0.920866 0.500000 0.978398 0.143886
H8    H     H_    0.752122 0.262746 0.278690 0.114430
H9    H     H_    0.247878 0.737254 0.721310 0.114430
H10   H     H_    0.247911 0.262778 0.721315 0.114429
H11   H     H_    0.752089 0.737222 0.278684 0.114429
H12   H     H_    0.252122 0.762746 0.278690 0.114430
N1    N     N_1   0.484760 0.000000 0.236650 -0.173440
N2    N     N_1   0.515240 0.000000 0.763350 -0.173440
N3    N     N_1   0.984760 0.500000 0.236650 -0.173440
N4    N     N_1   0.015240 0.500000 0.763350 -0.173440
O1    O     O_R   0.425190 0.068890 0.398580 -0.505683
O2    O     O_R   0.564530 0.931090 0.423710 -0.467851
O3    O     O_R   0.564530 0.068910 0.423710 -0.467852
O4    O     O_R   0.435470 0.931090 0.576290 -0.467852
O5    O     O_R   0.935470 0.568910 0.576290 -0.467851
O6    O     O_R   0.064530 0.431090 0.423710 -0.467851
O7    O     O_R   0.064530 0.568910 0.423710 -0.467852
O8    O     O_R   0.935470 0.431090 0.576290 -0.467852
O9    O     O_2   0.687863 0.196173 0.322390 -0.485131
O10   O     O_2   0.312137 0.803827 0.677610 -0.485131
O11   O     O_2   0.312166 0.196202 0.677615 -0.485131
O12   O     O_R   0.574810 0.931110 0.601420 -0.505683
O13   O     O_2   0.687834 0.803798 0.322385 -0.485131
O14   O     O_2   0.187863 0.696173 0.322390 -0.485131
O15   O     O_2   0.812137 0.303827 0.677610 -0.485131
O16   O     O_2   0.812166 0.696202 0.677615 -0.485131
O17   O     O_2   0.187834 0.303798 0.322385 -0.485131
O18   O     O_R   0.574810 0.068890 0.601420 -0.505682
O19   O     O_R   0.425190 0.931110 0.398580 -0.505682
O20   O     O_R   0.925190 0.568890 0.398580 -0.505683
O21   O     O_R   0.074810 0.431110 0.601420 -0.505683
O22   O     O_R   0.074810 0.568890 0.601420 -0.505682
O23   O     O_R   0.925190 0.431110 0.398580 -0.505682
O24   O     O_R   0.435470 0.068910 0.576290 -0.467851

loop_
_geom_bond_atom_site_label_1
_geom_bond_atom_site_label_2
_ccdc_geom_bond_type
C10   C27   T    
C15   C18   D    
C16   C21   D    
Cu1   O19   S    
Cu4   O22   S    
C3    N4    T    
Cu3   O6    S    
C2    N1    T    
C20   C30   S    
C7    C26   T    
Cu1   N1    S    
C35   H6    S    
C13   C29   T    
C18   C37   S    
Cu3   O7    S    
C47   O8    A    
C36   O9    D    
C38   O11   D    
C41   O15   D    
C17   C20   D    
C14   C24   S    
Cu2   O4    S    
C17   C42   S    
Cu3   O23   S    
C15   C22   S    
C21   C38   S    
C11   C30   T    
C23   O18   A    
C19   C27   S    
Cu4   N4    S    
C9    C46   S    
C33   H7    S    
Cu1   O1    S    
C8    C25   T    
C32   C48   S    
Cu4   O21   S    
C46   O7    A    
C16   C26   S    
C41   H2    S    
Cu3   Cu4   S    
C43   O17   D    
C23   O3    A    
C42   O16   D    
C39   O13   D    
Cu4   O5    S    
C20   C39   S    
Cu4   O8    S    
C21   C29   S    
C1    O1    A    
C6    C34   S    
C2    C31   S    
C40   O14   D    
C42   H3    S    
C31   C32   D    
C5    C23   S    
C3    C35   S    
C8    C12   S    
C18   C28   S    
C11   C44   S    
Cu3   N3    S    
Cu2   N2    S    
C16   C43   S    
C14   C41   S    
Cu2   O24   S    
C1    O24   A    
Cu1   O2    S    
C34   O4    A    
C32   H1    S    
C45   O21   A    
C12   O2    A    
C4    C33   S    
C1    C7    S    
C47   O23   A    
C14   C19   D    
C36   H8    S    
Cu2   O12   S    
Cu3   O20   S    
C4    N3    T    
C37   H9    S    
C46   O22   A    
C39   H11   S    
C37   O10   D    
C40   H12   S    
C19   C36   S    
C17   C25   S    
C31   H5    S    
C13   C45   S    
C5    C24   T    
C12   O12   A    
C33   C35   D    
C34   O19   A    
C44   O5    A    
C15   C40   S    
Cu2   O18   S    
C43   H4    S    
Cu1   Cu2   S    
Cu1   O3    S    
C10   C47   S    
C45   O6    A    
C48   N2    T    
C44   O20   A    
C9    C28   T    
C38   H10   S    
C6    C22   T    
