data_mof_unit_7717.cif
_audit_creation_date              2012-12-10T18:54:27-0500
_audit_creation_method            fapswitch 2.2
_symmetry_space_group_name_H-M    P1
_symmetry_Int_Tables_number       1
_space_group_crystal_system       triclinic
_cell_length_a                    10.75492
_cell_length_b                    9.815962
_cell_length_c                    23.219144
_cell_angle_alpha                 91.309327
_cell_angle_beta                  90.670453
_cell_angle_gamma                 91.142695
_cell_volume                      2449.93379149

loop_
_atom_site_label
_atom_site_type_symbol
_atom_type_description
_atom_site_fract_x
_atom_site_fract_y
_atom_site_fract_z
_atom_type_partial_charge
C1    C     C_R   0.259273 0.498763 0.502539 1.039304
C2    C     C_R   0.642136 0.515494 0.695728 -0.203220
C3    C     C_R   0.502474 0.330538 0.243170 0.028318
C4    C     C_R   0.670356 0.462418 0.750370 0.010990
C5    C     C_R   0.567040 0.425531 0.209334 0.159668
C6    C     C_R   0.571949 0.440922 0.789191 0.155484
C7    C     C_R   0.054574 0.375603 0.507905 0.320540
C8    C     C_R   0.943439 0.631838 0.523448 0.288711
C9    C     C_R   0.932020 0.382231 0.524690 0.318895
C10   C     C_R   0.071289 0.619628 0.533306 0.293343
C11   C     C_R   0.872526 0.507402 0.517938 -0.432008
C12   C     C_R   0.740375 0.502380 0.504914 1.009081
C13   C     C_R   0.127305 0.497462 0.513525 -0.387953
C14   C     C_R   0.528500 0.075035 0.549022 0.069539
C15   C     C_R   0.466739 0.924912 0.451628 0.018443
C16   C     C_R   0.468592 0.068758 0.451359 -0.031457
C17   C     C_R   0.529019 0.931220 0.548952 0.017261
C18   C     C_R   0.503226 0.498297 0.388705 0.903575
C19   C     C_R   0.499204 0.500894 0.611061 0.965604
C20   C     C_R   0.676608 0.491588 0.881710 0.655163
C21   C     C_R   0.478595 0.360640 0.115493 0.648777
C22   C     C_R   0.518712 0.319657 0.875487 0.622249
C23   C     C_R   0.610591 0.548040 0.235304 -0.171138
C24   C     C_R   0.689060 0.437465 0.121932 0.648188
C25   C     C_R   0.503154 0.325689 0.935455 -0.169765
C26   C     C_R   0.692385 0.454068 0.061828 -0.158478
C27   C     C_R   0.597524 0.394078 0.968464 -0.077932
C28   C     C_R   0.594142 0.392711 0.028723 -0.083049
C29   C     C_R   0.693570 0.466881 0.940827 -0.145017
C30   C     C_R   0.490622 0.333115 0.056198 -0.140325
C31   C     C_R   0.398317 0.266140 0.962839 0.348145
C32   C     C_R   0.789840 0.526942 0.034220 0.344279
C33   C     C_R   0.398872 0.257972 0.023554 0.215685
C34   C     C_R   0.449091 0.448165 0.768896 -0.152139
C35   C     C_R   0.796501 0.521196 0.973325 0.211394
C36   C     C_2   0.332615 0.326291 0.316950 0.487572
C37   C     C_2   0.740079 0.583981 0.661404 0.535785
C38   C     C_2   0.497664 0.182753 0.226989 0.602830
C39   C     C_2   0.797197 0.410672 0.762669 0.591928
C40   C     C_R   0.597756 0.571951 0.294330 0.429051
C41   C     C_R   0.422377 0.458926 0.710651 0.403108
C42   C     C_R   0.514038 0.488725 0.325213 -0.271565
C43   C     C_R   0.518853 0.499762 0.673548 -0.258636
C44   C     C_R   0.454521 0.376888 0.296027 -0.215261
H1    H     H_    0.661699 0.620842 0.210089 0.241901
H2    H     H_    0.869965 0.758633 0.927246 0.376989
H3    H     H_    0.858517 0.816172 0.302825 0.409371
H4    H     H_    0.136806 0.255418 0.713740 0.410411
H5    H     H_    0.289299 0.381151 0.352035 0.119663
H6    H     H_    0.731598 0.587499 0.615218 0.081046
H7    H     H_    0.442098 0.111073 0.250975 0.117281
H8    H     H_    0.877009 0.443722 0.738282 0.140672
H9    H     H_    0.213151 0.146379 0.406220 0.384149
H10   H     H_    0.759569 0.907586 0.461016 0.394438
H11   H     H_    0.746588 0.230506 0.638621 0.376479
H12   H     H_    0.372943 0.433681 0.798173 0.234516
H13   H     H_    0.305567 0.748254 0.639159 0.380669
H14   H     H_    0.551713 0.131561 0.588259 0.155549
H15   H     H_    0.437852 0.868252 0.413202 0.171005
H16   H     H_    0.444017 0.120473 0.412363 0.139890
H17   H     H_    0.552188 0.879488 0.588131 0.158344
H18   H     H_    0.188597 0.060787 0.868890 0.412854
H19   H     H_    0.866190 0.770905 0.151833 0.420843
H20   H     H_    0.174535 0.301419 0.070284 0.388245
N1    N     N_R   0.593259 0.413831 0.849494 -0.331442
N2    N     N_R   0.579554 0.404171 0.147889 -0.335520
N3    N     N_R   0.500000 0.857200 0.500000 -0.093164
N4    N     N_R   0.500000 0.142800 0.500000 -0.084859
O1    O     O_R   0.316770 0.614620 0.500000 -0.585798
O2    O     O_2   0.365982 0.350754 0.140106 -0.489381
O3    O     O_2   0.461715 0.220398 0.843235 -0.436502
O4    O     O_2   0.793891 0.450390 0.154124 -0.433305
O5    O     O_2   0.145158 0.235081 0.960555 -0.204038
O6    O     O_2   0.241411 0.330713 0.876164 -0.239627
O7    O     O_3   0.265156 0.071640 0.892824 -0.426624
O8    O     O_2   0.995238 0.574741 0.099629 -0.179371
O9    O     O_2   0.933132 0.759696 0.037111 -0.206864
O10   O     O_3   0.804061 0.719021 0.127832 -0.521845
O11   O     O_2   0.268656 0.018302 0.016181 -0.148861
O12   O     O_R   0.683230 0.385380 0.500000 -0.561321
O13   O     O_2   0.368827 0.075850 0.108067 -0.198573
O14   O     O_3   0.169193 0.204407 0.080980 -0.392368
O15   O     O_2   0.048735 0.532690 0.979181 -0.171320
O16   O     O_2   0.954817 0.460448 0.887507 -0.161054
O17   O     O_3   0.949407 0.716955 0.915951 -0.400583
O18   O     O_2   0.628209 0.809307 0.352492 -0.308901
O19   O     O_2   0.769973 0.623521 0.374796 -0.264781
O20   O     O_3   0.802638 0.753644 0.280018 -0.514394
O21   O     O_2   0.182254 0.524326 0.706159 -0.220238
O22   O     O_2   0.256539 0.383790 0.625229 -0.275765
O23   O     O_R   0.683230 0.614620 0.500000 -0.545528
O24   O     O_3   0.225913 0.270567 0.723701 -0.477358
O25   O     O_2   0.274646 0.232669 0.292964 -0.529786
O26   O     O_2   0.828189 0.643979 0.684779 -0.484065
O27   O     O_2   0.563632 0.137060 0.189021 -0.512670
O28   O     O_2   0.812924 0.322343 0.798052 -0.509586
O29   O     O_2   0.173173 0.140603 0.523943 -0.168838
O30   O     O_2   0.996605 0.133625 0.455807 -0.204583
O31   O     O_3   0.201064 0.239248 0.422518 -0.594143
O32   O     O_2   0.792886 0.820984 0.569327 -0.297500
O33   O     O_2   0.975728 0.910154 0.521040 -0.110274
O34   O     O_R   0.316770 0.385380 0.500000 -0.539725
O35   O     O_3   0.798436 0.817222 0.457479 -0.450575
O36   O     O_2   0.799037 0.145571 0.524265 -0.239508
O37   O     O_2   0.965214 0.173939 0.596830 -0.177602
O38   O     O_3   0.762364 0.306173 0.612000 -0.639240
O39   O     O_2   0.210886 0.851648 0.540659 -0.237982
O40   O     O_2   0.067327 0.809196 0.620116 -0.151777
O41   O     O_3   0.268144 0.672826 0.615283 -0.510763
O42   O     O_R   0.499970 0.614690 0.416160 -0.577298
O43   O     O_R   0.500030 0.385310 0.583840 -0.589628
O44   O     O_R   0.500030 0.614690 0.583840 -0.635408
O45   O     O_R   0.499970 0.385310 0.416160 -0.641035
O46   O     O_2   0.737224 0.596751 0.857485 -0.502282
S1    S     S_3+6 0.257472 0.228788 0.922832 0.158365
S2    S     S_3+6 0.153962 0.744054 0.577732 0.155185
S3    S     S_3+6 0.886182 0.647124 0.074360 0.141524
S4    S     S_3+6 0.301412 0.133851 0.057514 0.189780
S5    S     S_3+6 0.941555 0.555281 0.938654 0.197373
S6    S     S_3+6 0.700187 0.692868 0.327742 0.074740
S7    S     S_3+6 0.268277 0.412160 0.688836 0.087672
S8    S     S_3+6 0.106036 0.217137 0.478135 0.130007
S9    S     S_3+6 0.878167 0.799236 0.519353 0.150731
S10   S     S_3+6 0.865001 0.245730 0.564423 0.110161
Zn1   Zn    Zn3+2 0.500000 0.653120 0.500000 1.078060
Zn2   Zn    Zn3+2 0.500000 0.346880 0.500000 1.080775

loop_
_geom_bond_atom_site_label_1
_geom_bond_atom_site_label_2
_ccdc_geom_bond_type
C25   C31   A    
C26   C32   A    
C23   H1    S    
C21   N2    A    
C27   C29   A    
C12   O23   A    
C35   S5    S    
C32   S3    S    
O35   S9    S    
C19   O44   A    
H9    O31   S    
C34   H12   S    
C39   O28   D    
O33   S9    D    
O21   S7    D    
C24   C26   A    
O9    S3    D    
N3    Zn1   S    
O15   S5    D    
C23   C40   A    
O11   S4    D    
C9    S10   S    
O30   S8    D    
C16   H16   S    
C41   S7    S    
O17   S5    S    
O41   S2    S    
C17   H17   S    
C36   O25   D    
C6    N1    S    
H13   O41   S    
C3    C38   S    
C22   C25   A    
C38   O27   D    
C31   C33   A    
C16   N4    A    
O20   S6    S    
C24   N2    A    
H2    O17   S    
C40   C42   A    
C39   H8    S    
O1    Zn1   S    
C33   S4    S    
C41   C43   A    
C14   C17   A    
C34   C41   A    
C42   C44   A    
C18   O45   A    
C31   S1    S    
C19   C43   S    
C20   C29   A    
C14   H14   S    
C3    C44   A    
C17   N3    A    
H11   O38   S    
C32   C35   A    
H10   O35   S    
O10   S3    S    
C4    C6    A    
O16   S5    D    
C38   H7    S    
C3    C5    A    
O13   S4    D    
C1    O1    A    
C6    C34   A    
O37   S10   D    
C2    C4    A    
C22   N1    A    
O29   S8    D    
C20   N1    A    
C5    C23   A    
C4    C39   S    
C2    C43   A    
C15   N3    A    
O43   Zn2   S    
C9    C11   A    
H20   O14   S    
O44   Zn1   S    
O31   S8    S    
O36   S10   D    
C40   S6    S    
O22   S7    D    
H18   O7    S    
C36   C44   S    
O7    S1    S    
O14   S4    S    
C7    S8    S    
N4    Zn2   S    
C22   O3    S    
C10   S2    S    
C24   O4    S    
C7    C9    A    
O23   Zn1   S    
C30   C33   A    
C15   H15   S    
C18   O42   A    
C5    N2    S    
O34   Zn2   S    
C10   C13   A    
C11   C12   S    
C8    S9    S    
O45   Zn2   S    
C19   O43   A    
C25   C27   A    
C21   C30   A    
C29   C35   A    
C26   C28   A    
O8    S3    D    
O5    S1    D    
C21   O2    S    
O32   S9    D    
H3    O20   S    
O40   S2    D    
C18   C42   S    
O19   S6    D    
O24   S7    S    
C20   O46   S    
C37   H6    S    
C2    C37   S    
O12   Zn2   S    
C8    C11   A    
O6    S1    D    
C12   O12   A    
C28   C30   A    
C37   O26   D    
O39   S2    D    
O42   Zn1   S    
C7    C13   A    
C1    C13   S    
C8    C10   A    
H4    O24   S    
O38   S10   S    
C27   C28   A    
C14   N4    A    
O18   S6    D    
C1    O34   A    
C36   H5    S    
C15   C16   A    
H19   O10   S    
