data_mof_unit_35586.cif
_audit_creation_date              2012-12-10T16:55:01-0500
_audit_creation_method            fapswitch 2.2
_symmetry_space_group_name_H-M    P1
_symmetry_Int_Tables_number       1
_space_group_crystal_system       triclinic
_cell_length_a                    7.895839
_cell_length_b                    8.545332
_cell_length_c                    15.728188
_cell_angle_alpha                 92.141249
_cell_angle_beta                  84.688384
_cell_angle_gamma                 93.052516
_cell_volume                      1054.60348775

loop_
_atom_site_label
_atom_site_type_symbol
_atom_type_description
_atom_site_fract_x
_atom_site_fract_y
_atom_site_fract_z
_atom_type_partial_charge
C1    C     C_R   0.543975 0.793567 0.493920 0.968484
C2    C     C_2   0.434656 0.044362 0.476613 0.259589
C3    C     C_R   0.499942 0.500374 0.661296 0.865630
C4    C     C_R   0.455422 0.206082 0.496332 0.816758
C5    C     C_R   0.499768 0.499367 0.338683 0.878135
C6    C     C_3   0.313167 0.525298 0.959618 1.065829
C7    C     C_3   0.611414 0.649415 0.950281 0.219715
C8    C     C_3   0.630173 0.631287 0.046300 -0.472539
C9    C     C_1   0.499710 0.500119 0.249855 0.043930
C10   C     C_3   0.498010 0.508091 0.917199 -0.260724
C11   C     C_3   0.316836 0.541802 0.058911 0.113665
C12   C     C_3   0.499036 0.503606 0.083002 -0.296089
C13   C     C_3   0.543441 0.337950 0.041963 0.889699
C14   C     C_3   0.562425 0.349930 0.943509 -0.496861
C15   C     C_1   0.499986 0.501194 0.174505 0.202529
C16   C     C_1   0.497723 0.506306 0.825597 0.198300
C17   C     C_1   0.499218 0.503253 0.750185 -0.007367
C18   C     C_2   0.563852 0.957231 0.492970 -0.455570
F1    F     F_    0.212325 0.393460 0.939593 -0.576832
F2    F     F_    0.028011 0.395630 0.406110 -0.512078
F3    F     F_    0.242872 0.653096 0.926996 -0.597834
F4    F     F_    0.408420 0.231921 0.063887 -0.587283
H1    H     H_    0.223197 0.453129 0.088332 0.214615
H2    H     H_    0.107505 0.083484 0.329475 0.402306
H3    H     H_    0.115869 0.750797 0.719576 0.398502
H4    H     H_    0.014674 0.868369 0.900387 0.419915
H5    H     H_    0.679594 0.007175 0.518013 0.203806
H6    H     H_    0.543478 0.758163 0.943598 0.200210
H7    H     H_    0.612490 0.745964 0.080917 0.261366
H8    H     H_    0.760156 0.599408 0.056122 0.299358
H9    H     H_    0.489364 0.249779 0.914479 0.256525
H10   H     H_    0.696398 0.338194 0.917174 0.259219
H11   H     H_    0.997124 0.830159 0.125306 0.402793
H12   H     H_    0.813296 0.179438 0.195362 0.394365
N1    N     N_2   0.950340 0.457950 0.477370 0.222906
N2    N     N_2   0.049660 0.542050 0.522630 0.158726
O1    O     O_R   0.389240 0.738570 0.505550 -0.543343
O2    O     O_2   0.321661 0.863564 0.050893 -0.193433
O3    O     O_3   0.030532 0.726831 0.100496 -0.470464
O4    O     O_2   0.748773 0.095147 0.032533 -0.216340
O5    O     O_2   0.889056 0.353369 0.053780 -0.251254
O6    O     O_3   0.707866 0.228321 0.182674 -0.534282
O7    O     O_2   0.302638 0.843525 0.359902 -0.258360
O8    O     O_2   0.108730 0.934312 0.480609 -0.245443
O9    O     O_3   0.204719 0.127357 0.359826 -0.477822
O10   O     O_2   0.841056 0.732679 0.618228 -0.251342
O11   O     O_2   0.934279 0.496965 0.683355 -0.258052
O12   O     O_R   0.678400 0.711630 0.491050 -0.583646
O13   O     O_3   0.146022 0.735621 0.657377 -0.498449
O14   O     O_2   0.914299 0.541676 0.878832 -0.159914
O15   O     O_2   0.785958 0.747518 0.805125 -0.281628
O16   O     O_3   0.926524 0.825897 0.943550 -0.420139
O17   O     O_R   0.355360 0.513470 0.630110 -0.580834
O18   O     O_R   0.644510 0.486530 0.615610 -0.564431
O19   O     O_R   0.321600 0.288370 0.508950 -0.557172
O20   O     O_R   0.610760 0.261430 0.494450 -0.641771
O21   O     O_R   0.355490 0.513470 0.384390 -0.529961
O22   O     O_R   0.644640 0.486530 0.369890 -0.598226
O23   O     O_2   0.283183 0.755032 0.193142 -0.250991
S1    S     S_3+6 0.242728 0.729224 0.102260 0.113083
S2    S     S_3+6 0.730416 0.253239 0.076610 0.102582
S3    S     S_3+6 0.257993 0.980465 0.418719 0.100872
S4    S     S_3+6 0.983496 0.624937 0.621402 0.213538
S5    S     S_3+6 0.814874 0.687032 0.890775 0.103138
Zn1   Zn    Zn3+2 0.306930 0.517990 0.509680 1.218133
Zn2   Zn    Zn3+2 0.693070 0.482010 0.490320 1.162257

loop_
_geom_bond_atom_site_label_1
_geom_bond_atom_site_label_2
_ccdc_geom_bond_type
C6    C10   S    
C7    C10   S    
C2    C4    S    
C11   C12   S    
C1    O12   A    
C5    C9    S    
O18   Zn2   S    
C5    O21   A    
C2    C18   D    
N2    S4    S    
O17   Zn1   S    
C14   H9    S    
N1    N2    D    
H12   O6    S    
C12   C15   S    
O5    S2    D    
O10   S4    D    
C8    C12   S    
C8    H8    S    
O15   S5    D    
O3    S1    S    
C7    C8    S    
C10   C16   S    
C13   C14   S    
C4    O20   A    
C6    F1    S    
C3    O17   A    
O6    S2    S    
C1    C18   S    
H11   O3    S    
C5    O22   A    
O20   Zn2   S    
H2    O9    S    
C11   H1    S    
O19   Zn1   S    
O22   Zn2   S    
C13   F4    S    
C3    C17   S    
H4    O16   S    
O13   S4    S    
C6    C11   S    
C4    O19   A    
O11   S4    D    
C8    H7    S    
C3    O18   A    
O2    S1    D    
C7    S5    S    
C7    H6    S    
C11   S1    S    
O9    S3    S    
O23   S1    D    
O14   S5    D    
C12   C13   S    
C10   C14   S    
O21   Zn1   S    
C13   S2    S    
O12   Zn2   S    
N2    Zn1   S    
C16   C17   T    
C18   H5    S    
N1    Zn2   S    
O8    S3    D    
C9    C15   T    
C6    F3    S    
F2    N1    S    
O1    Zn1   S    
O4    S2    D    
C2    S3    S    
O7    S3    D    
C14   H10   S    
C1    O1    A    
H3    O13   S    
O16   S5    S    
