data_mof_unit_56773.cif
_audit_creation_date              2012-12-10T18:19:06-0500
_audit_creation_method            fapswitch 2.2
_symmetry_space_group_name_H-M    P1
_symmetry_Int_Tables_number       1
_space_group_crystal_system       triclinic
_cell_length_a                    19.17119
_cell_length_b                    19.689718
_cell_length_c                    19.086831
_cell_angle_alpha                 110.452415
_cell_angle_beta                  107.96804
_cell_angle_gamma                 109.848405
_cell_volume                      5554.03059756

loop_
_atom_site_label
_atom_site_type_symbol
_atom_type_description
_atom_site_fract_x
_atom_site_fract_y
_atom_site_fract_z
_atom_type_partial_charge
C1    C     C_R   0.615323 0.495619 0.622200 1.057925
C2    C     C_R   0.381992 0.503880 0.378587 0.946581
C3    C     C_3   0.285128 0.211244 0.426372 0.446966
C4    C     C_3   0.708411 0.786236 0.558898 0.447053
C5    C     C_3   0.300215 0.305270 0.486356 -0.115872
C6    C     C_3   0.696292 0.692984 0.505632 -0.111072
C7    C     C_3   0.194198 0.188289 0.502962 -0.159551
C8    C     C_3   0.807689 0.808053 0.491358 -0.121413
C9    C     C_3   0.150247 0.226795 0.460338 -0.409132
C10   C     C_3   0.846437 0.761207 0.523651 -0.443987
C11   C     C_3   0.233095 0.148824 0.449752 -0.147944
C12   C     C_3   0.779453 0.851699 0.553231 -0.170716
C13   C     C_3   0.743507 0.590589 0.781735 0.272268
C14   C     C_3   0.258728 0.417977 0.220529 0.260180
C15   C     C_3   0.825089 0.593398 0.845539 0.240152
C16   C     C_3   0.186313 0.418635 0.149877 0.232045
C17   C     C_3   0.638962 0.423678 0.715897 0.446098
C18   C     C_3   0.354686 0.590655 0.300926 0.383372
C19   C     C_3   0.741320 0.472288 0.660083 0.164831
C20   C     C_3   0.247144 0.522197 0.342698 0.151589
C21   C     C_3   0.682329 0.496891 0.694508 -0.374582
C22   C     C_3   0.313838 0.508039 0.311115 -0.315541
C23   C     C_R   0.372118 0.378450 0.492652 0.920861
C24   C     C_R   0.625663 0.621638 0.503868 0.844502
C25   C     C_3   0.807636 0.499209 0.813975 -0.311576
C26   C     C_3   0.185984 0.504710 0.193426 -0.302903
C27   C     C_3   0.713515 0.439699 0.797589 0.067401
C28   C     C_3   0.278614 0.583196 0.228223 0.015422
C29   C     C_3   0.802903 0.462757 0.724903 0.062611
C30   C     C_3   0.169417 0.513416 0.272585 0.121527
C31   C     C_3   0.014132 0.320438 0.815113 -0.189165
C32   C     C_3   0.988198 0.681785 0.184065 -0.261466
C33   C     C_R   0.995359 0.115128 0.622687 0.801525
C34   C     C_R   0.000526 0.879950 0.378217 0.966121
C35   C     C_R   0.122183 0.120392 0.500826 0.925572
C36   C     C_R   0.878774 0.875870 0.494627 0.834616
C37   C     C_R   0.995354 0.618775 0.117655 0.890800
C38   C     C_R   0.005150 0.381598 0.882102 0.873831
C39   C     C_R   0.878416 0.499412 0.879639 0.930423
C40   C     C_R   0.119595 0.505274 0.125672 0.915099
C41   C     C_3   0.906873 0.177435 0.677941 0.401839
C42   C     C_3   0.086051 0.806563 0.339721 0.471083
C43   C     C_3   0.047148 0.193774 0.792622 0.546705
C44   C     C_3   0.970869 0.812754 0.217117 0.640602
C45   C     C_3   0.081093 0.357690 0.785136 0.613846
C46   C     C_3   0.922450 0.642452 0.214565 0.636494
C47   C     C_3   0.039435 0.266618 0.852251 -0.540864
C48   C     C_3   0.959277 0.732201 0.147896 -0.591767
C49   C     C_3   0.925985 0.265774 0.733591 -0.419384
C50   C     C_3   0.080860 0.744471 0.259210 -0.387547
C51   C     C_3   0.000706 0.184854 0.698244 -0.255049
C52   C     C_3   0.998296 0.809305 0.307589 -0.282193
C53   C     C_3   0.065627 0.273678 0.710895 -0.200117
C54   C     C_3   0.927439 0.721044 0.284328 -0.256131
C55   C     C_3   0.334998 0.324290 0.580342 -0.516753
C56   C     C_3   0.665676 0.672151 0.411514 -0.551445
C57   C     C_3   0.275734 0.258750 0.591719 0.277454
C58   C     C_3   0.722223 0.742663 0.403592 0.298932
C59   C     C_3   0.210679 0.303251 0.461494 0.290208
C60   C     C_3   0.785107 0.694775 0.533502 0.322749
H1    H     H_    0.179209 0.093741 0.390341 0.302101
H2    H     H_    0.836059 0.889676 0.616205 0.275265
H3    H     H_    0.102323 0.174690 0.394134 0.247313
H4    H     H_    0.907348 0.806075 0.584164 0.222909
H5    H     H_    0.126444 0.279970 0.736397 0.300133
H6    H     H_    0.868935 0.719326 0.251680 0.298433
H7    H     H_    0.712704 0.478616 0.854083 0.196660
H8    H     H_    0.286297 0.563726 0.172361 0.186714
H9    H     H_    0.700645 0.408890 0.604493 0.226648
H10   H     H_    0.277668 0.587985 0.384953 0.211104
H11   H     H_    0.771021 0.396203 0.702589 0.155699
H12   H     H_    0.171872 0.575057 0.297274 0.174798
H13   H     H_    0.873813 0.264999 0.747628 0.220291
H14   H     H_    0.117118 0.778358 0.235437 0.273008
H15   H     H_    0.923379 0.295031 0.694311 0.254944
H16   H     H_    0.114163 0.711746 0.275298 0.242794
H17   H     H_    0.995162 0.243500 0.874752 0.256049
H18   H     H_    0.993406 0.747135 0.112949 0.243961
H19   H     H_    0.098269 0.307666 0.910856 0.223943
H20   H     H_    0.892477 0.691330 0.099311 0.261149
H21   H     H_    0.350875 0.387977 0.625090 0.250242
H22   H     H_    0.655543 0.610226 0.369728 0.255038
H23   H     H_    0.394875 0.324935 0.598703 0.243264
H24   H     H_    0.604400 0.666336 0.386489 0.232844
H25   H     H_    0.310992 0.230530 0.614396 0.187753
H26   H     H_    0.687198 0.774809 0.391505 0.159190
H27   H     H_    0.111462 0.242728 0.489000 0.181427
H28   H     H_    0.868228 0.733667 0.479890 0.186600
O1    O     O_R   0.592570 0.552270 0.644860 -0.625935
O2    O     O_R   0.407430 0.447730 0.355140 -0.648725
O3    O     O_R   0.947720 0.540390 0.092600 -0.519209
O4    O     O_R   0.052280 0.459610 0.907400 -0.520368
O5    O     O_R   0.959660 0.552230 0.907350 -0.586142
O6    O     O_R   0.040340 0.447770 0.092650 -0.581011
O7    O     O_R   0.855120 0.447750 0.907440 -0.552975
O8    O     O_R   0.144880 0.552250 0.092560 -0.553114
O9    O     O_R   0.592650 0.447750 0.540350 -0.521408
O10   O     O_R   0.407350 0.552250 0.459650 -0.492943
O11   O     O_R   0.407370 0.459660 0.552260 -0.585117
O12   O     O_R   0.592630 0.540340 0.447740 -0.612705
O13   O     O_R   0.407450 0.355140 0.447760 -0.618458
O14   O     O_R   0.592550 0.644860 0.552240 -0.572616
O15   O     O_R   0.052270 0.092540 0.644860 -0.531993
O16   O     O_R   0.947730 0.907460 0.355140 -0.528384
O17   O     O_R   0.947710 0.092600 0.540380 -0.639645
O18   O     O_R   0.052290 0.907400 0.459620 -0.650045
O19   O     O_R   0.144880 0.092570 0.552230 -0.582332
O20   O     O_R   0.855120 0.907430 0.447770 -0.588216
O21   O     O_R   0.040310 0.092630 0.447750 -0.618501
O22   O     O_R   0.959690 0.907370 0.552250 -0.634045
O23   O     O_R   0.052260 0.644880 0.092510 -0.610962
O24   O     O_R   0.947740 0.355120 0.907490 -0.609054
Zn1   Zn    Zn3+2 0.499940 0.569790 0.569780 1.132645
Zn2   Zn    Zn3+2 0.500060 0.430210 0.430220 1.116088
Zn3   Zn    Zn3+2 0.069820 0.999960 0.569760 1.104204
Zn4   Zn    Zn3+2 0.930180 0.000040 0.430240 1.117503
Zn5   Zn    Zn3+2 0.069800 0.569760 0.999940 1.209891
Zn6   Zn    Zn3+2 0.930200 0.430240 0.000060 1.193691
S1    S     S_3+6 0.192160 0.428456 0.875217 0.093564
O25   O     O_2   0.251480 0.447574 0.840252 -0.168191
O26   O     O_2   0.203284 0.510939 0.932397 -0.232209
O27   O     O_3   0.230461 0.396100 0.939517 -0.568765
H29   H     H_    0.292668 0.434580 0.971625 0.415591
S2    S     S_3+6 0.809969 0.573446 0.128115 0.071483
O28   O     O_2   0.801303 0.512996 0.047698 -0.241007
O29   O     O_2   0.760231 0.523852 0.157506 -0.212638
O30   O     O_3   0.761614 0.623716 0.100622 -0.518281
H30   H     H_    0.703538 0.579069 0.054125 0.416637
S3    S     S_3+6 0.229536 0.162384 0.309235 0.010021
O31   O     O_2   0.267494 0.222489 0.282621 -0.335653
O32   O     O_2   0.241340 0.088800 0.271302 -0.204284
O33   O     O_3   0.124410 0.123456 0.265519 -0.562422
H31   H     H_    0.104293 0.103953 0.203964 0.397733
S4    S     S_3+6 0.737716 0.831992 0.674419 0.043615
O34   O     O_2   0.711020 0.896472 0.698338 -0.189841
O35   O     O_2   0.696103 0.768889 0.696111 -0.310599
O36   O     O_3   0.842769 0.883919 0.740636 -0.525978
H32   H     H_    0.849567 0.906303 0.799017 0.416480
C61   C     C_3   0.370295 0.211919 0.440110 -0.615555
H33   H     H_    0.364812 0.149571 0.418003 0.239691
H34   H     H_    0.396572 0.230281 0.401288 0.293075
H35   H     H_    0.416990 0.253208 0.507114 0.250502
C62   C     C_3   0.622375 0.781627 0.515047 -0.662230
H36   H     H_    0.613270 0.830079 0.555685 0.291634
H37   H     H_    0.614183 0.788344 0.458727 0.238631
H38   H     H_    0.568345 0.720890 0.490517 0.259185
C63   C     C_3   0.285704 0.115424 0.494181 -0.716911
H39   H     H_    0.351359 0.163958 0.543746 0.239457
H40   H     H_    0.258041 0.088072 0.527082 0.283660
H41   H     H_    0.292018 0.068633 0.447815 0.324182
C64   C     C_3   0.758396 0.915723 0.533863 -0.707183
H42   H     H_    0.721341 0.895236 0.466099 0.228693
H43   H     H_    0.721223 0.933192 0.563193 0.328115
H44   H     H_    0.817944 0.972492 0.557470 0.230475
C65   C     C_3   0.165578 0.292294 0.372014 -0.606945
H45   H     H_    0.142225 0.336215 0.372329 0.287984
H46   H     H_    0.208947 0.299182 0.346546 0.254901
H47   H     H_    0.105179 0.233622 0.323857 0.244800
C66   C     C_3   0.828490 0.720534 0.628523 -0.667249
H48   H     H_    0.868625 0.692884 0.641683 0.275736
H49   H     H_    0.873471 0.787920 0.672317 0.257476
H50   H     H_    0.780419 0.705089 0.648317 0.259525
C67   C     C_3   0.695846 0.618386 0.829194 -0.681073
H51   H     H_    0.685885 0.589405 0.866537 0.269976
H52   H     H_    0.733575 0.686351 0.877780 0.228247
H53   H     H_    0.635031 0.609470 0.787865 0.291525
C68   C     C_3   0.310422 0.385523 0.181129 -0.619387
H54   H     H_    0.349207 0.426734 0.165603 0.293188
H55   H     H_    0.350419 0.367354 0.216584 0.271307
H56   H     H_    0.266067 0.324484 0.120670 0.229148
C69   C     C_3   0.773500 0.661510 0.760586 -0.737724
H57   H     H_    0.721679 0.664698 0.719991 0.288449
H58   H     H_    0.811746 0.724851 0.818720 0.232272
H59   H     H_    0.812970 0.656483 0.730739 0.261779
C70   C     C_3   0.218115 0.348873 0.239943 -0.767986
H60   H     H_    0.182015 0.284324 0.184254 0.253001
H61   H     H_    0.267339 0.347703 0.286586 0.275069
H62   H     H_    0.176962 0.359132 0.265875 0.277640
C71   C     C_3   0.909848 0.652934 0.852424 -0.638924
H63   H     H_    0.922770 0.718372 0.878383 0.211603
H64   H     H_    0.969079 0.663200 0.898476 0.265921
H65   H     H_    0.908306 0.633543 0.790957 0.285120
C72   C     C_3   0.097126 0.336517 0.102005 -0.663448
H66   H     H_    0.101851 0.279645 0.073333 0.223951
H67   H     H_    0.068726 0.328282 0.141936 0.291004
H68   H     H_    0.049608 0.329415 0.045101 0.246061
C73   C     C_3   0.845609 0.635932 0.940234 -0.845184
H69   H     H_    0.797267 0.603300 0.954377 0.259772
H70   H     H_    0.904110 0.640106 0.980448 0.218278
H71   H     H_    0.858935 0.701135 0.962924 0.308421
C74   C     C_3   0.201362 0.411256 0.072918 -0.820113
H72   H     H_    0.265587 0.451820 0.089047 0.282348
H73   H     H_    0.189278 0.347906 0.034413 0.289007
H74   H     H_    0.159418 0.423311 0.030510 0.244092
S5    S     S_3+6 0.556067 0.426921 0.746178 0.028250
O37   O     O_2   0.514412 0.466896 0.708336 -0.383484
O38   O     O_2   0.489505 0.340862 0.716764 -0.185748
O39   O     O_3   0.590684 0.476477 0.852208 -0.567151
H75   H     H_    0.542703 0.481144 0.858128 0.413568
S6    S     S_3+6 0.435805 0.595465 0.265649 0.013745
O40   O     O_2   0.401971 0.561451 0.171346 -0.296216
O41   O     O_2   0.503716 0.684185 0.305350 -0.234098
O42   O     O_3   0.479453 0.540022 0.288001 -0.566568
H76   H     H_    0.497268 0.560400 0.348723 0.331464
S7    S     S_3+6 0.778434 0.515400 0.600690 0.021640
O43   O     O_2   0.732742 0.559222 0.580387 -0.389744
O44   O     O_2   0.872011 0.574796 0.645829 -0.292430
O45   O     O_3   0.752016 0.435523 0.507601 -0.473848
H77   H     H_    0.786354 0.461445 0.484986 0.380653
S8    S     S_3+6 0.243801 0.511468 0.433129 0.058817
O46   O     O_2   0.160413 0.481842 0.432146 -0.217744
O47   O     O_2   0.274543 0.452918 0.438947 -0.403345
O48   O     O_3   0.311637 0.605218 0.523760 -0.467865
H78   H     H_    0.324081 0.592354 0.570404 0.376688
S9    S     S_3+6 0.892667 0.465457 0.714674 0.148054
O49   O     O_2   0.865640 0.416547 0.621469 -0.177150
O50   O     O_2   0.966785 0.551339 0.755457 -0.172037
O51   O     O_3   0.921695 0.416400 0.762660 -0.526437
H79   H     H_    0.869315 0.374478 0.754924 0.311711
S10   S     S_3+6 0.066357 0.445443 0.260799 0.117191
O52   O     O_2   0.988583 0.411009 0.179609 -0.197158
O53   O     O_2   0.063505 0.372207 0.270260 -0.332923
O54   O     O_3   0.054906 0.504235 0.340099 -0.390008
H80   H     H_    0.002732 0.464992 0.335665 0.406587
S11   S     S_3+6 0.587541 0.314354 0.620207 0.044951
O55   O     O_2   0.555737 0.313914 0.537907 -0.345855
O56   O     O_2   0.647119 0.281012 0.619287 -0.283689
O57   O     O_3   0.504945 0.239397 0.612265 -0.480851
H81   H     H_    0.494400 0.185616 0.569147 0.395787
S12   S     S_3+6 0.402953 0.693840 0.403388 0.058560
O58   O     O_2   0.473698 0.765579 0.412813 -0.215342
O59   O     O_2   0.336900 0.718608 0.404416 -0.243538
O60   O     O_3   0.441023 0.693154 0.494591 -0.541392
H82   H     H_    0.456913 0.748285 0.540282 0.406952
S13   S     S_3+6 0.688691 0.344179 0.806698 0.157813
O61   O     O_2   0.595565 0.284821 0.764108 -0.119337
O62   O     O_2   0.729003 0.298543 0.769932 -0.298637
O63   O     O_3   0.723340 0.368889 0.909244 -0.435412
H83   H     H_    0.720021 0.317622 0.909391 0.381066
S14   S     S_3+6 0.289528 0.682506 0.231065 0.165118
O64   O     O_2   0.224014 0.698087 0.249038 -0.265295
O65   O     O_2   0.373902 0.760363 0.293115 -0.112690
O66   O     O_3   0.274992 0.674511 0.136089 -0.464836
H84   H     H_    0.322292 0.668511 0.129717 0.383042
S15   S     S_3+6 0.831665 0.113791 0.702233 0.042803
O67   O     O_2   0.833262 0.036794 0.694569 -0.217013
O68   O     O_2   0.845022 0.163463 0.790341 -0.235129
O69   O     O_3   0.731687 0.082075 0.633800 -0.512124
H85   H     H_    0.723079 0.130148 0.657675 0.397492
S16   S     S_3+6 0.180772 0.907060 0.394808 0.046033
O70   O     O_2   0.237278 0.907515 0.354883 -0.174169
O71   O     O_2   0.151376 0.966971 0.391107 -0.354980
O72   O     O_3   0.240483 0.940117 0.498605 -0.513490
H86   H     H_    0.212848 0.962340 0.529058 0.366715
C75   C     C_3   0.058414 0.272202 0.626436 -0.668387
H87   H     H_    0.111477 0.327802 0.638852 0.298252
H88   H     H_    0.064728 0.221329 0.586196 0.238183
H89   H     H_    0.999767 0.266874 0.586328 0.249145
C76   C     C_3   0.917388 0.714784 0.359611 -0.686883
H90   H     H_    0.863116 0.653818 0.335583 0.310363
H91   H     H_    0.970862 0.722993 0.410880 0.247786
H92   H     H_    0.905553 0.763968 0.393005 0.224088
C77   C     C_3   0.849424 0.149389 0.583429 -0.718259
H93   H     H_    0.882478 0.180492 0.556573 0.237893
H94   H     H_    0.817676 0.080760 0.540937 0.254925
H95   H     H_    0.798132 0.164986 0.577820 0.254363
C78   C     C_3   0.105696 0.778162 0.406719 -0.686443
H96   H     H_    0.064869 0.712612 0.382752 0.280254
H97   H     H_    0.169157 0.783260 0.426667 0.283247
H98   H     H_    0.106286 0.816074 0.465690 0.238710
S17   S     S_3+6 0.072857 0.429220 0.743853 0.128988
O73   O     O_2   0.079133 0.505296 0.807287 -0.113742
O74   O     O_2   0.146896 0.462834 0.729282 -0.252588
O75   O     O_3   0.985399 0.382190 0.649896 -0.537099
H99   H     H_    0.002591 0.409384 0.618462 0.403030
S18   S     S_3+6 0.945528 0.571828 0.249400 0.080620
O76   O     O_2   0.884816 0.481742 0.179536 -0.175705
O77   O     O_2   0.032444 0.587770 0.264666 -0.300637
O78   O     O_3   0.940143 0.579153 0.337909 -0.570543
H100  H     H_    0.882494 0.534483 0.317362 0.382908
S19   S     S_3+6 0.160268 0.216078 0.834461 0.116963
O79   O     O_2   0.196779 0.245238 0.928232 -0.281527
O80   O     O_2   0.160165 0.135567 0.792557 -0.196816
O81   O     O_3   0.234127 0.286580 0.829030 -0.433420
H101  H     H_    0.288026 0.290379 0.861903 0.419141
S20   S     S_3+6 0.873027 0.819286 0.173782 0.117889
O82   O     O_2   0.802322 0.773479 0.185927 -0.190023
O83   O     O_2   0.892641 0.908829 0.212047 -0.205595
O84   O     O_3   0.833678 0.780674 0.068094 -0.548730
H102  H     H_    0.784797 0.789540 0.050065 0.393422
S21   S     S_3+6 0.004530 0.104320 0.810885 0.150354
O85   O     O_2   0.072889 0.108838 0.880666 -0.168177
O86   O     O_2   0.941320 0.103097 0.841916 -0.187475
O87   O     O_3   0.966200 0.011656 0.725303 -0.468565
H103  H     H_    0.945098 0.018029 0.675513 0.320617
S22   S     S_3+6 0.044019 0.898894 0.214131 0.122867
O88   O     O_2   0.056080 0.980073 0.274848 -0.234394
O89   O     O_2   0.127758 0.904038 0.230634 -0.219850
O90   O     O_3   0.999494 0.884502 0.115295 -0.502279
H104  H     H_    0.037899 0.935816 0.118994 0.397271
S23   S     S_3+6 0.271120 0.302017 0.686909 0.033581
O91   O     O_2   0.196988 0.234354 0.677208 -0.275350
O92   O     O_2   0.349766 0.323476 0.760311 -0.223177
O93   O     O_3   0.264852 0.388991 0.708871 -0.533534
H105  H     H_    0.324214 0.435533 0.740147 0.393546
S24   S     S_3+6 0.718451 0.701482 0.302871 0.059709
O94   O     O_2   0.637194 0.683936 0.236408 -0.176967
O95   O     O_2   0.790010 0.767168 0.307435 -0.257113
O96   O     O_3   0.721022 0.611862 0.273965 -0.559832
H106  H     H_    0.661006 0.566271 0.236907 0.404835
C79   C     C_3   0.217137 0.382614 0.528282 -0.674096
H107  H     H_    0.277261 0.441153 0.558087 0.270348
H108  H     H_    0.211425 0.375438 0.580480 0.251997
H109  H     H_    0.163354 0.392070 0.501650 0.262663
C80   C     C_3   0.777720 0.609970 0.475570 -0.682347
H110  H     H_    0.720883 0.553009 0.455396 0.290107
H111  H     H_    0.773427 0.603039 0.413914 0.219200
H112  H     H_    0.834849 0.606666 0.506893 0.251563

loop_
_geom_bond_atom_site_label_1
_geom_bond_atom_site_label_2
_ccdc_geom_bond_type
C75   H88   S    
S17   O75   S    
O17   Zn4   S    
O54   H80   S    
C70   H61   S    
S23   O91   D    
S19   O81   S    
C69   H58   S    
O81   H101  S    
C67   H52   S    
C61   H35   S    
S16   O71   D    
C62   H36   S    
C38   O4    A    
S11   O57   S    
O75   H99   S    
C2    O2    A    
O16   Zn4   S    
S21   O85   D    
C2    C22   S    
C66   H49   S    
C20   S8    S    
C4    C12   S    
C35   O21   A    
S5    O39   S    
C41   S15   S    
S16   O72   S    
S1    O26   D    
C24   O12   A    
S15   O67   D    
C65   H47   S    
C46   S2    S    
C41   C49   S    
O57   H81   S    
C13   C67   S    
C25   C29   S    
O1    Zn1   S    
C74   H72   S    
C34   O18   A    
C35   O19   A    
C63   H41   S    
C18   S12   S    
C37   O3    A    
C76   H91   S    
C17   C21   S    
C9    C59   S    
C10   C60   S    
S9    O49   D    
C14   C70   S    
C50   H16   S    
C12   H2    S    
C70   H60   S    
S24   O94   D    
O3    Zn6   S    
O12   Zn2   S    
S12   O59   D    
S2    O30   S    
S22   O88   D    
C55   C57   S    
C49   H13   S    
C72   H68   S    
C55   H23   S    
C30   S10   S    
S23   O93   S    
C77   H94   S    
S20   O84   S    
C3    S3    S    
C28   H8    S    
C61   H33   S    
O18   Zn3   S    
C74   H74   S    
S20   O83   D    
C23   O13   A    
C57   H25   S    
C64   H43   S    
C46   S18   S    
C37   O23   A    
C3    C11   S    
S5    O37   D    
S6    O41   D    
C44   S22   S    
S15   O69   S    
C65   H45   S    
C43   C47   S    
C41   C51   S    
C44   C48   S    
C42   C52   S    
C29   H11   S    
C15   C71   S    
C36   O20   A    
C63   H39   S    
C43   C51   S    
C68   H55   S    
C20   C30   S    
C10   H28   S    
C19   C21   S    
C50   H14   S    
O72   H86   S    
C78   H98   S    
C29   S9    S    
C43   S19   S    
C17   S11   S    
S22   O90   S    
C43   S21   S    
C49   H15   S    
C55   H21   S    
C53   H5    S    
O60   H82   S    
C8    C12   S    
C44   C52   S    
O2    Zn2   S    
S17   O73   D    
C45   C53   S    
C20   H10   S    
O5    Zn5   S    
C58   H26   S    
S10   O52   D    
S7    O44   D    
C17   C27   S    
O8    Zn5   S    
C18   C28   S    
S9    O51   S    
C51   C53   S    
C16   C74   S    
C5    C23   S    
C64   H42   S    
C6    C24   S    
O84   H102  S    
C32   C37   S    
C39   O7    A    
C42   C50   S    
C8    C10   S    
C26   C30   S    
S8    O47   D    
C79   H108  S    
C36   O22   A    
C14   C22   S    
S13   O63   S    
C19   H9    S    
C3    C61   S    
C38   O24   A    
S2    O29   D    
S3    O31   D    
C80   H112  S    
C9    H3    S    
C32   C46   S    
C10   H4    S    
C40   O6    A    
C11   H1    S    
C30   H12   S    
C78   H96   S    
C56   H22   S    
S4    O34   D    
C54   H6    S    
S19   O80   D    
S8    O48   S    
O23   Zn5   S    
S3    O33   S    
C9    H27   S    
C18   S6    S    
O6    Zn6   S    
S14   O64   D    
S11   O56   D    
C56   C58   S    
C27   H7    S    
C13   C69   S    
S18   O76   D    
C31   C47   S    
O9    Zn2   S    
S10   O54   S    
C76   H90   S    
S5    O38   D    
C62   H38   S    
C54   C76   S    
C65   H46   S    
C23   O11   A    
C60   C66   S    
C79   H107  S    
S4    O36   S    
C77   H93   S    
O48   H78   S    
C4    S4    S    
C63   H40   S    
C31   C49   S    
O87   H103  S    
S1    O27   S    
O66   H84   S    
C62   H37   S    
C8    C36   S    
C39   O5    A    
C73   H71   S    
O21   Zn4   S    
C8    C58   S    
O45   H77   S    
S24   O95   D    
S13   O61   D    
C71   H65   S    
C45   S1    S    
S22   O89   D    
C75   H89   S    
C80   H110  S    
C18   C22   S    
O13   Zn2   S    
C32   C48   S    
C40   O8    A    
C57   S23   S    
C56   H24   S    
C70   H62   S    
S23   O92   D    
C16   C26   S    
C69   H59   S    
S24   O96   S    
C45   S17   S    
C67   H53   S    
C33   O17   A    
C4    C6    S    
C68   H54   S    
O10   Zn1   S    
S16   O70   D    
O96   H106  S    
S14   O66   S    
O15   Zn3   S    
O90   H104  S    
C74   H73   S    
C66   H48   S    
S18   O78   S    
C46   C54   S    
C66   H50   S    
C68   H56   S    
C20   C22   S    
S15   O68   D    
O30   H30   S    
C19   C29   S    
O69   H85   S    
O63   H83   S    
S21   O86   D    
C33   O15   A    
C3    C5    S    
O11   Zn1   S    
S1    O25   D    
C33   C51   S    
C44   S20   S    
C34   C52   S    
C31   C38   S    
O20   Zn4   S    
C72   H67   S    
O78   H100  S    
C73   H69   S    
O14   Zn1   S    
C28   S14   S    
C78   H97   S    
C11   C63   S    
O19   Zn3   S    
C24   O14   A    
S12   O58   D    
C7    C57   S    
C15   C25   S    
C71   H63   S    
C42   S16   S    
C31   C45   S    
C53   C75   S    
C14   C68   S    
O22   Zn3   S    
C77   H95   S    
O24   Zn6   S    
C69   H57   S    
C1    C21   S    
C61   H34   S    
C67   H51   S    
C47   H19   S    
C72   H66   S    
C76   H92   S    
C4    C62   S    
S10   O53   D    
C16   C72   S    
S7    O43   D    
C7    C11   S    
S9    O50   D    
S20   O82   D    
S12   O60   S    
C64   H44   S    
C48   H18   S    
O33   H31   S    
O39   H75   S    
C27   S13   S    
S13   O62   D    
C12   C64   S    
C52   C54   S    
C60   C80   S    
O7    Zn6   S    
C80   H111  S    
C5    C59   S    
C13   C21   S    
C6    C60   S    
C41   C77   S    
S21   O87   S    
C1    O9    A    
C59   C65   S    
S6    O40   D    
S4    O35   D    
S19   O79   D    
C15   C73   S    
C34   O16   A    
O4    Zn5   S    
S14   O65   D    
S11   O55   D    
C32   C50   S    
O93   H105  S    
S18   O77   D    
C13   C15   S    
C14   C16   S    
C17   S5    S    
C47   H17   S    
C75   H87   S    
S7    O45   S    
S17   O74   D    
C1    O1    A    
C7    C35   S    
C5    C55   S    
C6    C56   S    
C25   C27   S    
O36   H32   S    
C26   C28   S    
C48   H20   S    
C42   C78   S    
C58   S24   S    
C25   C39   S    
C59   C79   S    
C26   C40   S    
O51   H79   S    
S6    O42   S    
C73   H70   S    
C7    C9    S    
C2    O10   A    
S8    O46   D    
C79   H109  S    
C19   S7    S    
O42   H76   S    
S3    O32   D    
O27   H29   S    
S2    O28   D    
C71   H64   S    
