data_mof_unit_47390.cif
_audit_creation_date              2013-03-05T16:20:10-0500
_audit_creation_method            fapswitch 2.2
_symmetry_space_group_name_H-M    P1
_symmetry_Int_Tables_number       1
_space_group_crystal_system       triclinic
_cell_length_a                    8.227445
_cell_length_b                    18.894367
_cell_length_c                    27.033309
_cell_angle_alpha                 100.243424
_cell_angle_beta                  92.41776
_cell_angle_gamma                 88.026677
_cell_volume                      4130.17858829

loop_
_atom_site_label
_atom_site_type_symbol
_atom_site_description
_atom_site_fract_x
_atom_site_fract_y
_atom_site_fract_z
_atom_type_partial_charge
P1    P     P_3+3 0.929380 0.335110 0.452880 0.544845
O1    O     O_2   0.106080 0.324280 0.466820 -0.329722
O2    O     O_3   0.859130 0.413620 0.470620 -0.368105
O3    O     O_3   0.376230 0.370290 0.556910 -0.337787
O4    O     O_2   0.253437 0.243826 0.515947 -0.396957
O5    O     O_3   0.923511 0.314510 0.387127 -0.581881
O6    O     O_3   0.351882 0.251793 0.608354 -0.618162
C1    C     C_3   0.470632 0.240758 0.688996 -0.183813
H1    H     H_    0.566484 0.262725 0.717174 0.168781
H2    H     H_    0.351895 0.246590 0.707807 0.175628
P2    P     P_3+3 0.398530 0.559060 0.613740 0.518657
P3    P     P_3+3 0.957189 0.409689 0.647693 0.546653
O7    O     O_2   0.227190 0.537650 0.620070 -0.349685
O8    O     O_3   0.971110 0.406970 0.583250 -0.405205
O9    O     O_2   0.067396 0.469973 0.675581 -0.319339
O10   O     O_3   0.399214 0.652399 0.634000 -0.522953
O11   O     O_3   0.048310 0.329012 0.659575 -0.420828
C2    C     C_3   0.979995 0.272322 0.624598 0.428558
H3    H     H_    0.037545 0.268172 0.587783 0.132206
H4    H     H_    0.847061 0.279918 0.618499 0.017260
C3    C     C_3   0.006861 0.201567 0.643513 -0.759954
H5    H     H_    0.138262 0.188611 0.647652 0.268461
H6    H     H_    0.950972 0.205098 0.680592 0.291902
C4    C     C_3   0.839569 0.615862 0.629435 0.211268
H7    H     H_    0.727901 0.593192 0.609524 0.070054
H8    H     H_    0.940006 0.575371 0.622321 0.135051
C5    C     C_3   0.811215 0.632803 0.685920 -0.049326
H9    H     H_    0.699540 0.667493 0.692604 0.194941
H10   H     H_    0.792402 0.582346 0.700102 0.046708
Ba1   Ba    Ba6+2 0.160810 0.465630 0.521640 1.653731
C6    C     C_3   0.992481 0.369028 0.367151 1.200804
H11   H     H_    0.108941 0.384967 0.386893 -0.012423
C7    C     C_3   0.021721 0.340951 0.311765 -0.939688
H12   H     H_    0.103977 0.292563 0.307891 0.268042
H13   H     H_    0.078689 0.382303 0.294383 0.215411
H14   H     H_    0.904424 0.326244 0.291268 0.250688
C8    C     C_3   0.301468 0.688387 0.602231 0.237457
H15   H     H_    0.202393 0.654652 0.583050 0.055731
H16   H     H_    0.377426 0.703611 0.573065 0.116116
C9    C     C_3   0.223409 0.755975 0.633332 -0.025593
H17   H     H_    0.131116 0.739857 0.657494 0.196449
H18   H     H_    0.160585 0.788378 0.607507 0.069771
P4    P     P_3+3 0.880940 0.664900 0.547160 0.509602
O12   O     O_2   0.704230 0.675760 0.533200 -0.312240
O13   O     O_3   0.951180 0.586390 0.529420 -0.407963
O14   O     O_3   0.434080 0.629720 0.443130 -0.350521
O15   O     O_3   0.878189 0.679213 0.612985 -0.525280
P5    P     P_3+3 0.836010 0.589940 0.351672 0.541306
O16   O     O_3   0.351080 0.462080 0.440130 -0.395112
O17   O     O_3   0.839200 0.593040 0.416790 -0.370683
O18   O     O_2   0.666432 0.562447 0.331624 -0.359513
O19   O     O_3   0.835521 0.677951 0.339081 -0.497653
Ba2   Ba    Ba6+2 0.649380 0.534380 0.478400 1.624374
P6    P     P_3+3 0.394339 0.276608 0.551030 0.469408
C10   C     C_3   0.462616 0.283592 0.645968 1.200254
H19   H     H_    0.586828 0.284540 0.631981 -0.234761
O20   O     O_3   0.459240 0.537930 0.559910 -0.400540
C11   C     C_3   0.487368 0.313605 0.389960 0.363244
H20   H     H_    0.583049 0.346534 0.412443 0.104649
H21   H     H_    0.400796 0.297559 0.416154 0.128020
C12   C     C_3   0.570853 0.246676 0.361241 -0.719434
H22   H     H_    0.654342 0.262005 0.333936 0.247053
H23   H     H_    0.642631 0.218163 0.387688 0.227133
H24   H     H_    0.478858 0.210168 0.340279 0.291047
P7    P     P_3+3 0.399423 0.442172 0.376528 0.474842
O21   O     O_2   0.583120 0.462390 0.379940 -0.276820
O22   O     O_3   0.401079 0.349142 0.355076 -0.573387
H25   H     H_    0.950181 0.157447 0.616193 0.220708
C13   C     C_3   0.853788 0.726481 0.384683 0.487662
H26   H     H_    0.761737 0.717808 0.411534 0.165779
H27   H     H_    0.977327 0.720101 0.401582 -0.014878
C14   C     C_3   0.828724 0.803309 0.375389 -0.850695
H28   H     H_    0.712111 0.808781 0.354026 0.273645
H29   H     H_    0.824367 0.840969 0.411838 0.200808
H30   H     H_    0.929964 0.818396 0.353937 0.275912
P8    P     P_3+3 0.415861 0.722988 0.447775 0.440811
C15   C     C_3   0.302361 0.738642 0.359943 0.145586
H31   H     H_    0.213408 0.778892 0.378769 0.071660
O23   O     O_2   0.563461 0.755582 0.479988 -0.406868
O24   O     O_3   0.450384 0.741494 0.387976 -0.538640
H32   H     H_    0.251227 0.683910 0.354871 0.097138
C16   C     C_3   0.332245 0.757256 0.308421 -0.040406
H33   H     H_    0.386769 0.709754 0.283814 0.157674
H34   H     H_    0.420110 0.801637 0.312807 0.140307
C17   C     C_R   0.993996 0.046354 0.475508 -0.081033
C18   C     C_R   0.079672 0.091207 0.449468 -0.262821
C19   C     C_R   0.228979 0.064670 0.427495 0.445935
C20   C     C_R   0.291541 0.996780 0.433377 -0.314145
C21   C     C_R   0.205042 0.951916 0.457874 0.079068
C22   C     C_R   0.054810 0.975829 0.478476 0.087423
C23   C     C_R   0.265538 0.882505 0.460317 -0.241235
C24   C     C_R   0.173877 0.833697 0.480538 0.004300
C25   C     C_R   0.024348 0.857656 0.503058 -0.006406
C26   C     C_R   0.965993 0.929198 0.502035 -0.007060
C27   C     C_R   0.225121 0.760971 0.477349 0.180145
C28   C     C_R   0.127716 0.713329 0.495735 -0.536241
C29   C     C_R   0.986794 0.736258 0.521652 0.213188
C30   C     C_R   0.934983 0.810754 0.527122 -0.193811
C31   C     C_R   0.845839 0.071097 0.497604 0.024115
C32   C     C_R   0.788933 0.143113 0.497923 -0.036596
C33   C     C_R   0.879058 0.190529 0.474726 -0.250918
C34   C     C_R   0.016218 0.161329 0.447032 0.816720
H35   H     H_    0.406537 0.977938 0.416861 0.177278
H36   H     H_    0.165866 0.657232 0.491297 0.177024
H37   H     H_    0.382394 0.866332 0.444469 0.178864
C35   C     C_R   0.798641 0.840766 0.555198 0.343564
C36   C     C_R   0.730549 0.908583 0.548692 -0.038383
C37   C     C_R   0.816455 0.953446 0.523011 -0.023516
C38   C     C_R   0.755985 0.024097 0.520503 0.060482
C39   C     C_R   0.579719 0.933716 0.568836 -0.061690
C40   C     C_R   0.516888 0.001738 0.564353 -0.118494
C41   C     C_R   0.605637 0.047865 0.541371 0.121616
C42   C     C_R   0.639985 0.167115 0.520873 0.055167
C43   C     C_R   0.547165 0.117924 0.540323 -0.168949
C44   C     C_R   0.588531 0.239779 0.524003 0.188020
C45   C     C_R   0.685062 0.287609 0.505547 -0.533730
C46   C     C_R   0.826913 0.264923 0.480254 0.276855
H38   H     H_    0.506662 0.900877 0.587378 0.206306
H39   H     H_    0.399861 0.018889 0.580003 0.170447
H40   H     H_    0.430310 0.133776 0.556139 0.167952
H41   H     H_    0.644817 0.343354 0.508954 0.167674
C47   C     C_R   0.267310 0.450261 0.169822 0.530327
O25   O     O_2   0.264582 0.394916 0.187299 -0.572450
N1    N     N_R   0.233925 0.515817 0.200069 -0.169190
C48   C     C_R   0.236694 0.578646 0.180585 0.547409
C49   C     C_2   0.044973 0.538889 0.269003 -0.216059
C50   C     C_3   0.003113 0.529766 0.321597 0.293475
C51   C     C_1   0.284561 0.495164 0.335916 0.228597
C52   C     C_2   0.322142 0.495271 0.288655 -0.182829
C53   C     C_2   0.196014 0.518312 0.252381 0.134799
C54   C     C_R   0.305853 0.510500 0.098488 -0.067332
C55   C     C_R   0.302595 0.446729 0.118711 -0.065540
C56   C     C_R   0.335145 0.380772 0.087480 -0.062895
C57   C     C_R   0.273151 0.576900 0.129822 -0.080521
C58   C     C_2   0.154827 0.530754 0.355194 -0.422185
H42   H     H_    0.442446 0.477535 0.275768 0.167604
H43   H     H_    0.336508 0.330917 0.102082 0.178083
C59   C     C_2   0.638205 0.464698 0.635682 -0.452404
C60   C     C_R   0.392213 0.437763 0.963019 0.047393
C61   C     C_R   0.398913 0.569931 0.976895 -0.000203
C62   C     C_R   0.414772 0.502535 0.944466 0.104414
C63   C     C_R   0.394083 0.372258 0.928465 -0.182344
C64   C     C_R   0.424523 0.370075 0.878122 -0.028818
C65   C     C_R   0.456797 0.432908 0.859973 -0.053428
C66   C     C_R   0.453076 0.499655 0.892982 -0.076859
C67   C     C_R   0.486273 0.563130 0.874459 -0.234597
C68   C     C_R   0.525768 0.557394 0.822989 0.644535
N2    N     N_R   0.533956 0.490975 0.791813 -0.164012
C69   C     C_R   0.492643 0.429805 0.809269 0.652836
C70   C     C_2   0.717498 0.442788 0.723858 0.283760
C71   C     C_3   0.740210 0.420585 0.667535 0.049613
C72   C     C_1   0.518409 0.508063 0.655166 0.291899
C73   C     C_2   0.480870 0.517342 0.703178 -0.124973
C74   C     C_2   0.585352 0.484679 0.740235 -0.005476
O26   O     O_2   0.487219 0.372312 0.780360 -0.579024
C75   C     C_R   0.366487 0.440365 0.015147 0.040304
C76   C     C_R   0.341791 0.507872 0.046911 0.088145
C77   C     C_R   0.352497 0.572740 0.027595 0.065592
C78   C     C_R   0.366239 0.377527 0.036913 -0.190105
H44   H     H_    0.424441 0.318223 0.853344 0.177643
H45   H     H_    0.367857 0.321495 0.938857 0.141272
H46   H     H_    0.394132 0.324707 0.016071 0.140680
O27   O     O_2   0.208648 0.636275 0.207615 -0.546202
C79   C     C_R   0.276608 0.640243 0.109748 -0.055702
H47   H     H_    0.950195 0.553787 0.243300 0.164987
H48   H     H_    0.249230 0.692057 0.132705 0.188798
C80   C     C_R   0.432883 0.632434 0.957707 -0.273657
C81   C     C_R   0.478108 0.629795 0.908086 0.421174
O28   O     O_2   0.552845 0.611165 0.805781 -0.499664
C82   C     C_R   0.315319 0.638352 0.059875 -0.178702
H49   H     H_    0.432981 0.684818 0.981245 0.167040
H50   H     H_    0.371155 0.547404 0.716015 0.205518
H51   H     H_    0.311020 0.689489 0.047425 0.151250
H52   H     H_    0.160367 0.563005 0.392703 0.154102
H53   H     H_    0.649638 0.451553 0.595215 0.173610
F1    F     F_    0.408930 0.353060 0.664354 -0.675186
N3    N     N_R   0.950093 0.668793 0.713575 0.286353
O29   O     O_R   0.089606 0.634666 0.715517 -0.351780
O30   O     O_R   0.932390 0.733589 0.739114 -0.238296
F2    F     F_    0.886710 0.427561 0.371443 -0.697816
N4    N     N_R   0.342330 0.800169 0.665410 0.313464
O31   O     O_R   0.416523 0.776251 0.702857 -0.227266
O32   O     O_R   0.353650 0.867648 0.662100 -0.314157
N5    N     N_R   0.508811 0.164876 0.670731 0.242213
O33   O     O_R   0.653911 0.144805 0.655405 -0.405401
O34   O     O_R   0.403313 0.116336 0.674162 -0.346044
N6    N     N_R   0.180466 0.779816 0.285087 0.254436
O35   O     O_R   0.165064 0.843913 0.273824 -0.343933
O36   O     O_R   0.058922 0.736583 0.276032 -0.320360
N7    N     N_R   0.320191 0.105031 0.398784 0.262792
O37   O     O_R   0.264870 0.112651 0.354174 -0.324854
O38   O     O_R   0.473817 0.114859 0.410261 -0.444781
F3    F     F_    0.086798 0.199894 0.416668 -0.647472
N8    N     N_R   0.755258 0.812645 0.598463 0.256139
O39   O     O_R   0.844201 0.828057 0.639678 -0.316677
O40   O     O_R   0.612163 0.786673 0.600562 -0.371204
N9    N     N_R   0.821829 0.411360 0.758687 0.254192
O41   O     O_R   0.871531 0.344550 0.747533 -0.354250
O42   O     O_R   0.868062 0.449517 0.801600 -0.379086
N10   N     N_R   0.517982 0.696090 0.893242 0.272653
O43   O     O_R   0.668387 0.707682 0.884606 -0.277469
O44   O     O_R   0.413070 0.749821 0.898932 -0.299996

loop_
_geom_bond_atom_site_label_1
_geom_bond_atom_site_label_2
_geom_bond_distance
_ccdc_geom_bond_type
C48   C57   1.411445 A    
C1    H1    1.110792 S    
N8    O40   1.298232 A    
C10   H19   1.106309 S    
C56   H43   1.083708 S    
C25   C26   1.423353 A    
C5    H10   1.106778 S    
C2    C3    1.520117 S    
O2    Ba2   2.795917 S    
C23   H37   1.081307 S    
Ba1   O13   2.795333 S    
C79   C82   1.392397 A    
C68   N2    1.382949 Am   
P8    O23   1.543971 D    
O6    C10   1.402560 S    
C19   C20   1.398483 A    
C54   C57   1.407794 A    
C51   C52   1.327488 D    
C39   H38   1.076682 S    
C63   H45   1.077317 S    
O14   P8    1.745977 S    
C66   C67   1.418222 A    
C64   H44   1.084012 S    
C35   N8    1.430738 S    
C15   H31   1.108338 S    
C37   C38   1.420464 A    
C26   C37   1.404557 A    
C76   C77   1.421830 A    
O16   P7    1.753070 S    
C60   C75   1.425766 A    
C75   C76   1.418761 A    
C4    H8    1.105754 S    
C9    N4    1.460712 S    
C8    C9    1.535377 S    
P8    C27   1.855039 S    
C17   C18   1.416268 A    
C60   C63   1.411855 A    
C35   C36   1.417407 A    
C49   C53   1.359790 D    
C11   H21   1.111056 S    
C64   C65   1.400181 A    
C31   C38   1.413401 A    
Ba1   O20   2.911881 S    
C29   C30   1.440393 A    
C7    H14   1.110934 S    
C45   C46   1.393541 A    
O14   Ba2   2.745993 S    
C40   H39   1.084052 S    
C2    H3    1.109187 S    
N9    O42   1.301711 A    
C39   C40   1.392142 A    
P1    Ba1   3.399517 S    
O19   C13   1.405328 S    
C61   C77   1.429697 A    
C42   C43   1.407158 A    
O12   Ba2   2.855378 S    
P4    Ba2   3.400118 S    
P5    O18   1.547942 D    
C6    H11   1.101435 S    
P2    Ba1   3.377014 S    
C57   C79   1.400824 A    
C55   C56   1.399807 A    
P7    O22   1.750043 S    
C54   C76   1.429366 A    
P3    O11   1.750425 S    
C36   C37   1.411367 A    
C6    C7    1.523220 S    
C11   O22   1.407127 S    
C58   H52   1.086206 S    
C21   C23   1.398269 A    
C70   N9    1.439261 S    
C12   H22   1.110449 S    
C62   C66   1.431166 A    
O10   C8    1.399451 S    
C1    N5    1.458895 S    
C61   C80   1.412328 A    
P5    O17   1.749992 S    
O5    C6    1.392339 S    
C49   H47   1.085724 S    
O13   Ba2   2.903539 S    
C3    H5    1.105678 S    
C28   C29   1.396014 A    
P3    C71   1.879678 S    
C48   O27   1.219322 D    
N2    C74   1.457522 S    
O8    Ba1   2.726408 S    
C14   H30   1.107814 S    
C1    C10   1.528739 S    
C47   C55   1.413338 A    
C22   C26   1.413876 A    
C32   C33   1.424953 A    
N4    O32   1.300641 A    
Ba1   Ba2   4.528538 S    
O17   Ba2   2.727017 S    
C13   H27   1.108283 S    
C45   H41   1.082363 S    
C67   C68   1.426685 A    
P1    O5    1.749689 S    
C33   C34   1.421208 A    
P8    O24   1.750102 S    
O4    P6    1.541036 D    
C4    H7    1.104841 S    
C14   H29   1.109232 S    
C51   C58   1.317553 D    
C23   C24   1.407115 A    
Ba2   O20   2.745565 S    
C18   C19   1.423539 A    
N10   O43   1.301912 A    
C80   H49   1.077291 S    
N3    O30   1.300887 A    
C11   H20   1.111340 S    
N4    O31   1.301239 A    
C24   C27   1.412226 A    
C42   C44   1.411742 A    
P1    O2    1.573478 S    
O2    Ba1   2.902705 S    
P4    O12   1.502988 D    
P7    C51   1.827329 S    
N7    O37   1.301221 A    
C8    H15   1.105511 S    
C17   C31   1.408570 A    
C52   H42   1.085403 S    
P2    O10   1.751318 S    
O7    Ba1   2.805540 S    
C9    H18   1.108681 S    
C31   C32   1.422344 A    
P3    O9    1.547888 D    
C15   H32   1.113492 S    
C40   C41   1.397657 A    
C4    C5    1.529567 S    
P6    C44   1.847108 S    
C12   H23   1.108862 S    
C7    H12   1.110912 S    
C78   H46   1.077621 S    
N1    C53   1.453213 S    
P1    C46   1.869649 S    
C61   C62   1.417145 A    
Ba2   O21   2.805885 S    
P4    O13   1.573450 S    
C19   N7    1.430448 S    
C41   C43   1.397418 A    
N10   O44   1.301791 A    
C9    H17   1.106569 S    
Ba1   O16   2.746212 S    
P3    O8    1.742214 S    
N3    O29   1.300779 A    
C16   H34   1.113092 S    
C3    H6    1.110689 S    
C3    H25   1.112027 S    
C36   C39   1.409423 A    
C38   C41   1.407313 A    
C47   N1    1.383322 Am   
C54   C55   1.410385 A    
C21   C22   1.404360 A    
C34   F3    1.350545 S    
C60   C62   1.423230 A    
C80   C81   1.399062 A    
C20   H35   1.084959 S    
C5    N3    1.458603 S    
C52   C53   1.504277 S    
C15   O24   1.404439 S    
C67   C81   1.417576 A    
N9    O41   1.300441 A    
N7    O38   1.300348 A    
C81   N10   1.433823 S    
C65   C69   1.404837 A    
O3    P6    1.750519 S    
C70   C71   1.523360 S    
C4    O15   1.399609 S    
C75   C78   1.415842 A    
C77   C82   1.415481 A    
C32   C42   1.420599 A    
P4    C29   1.874572 S    
C13   C14   1.522357 S    
C14   H28   1.110118 S    
C17   C22   1.421660 A    
C59   C71   1.512160 S    
C16   N6    1.459964 S    
C30   C35   1.425082 A    
O11   C2    1.411968 S    
O1    Ba1   2.854922 S    
C6    F2    1.374938 S    
C65   C66   1.409643 A    
C59   C72   1.324731 D    
C59   H53   1.085231 S    
C28   H36   1.082303 S    
C27   C28   1.393554 A    
C33   C46   1.439234 A    
N6    O35   1.301067 A    
C8    H16   1.108858 S    
C12   H24   1.109300 S    
P2    O7    1.504791 D    
C15   C16   1.527455 S    
C11   C12   1.519763 S    
C49   C50   1.517365 S    
O16   Ba2   2.910978 S    
P1    O1    1.502698 D    
C73   H50   1.085768 S    
C79   H48   1.083897 S    
C24   C25   1.419812 A    
C7    H13   1.106959 S    
N5    O34   1.301923 A    
N8    O39   1.300839 A    
C2    H4    1.107417 S    
N2    C69   1.381504 Am   
P7    O21   1.566557 D    
C69   O26   1.221163 D    
C13   H26   1.106577 S    
C50   C58   1.511022 S    
O3    Ba1   2.746591 S    
C10   F1    1.382571 S    
N6    O36   1.300642 A    
C68   O28   1.220917 D    
P2    C72   1.838615 S    
P5    O19   1.755536 S    
C20   C21   1.394479 A    
C1    H2    1.113389 S    
C16   H33   1.111042 S    
C70   C74   1.364278 D    
C5    H9    1.112148 S    
C47   O25   1.222873 D    
C63   C64   1.387340 A    
N5    O33   1.302043 A    
C72   C73   1.326600 D    
O6    P6    1.748921 S    
C56   C78   1.391584 A    
C73   C74   1.494679 S    
P2    O20   1.538655 S    
P4    O15   1.752702 S    
C25   C30   1.428068 A    
C43   H40   1.079878 S    
C44   C45   1.392702 A    
N1    C48   1.382934 Am   
P5    C50   1.871284 S    
C82   H51   1.077203 S    
C18   C34   1.418725 A    
