data_mof_unit_34928.cif
_audit_creation_date              2012-12-10T17:02:59-0500
_audit_creation_method            fapswitch 2.2
_symmetry_space_group_name_H-M    P1
_symmetry_Int_Tables_number       1
_space_group_crystal_system       triclinic
_cell_length_a                    9.795662
_cell_length_b                    11.001047
_cell_length_c                    13.427844
_cell_angle_alpha                 94.525103
_cell_angle_beta                  81.465665
_cell_angle_gamma                 111.218626
_cell_volume                      1333.48532303

loop_
_atom_site_label
_atom_site_type_symbol
_atom_type_description
_atom_site_fract_x
_atom_site_fract_y
_atom_site_fract_z
_atom_type_partial_charge
C1    C     C_R   0.557910 0.745813 0.503903 0.878541
C2    C     C_R   0.437584 0.507869 0.972840 0.079100
C3    C     C_R   0.479436 0.545032 0.870766 0.092015
C4    C     C_R   0.548087 0.544102 0.038694 0.068569
C5    C     C_R   0.693814 0.627926 0.004925 0.168885
C6    C     C_R   0.727679 0.676273 0.908033 -0.254264
C7    C     C_R   0.622014 0.636587 0.842237 -0.208484
C8    C     C_R   0.518709 0.498219 0.136941 -0.250563
C9    C     C_R   0.769728 0.621745 0.167918 -0.208926
C10   C     C_R   0.376565 0.490736 0.800417 -0.108326
C11   C     C_2   0.591369 0.885721 0.501584 -0.501005
C12   C     C_R   0.423623 0.494560 0.690836 0.775080
C13   C     C_2   0.509957 0.933803 0.455467 0.498818
C14   C     C_2   0.416459 0.114615 0.475240 0.287835
C15   C     C_2   0.528849 0.071488 0.472883 -0.377010
C16   C     C_2   0.923113 0.490635 0.490643 -0.077603
C17   C     C_2   0.077378 0.510274 0.508789 -0.048704
C18   C     C_R   0.444421 0.254188 0.490257 0.744206
C19   C     C_R   0.578271 0.514382 0.309670 0.790330
C20   C     C_R   0.803670 0.664560 0.069244 -0.198364
C21   C     C_R   0.626094 0.540538 0.202501 -0.053305
C22   C     C_R   0.228607 0.419721 0.835204 -0.198272
C23   C     C_R   0.183788 0.396178 0.937005 -0.149068
C24   C     C_R   0.286679 0.437084 0.005071 -0.188288
Cu1   Cu    Cu3+1 0.362000 0.479240 0.482530 0.951877
Cu2   Cu    Cu3+1 0.638000 0.520760 0.517470 0.922376
H1    H     H_    0.853750 0.656233 0.218085 0.156410
H2    H     H_    0.680963 0.950353 0.540997 0.123798
H3    H     H_    0.125834 0.578630 0.567785 0.162580
H4    H     H_    0.874871 0.422677 0.431382 0.157101
H5    H     H_    0.106526 0.384604 0.400089 0.186919
H6    H     H_    0.893508 0.615528 0.599833 0.188365
H7    H     H_    0.836814 0.744667 0.882646 0.138554
H8    H     H_    0.914923 0.729004 0.043923 0.134718
H9    H     H_    0.412010 0.429976 0.165239 0.146901
H10   H     H_    0.147657 0.379280 0.783236 0.154095
H11   H     H_    0.243676 0.414457 0.082690 0.125595
H12   H     H_    0.068995 0.342121 0.963050 0.140468
H13   H     H_    0.653077 0.681582 0.769647 0.164381
H14   H     H_    0.636297 0.137818 0.490070 0.129337
N1    N     N_2   0.845330 0.551960 0.543750 -0.285486
N2    N     N_2   0.154690 0.448120 0.456210 -0.288714
O1    O     O_R   0.426290 0.668220 0.490680 -0.522305
O2    O     O_R   0.659360 0.703290 0.520190 -0.587360
O3    O     O_R   0.326580 0.473880 0.629020 -0.583335
O4    O     O_R   0.559660 0.508940 0.658530 -0.569321
O5    O     O_R   0.340640 0.296710 0.479810 -0.548253
O6    O     O_R   0.573710 0.331780 0.509320 -0.590553
O7    O     O_R   0.440340 0.491060 0.341470 -0.579855
O8    O     O_R   0.673420 0.526120 0.370980 -0.579670
O9    O     O_3   0.399326 0.853297 0.401264 -0.508146
C25   C     C_3   0.460056 0.849351 0.299472 0.132219
H15   H     H_    0.556347 0.816381 0.291713 0.112307
H16   H     H_    0.495205 0.947222 0.266036 0.136118
C26   C     C_3   0.343482 0.752813 0.240579 -0.759225
H17   H     H_    0.246768 0.783938 0.244798 0.246129
H18   H     H_    0.390255 0.748131 0.160404 0.194730
H19   H     H_    0.306702 0.654131 0.272266 0.258147
O10   O     O_3   0.278948 0.031723 0.453123 -0.528391
C27   C     C_3   0.184769 0.993917 0.544308 0.095256
H20   H     H_    0.170862 0.080039 0.587903 0.123185
H21   H     H_    0.228692 0.941009 0.591323 0.138399
C28   C     C_3   0.033658 0.902532 0.520755 -0.733619
H22   H     H_    0.043899 0.815440 0.477211 0.262508
H23   H     H_    0.958814 0.870517 0.591929 0.181066
H24   H     H_    0.985210 0.953410 0.475792 0.239500

loop_
_geom_bond_atom_site_label_1
_geom_bond_atom_site_label_2
_ccdc_geom_bond_type
Cu1   N2    S    
C2    C4    A    
C23   C24   A    
C28   H23   S    
C6    C7    A    
H5    N2    S    
C23   H12   S    
C22   H10   S    
C19   O7    A    
C9    C20   A    
C1    C11   S    
C6    H7    S    
Cu2   O6    S    
C4    C8    A    
C20   H8    S    
C18   O5    A    
Cu1   O1    S    
C26   H17   S    
Cu2   O8    S    
C24   H11   S    
C28   H24   S    
Cu2   O2    S    
O10   C27   S    
C3    C10   A    
C13   O9    S    
C10   C22   A    
C14   O10   S    
C11   C13   D    
C19   O8    A    
C9    C21   A    
C16   C17   S    
C10   C12   S    
C11   H2    S    
C27   H20   S    
C27   C28   S    
C12   O4    A    
C19   C21   S    
C25   C26   S    
C25   H16   S    
C2    C3    A    
C3    C7    A    
C26   H18   S    
C13   C15   S    
C2    C24   A    
C5    C6    A    
Cu1   O7    S    
C15   H14   S    
Cu2   O4    S    
H6    N1    S    
C16   H4    S    
O9    C25   S    
Cu1   O3    S    
C17   H3    S    
C25   H15   S    
C9    H1    S    
C27   H21   S    
C26   H19   S    
C5    C20   A    
C14   C18   S    
C17   N2    D    
C4    C5    A    
C7    H13   S    
Cu1   O5    S    
C1    O2    A    
Cu1   Cu2   S    
C14   C15   D    
C16   N1    D    
C1    O1    A    
C22   C23   A    
C28   H22   S    
Cu2   N1    S    
C18   O6    A    
C12   O3    A    
C8    H9    S    
C8    C21   A    
