data_mof_unit_18706.cif
_audit_creation_date              2012-12-10T17:29:15-0500
_audit_creation_method            fapswitch 2.2
_symmetry_space_group_name_H-M    P1
_symmetry_Int_Tables_number       1
_space_group_crystal_system       triclinic
_cell_length_a                    12.019485
_cell_length_b                    12.981068
_cell_length_c                    13.120919
_cell_angle_alpha                 88.168202
_cell_angle_beta                  113.778695
_cell_angle_gamma                 92.509845
_cell_volume                      1871.38725556

loop_
_atom_site_label
_atom_site_type_symbol
_atom_type_description
_atom_site_fract_x
_atom_site_fract_y
_atom_site_fract_z
_atom_type_partial_charge
C1    C     C_R   0.478216 0.299995 0.498595 0.887892
C2    C     C_R   0.614710 0.494246 0.831362 -0.143038
C3    C     C_R   0.532209 0.812273 0.506202 -0.067412
C4    C     C_R   0.567779 0.496835 0.709305 0.875113
C5    C     C_R   0.466200 0.189895 0.500612 -0.048763
C6    C     C_R   0.354827 0.036764 0.515091 -0.234077
C7    C     C_R   0.364242 0.142599 0.509954 -0.200758
C8    C     C_R   0.558937 0.131889 0.495903 -0.269121
C9    C     C_R   0.550429 0.025774 0.500797 0.162737
C10   C     C_R   0.447442 0.977091 0.510381 0.144588
C11   C     C_R   0.438575 0.869971 0.514105 0.034568
C12   C     C_R   0.559315 0.502559 0.989182 0.061737
C13   C     C_R   0.634358 0.861883 0.498504 -0.248207
C14   C     C_R   0.643507 0.968277 0.495950 -0.226329
C15   C     C_R   0.002905 0.591226 0.389421 -0.392769
C16   C     C_R   0.521710 0.700659 0.502912 0.885023
C17   C     C_R   0.123674 0.582344 0.400063 0.295111
C18   C     C_R   0.161785 0.462465 0.549320 -0.084782
C19   C     C_R   0.040087 0.467709 0.540044 0.074353
C20   C     C_R   0.959511 0.533953 0.459669 0.029196
C21   C     C_R   0.837686 0.540204 0.451852 0.215563
C22   C     C_R   0.875725 0.415049 0.596723 -0.041364
C23   C     C_R   0.550454 0.542843 0.885104 0.010952
C24   C     C_R   0.996993 0.408070 0.608685 -0.325597
C25   C     C_R   0.433065 0.504643 0.291285 0.876934
C26   C     C_R   0.302935 0.636565 0.014741 -0.194468
C27   C     C_R   0.394191 0.522369 0.172665 -0.057735
C28   C     C_R   0.711161 0.428750 0.893051 0.116496
C29   C     C_R   0.734287 0.405381 0.004095 -0.183276
C30   C     C_R   0.657301 0.438601 0.050590 -0.219472
C31   C     C_R   0.471511 0.529630 0.028957 0.086151
C32   C     C_R   0.386835 0.606424 0.972752 0.128098
C33   C     C_R   0.392448 0.657071 0.880004 -0.238808
C34   C     C_R   0.476178 0.629172 0.838237 0.098634
C35   C     C_R   0.466421 0.483133 0.124240 -0.250062
C36   C     C_R   0.308480 0.596206 0.116194 -0.197201
H1    H     H_    0.252602 0.627917 0.153844 0.153889
H2    H     H_    0.224232 0.411766 0.611093 0.138158
H3    H     H_    0.238813 0.696040 0.973022 0.134910
H4    H     H_    0.523886 0.420489 0.167433 0.139555
H5    H     H_    0.679177 0.415420 0.135957 0.140318
H6    H     H_    0.808963 0.357068 0.053526 0.138372
H7    H     H_    0.722683 0.005605 0.489014 0.143170
H8    H     H_    0.742819 0.590203 0.293645 0.169271
H9    H     H_    0.792546 0.684681 0.390484 0.154006
H10   H     H_    0.109132 0.612046 0.244118 0.151482
H11   H     H_    0.148063 0.715357 0.327051 0.154868
H12   H     H_    0.706532 0.818468 0.492822 0.171093
H13   H     H_    0.834745 0.324503 0.892590 0.169550
H14   H     H_    0.844237 0.440884 0.836924 0.187929
H15   H     H_    0.423640 0.683751 0.681757 0.239657
H16   H     H_    0.578114 0.689703 0.754828 0.166608
H17   H     H_    0.255860 0.840853 0.457565 0.173967
H18   H     H_    0.330479 0.843213 0.599105 0.178444
H19   H     H_    0.274471 0.003307 0.522605 0.135031
H20   H     H_    0.292215 0.187220 0.514321 0.161080
H21   H     H_    0.637950 0.169095 0.488365 0.158709
H22   H     H_    0.843661 0.368379 0.649782 0.148938
H23   H     H_    0.944098 0.642039 0.325119 0.144231
H24   H     H_    0.056514 0.356020 0.671083 0.150266
H25   H     H_    0.334585 0.721505 0.841952 0.150435
N1    N     N_R   0.798200 0.480260 0.519790 -0.094519
N2    N     N_R   0.201820 0.519740 0.480210 -0.095900
N3    N     N_3   0.754795 0.609811 0.374170 -0.396390
N4    N     N_3   0.163865 0.637229 0.324364 -0.400770
N5    N     N_3   0.782736 0.383565 0.842027 -0.448606
N6    N     N_3   0.494002 0.698639 0.758708 -0.462294
N7    N     N_3   0.334803 0.819861 0.525287 -0.441458
O1    O     O_R   0.579910 0.341070 0.505280 -0.625911
O2    O     O_R   0.388440 0.353740 0.492580 -0.628125
O3    O     O_R   0.643280 0.490550 0.663120 -0.601842
O4    O     O_R   0.451810 0.503220 0.650420 -0.625418
O5    O     O_R   0.611560 0.646260 0.507420 -0.613131
O6    O     O_R   0.420090 0.658930 0.494720 -0.589408
O7    O     O_R   0.548190 0.496780 0.349580 -0.596357
O8    O     O_R   0.356720 0.509450 0.336880 -0.601812
Zn1   Zn    Zn3+2 0.627850 0.491540 0.508480 0.954903
Zn2   Zn    Zn3+2 0.372150 0.508460 0.491520 0.953196

loop_
_geom_bond_atom_site_label_1
_geom_bond_atom_site_label_2
_ccdc_geom_bond_type
C26   C32   A    
C29   H6    S    
O2    Zn2   S    
N1    Zn1   S    
O1    Zn1   S    
C19   C20   A    
C4    O4    A    
C6    H19   S    
H8    N3    S    
C12   C23   A    
C16   O6    A    
C36   H1    S    
O8    Zn2   S    
C18   N2    A    
H18   N7    S    
C18   C19   A    
H17   N7    S    
C28   N5    S    
C21   N3    S    
O4    Zn2   S    
C8    C9    A    
C30   H5    S    
C9    C10   A    
C3    C13   A    
C13   C14   A    
C7    H20   S    
C15   C20   A    
H13   N5    S    
C16   O5    A    
H10   N4    S    
C5    C7    A    
C27   C35   A    
C1    O1    A    
C25   O7    A    
C2    C4    S    
C9    C14   A    
C6    C10   A    
C29   C30   A    
C8    H21   S    
C22   N1    A    
O7    Zn1   S    
C31   C32   A    
C24   H24   S    
C23   C34   A    
C33   C34   A    
H15   N6    S    
H14   N5    S    
C21   N1    A    
H16   N6    S    
C1    C5    S    
C26   C36   A    
C12   C31   A    
C22   C24   A    
C5    C8    A    
O3    Zn1   S    
C11   N7    S    
C15   C17   A    
C28   C29   A    
C12   C30   A    
C15   H23   S    
C34   N6    S    
C22   H22   S    
C13   H12   S    
C6    C7    A    
C27   C36   A    
C25   C27   S    
H9    N3    S    
C17   N4    S    
C1    O2    A    
C25   O8    A    
C32   C33   A    
C19   C24   A    
C18   H2    S    
C17   N2    A    
C35   H4    S    
C31   C35   A    
C26   H3    S    
C3    C11   A    
C10   C11   A    
C20   C21   A    
C33   H25   S    
O6    Zn2   S    
C2    C23   A    
O5    Zn1   S    
C2    C28   A    
H11   N4    S    
C4    O3    A    
C3    C16   S    
C14   H7    S    
N2    Zn2   S    
