data_mof_unit_53103.cif
_audit_creation_date              2012-12-10T18:29:40-0500
_audit_creation_method            fapswitch 2.2
_symmetry_space_group_name_H-M    P1
_symmetry_Int_Tables_number       1
_space_group_crystal_system       triclinic
_cell_length_a                    11.546472
_cell_length_b                    15.028711
_cell_length_c                    15.588704
_cell_angle_alpha                 81.567946
_cell_angle_beta                  91.208417
_cell_angle_gamma                 103.464803
_cell_volume                      2602.05488807

loop_
_atom_site_label
_atom_site_type_symbol
_atom_type_description
_atom_site_fract_x
_atom_site_fract_y
_atom_site_fract_z
_atom_type_partial_charge
C1    C     C_R   0.482934 0.441282 0.661843 0.880723
C2    C     C_R   0.546810 0.675334 0.974364 -0.056631
C3    C     C_R   0.677159 0.838227 0.643161 0.001131
C4    C     C_R   0.301300 0.149916 0.380198 0.057864
C5    C     C_R   0.654304 0.753215 0.611536 0.086147
C6    C     C_R   0.348760 0.243754 0.386800 0.093706
C7    C     C_R   0.508333 0.796549 0.515307 0.044311
C8    C     C_R   0.486011 0.204102 0.493376 0.043687
C9    C     C_R   0.517982 0.880030 0.551719 -0.021671
C10   C     C_R   0.435668 0.107595 0.493839 -0.051181
C11   C     C_R   0.603056 0.900392 0.618066 0.027014
C12   C     C_R   0.517904 0.558568 0.338163 0.881530
C13   C     C_R   0.335856 0.081175 0.440383 0.054138
C14   C     C_R   0.448261 0.945133 0.522654 0.119518
C15   C     C_R   0.482459 0.036055 0.542796 0.088150
C16   C     C_R   0.717668 0.500581 0.500268 0.884952
C17   C     C_R   0.282328 0.499416 0.499755 0.889190
C18   C     C_R   0.553201 0.049511 0.615807 -0.205583
C19   C     C_R   0.337638 0.919728 0.483304 -0.207000
C20   C     C_R   0.612077 0.983463 0.654251 0.021769
C21   C     C_R   0.278006 0.986043 0.446377 -0.004554
C22   C     C_1   0.838692 0.501560 0.500536 -0.129271
C23   C     C_R   0.444369 0.346863 0.935059 0.067631
C24   C     C_1   0.161293 0.498435 0.499554 -0.175439
C25   C     C_1   0.940787 0.500811 0.500317 0.039525
C26   C     C_1   0.059197 0.499193 0.499818 0.019644
C27   C     C_R   0.469626 0.404070 0.754547 -0.100032
C28   C     C_R   0.532079 0.594849 0.245328 -0.076490
C29   C     C_R   0.400801 0.282407 0.876294 0.082291
C30   C     C_R   0.603392 0.714098 0.122149 0.078715
C31   C     C_R   0.412382 0.311946 0.786152 0.095320
C32   C     C_R   0.594080 0.685529 0.212913 0.040374
C33   C     C_R   0.509035 0.465956 0.812289 -0.287500
C34   C     C_R   0.554158 0.649948 0.064937 0.128213
C35   C     C_R   0.489255 0.532679 0.188236 -0.290715
C36   C     C_R   0.484783 0.441979 0.900729 0.065850
C37   C     C_R   0.512087 0.555393 0.099677 0.047020
C38   C     C_2   0.443859 0.226711 0.069421 0.381060
C39   C     C_2   0.550991 0.770799 0.931731 0.506870
C40   C     C_2   0.677798 0.005731 0.733397 0.347042
C41   C     C_2   0.152161 0.951772 0.423399 0.377502
C42   C     C_2   0.601256 0.238764 0.533059 0.460816
C43   C     C_2   0.453641 0.783570 0.429962 0.413937
C44   C     C_2   0.304690 0.315265 0.327780 0.419788
C45   C     C_R   0.501920 0.511562 0.955130 0.100699
C46   C     C_2   0.732197 0.689456 0.639695 0.509376
C47   C     C_R   0.492498 0.485553 0.045412 0.072263
C48   C     C_R   0.472202 0.390630 0.079311 -0.231186
C49   C     C_R   0.520890 0.606473 0.921243 -0.321612
C50   C     C_R   0.448103 0.321764 0.026100 -0.021057
H1    H     H_    0.556622 0.108974 0.648042 0.117367
H2    H     H_    0.741489 0.765045 0.259862 0.184406
H3    H     H_    0.273140 0.224421 0.738767 0.213638
H4    H     H_    0.404494 0.192063 0.738946 0.194776
H5    H     H_    0.271868 0.191750 0.954435 0.193306
H6    H     H_    0.386083 0.146138 0.923888 0.258243
H7    H     H_    0.637708 0.854146 0.111980 0.237380
H8    H     H_    0.760460 0.810242 0.109895 0.179191
H9    H     H_    0.755955 0.062680 0.729041 0.089549
H10   H     H_    0.125904 0.888806 0.394366 0.079983
H11   H     H_    0.606473 0.279133 0.585728 0.078543
H12   H     H_    0.292940 0.847450 0.486601 0.123867
H13   H     H_    0.399235 0.717607 0.418953 0.112787
H14   H     H_    0.293021 0.377278 0.349150 0.121986
H15   H     H_    0.696243 0.620021 0.671281 0.058682
H16   H     H_    0.752932 0.855706 0.761242 0.206350
H17   H     H_    0.831993 0.925512 0.673331 0.214978
H18   H     H_    0.137523 0.113280 0.325391 0.252178
H19   H     H_    0.247360 0.071008 0.282991 0.186512
H20   H     H_    0.436562 0.465544 0.214006 0.196932
H21   H     H_    0.560240 0.533990 0.786997 0.156489
H22   H     H_    0.481761 0.368145 0.147602 0.174369
H23   H     H_    0.509778 0.628920 0.853126 0.139940
H24   H     H_    0.388683 0.198972 0.127095 0.112973
H25   H     H_    0.584825 0.792038 0.865770 0.080978
H26   H     H_    0.617227 0.807097 0.260322 0.238844
N1    N     N_R   0.566020 0.731700 0.552730 -0.188153
N2    N     N_R   0.433980 0.268300 0.447270 -0.187372
N3    N     N_3   0.649662 0.747171 0.271746 -0.409235
N4    N     N_3   0.364709 0.248386 0.726929 -0.429905
N5    N     N_3   0.330568 0.190874 0.904599 -0.464144
N6    N     N_3   0.673015 0.804274 0.088419 -0.415329
N7    N     N_3   0.779498 0.860209 0.696943 -0.409992
N8    N     N_3   0.227155 0.126768 0.307598 -0.395539
O1    O     O_R   0.466720 0.383110 0.605620 -0.610134
O2    O     O_2   0.508090 0.823553 0.966625 -0.505636
O3    O     O_2   0.640308 0.964769 0.804362 -0.547051
O4    O     O_2   0.075537 0.989423 0.442887 -0.547405
O5    O     O_2   0.691730 0.221794 0.507210 -0.555698
O6    O     O_2   0.471571 0.847143 0.369697 -0.581431
O7    O     O_2   0.279836 0.305567 0.252667 -0.603171
O8    O     O_2   0.839851 0.715098 0.628305 -0.547242
O9    O     O_R   0.533280 0.616890 0.394380 -0.599777
O10   O     O_R   0.509090 0.531900 0.639510 -0.652345
O11   O     O_R   0.490910 0.468100 0.360490 -0.648224
O12   O     O_R   0.644370 0.425610 0.483050 -0.611555
O13   O     O_R   0.355630 0.574390 0.516950 -0.636592
O14   O     O_R   0.686740 0.574390 0.516930 -0.611194
O15   O     O_R   0.313260 0.425610 0.483070 -0.634986
O16   O     O_2   0.509377 0.181857 0.045453 -0.540766
Zn1   Zn    Zn3+2 0.471710 0.400660 0.477370 0.940379
Zn2   Zn    Zn3+2 0.528290 0.599340 0.522630 0.940405

loop_
_geom_bond_atom_site_label_1
_geom_bond_atom_site_label_2
_ccdc_geom_bond_type
C15   C18   A    
H17   N7    S    
C34   C37   A    
H26   N3    S    
C43   H13   S    
H6    N5    S    
C27   C33   A    
C12   C28   S    
C23   C29   A    
C40   O3    D    
C35   C37   A    
C24   C26   T    
C10   C15   A    
H8    N6    S    
C20   C40   S    
C6    N2    A    
C46   O8    D    
C19   H12   S    
C33   C36   A    
C4    C13   A    
H16   N7    S    
C2    C39   S    
C35   H20   S    
C1    O10   A    
C22   C25   T    
C12   O11   A    
C7    C43   S    
H5    N5    S    
H2    N3    S    
O13   Zn2   S    
C7    N1    A    
C2    C34   A    
C48   C50   A    
C40   H9    S    
C6    C44   S    
O12   Zn1   S    
N2    Zn1   S    
C8    N2    A    
N1    Zn2   S    
C48   H22   S    
C28   C32   A    
C18   H1    S    
H4    N4    S    
C45   C47   A    
C1    O1    A    
C11   C20   A    
C16   O12   A    
C17   C24   S    
C30   C34   A    
C27   C31   A    
C43   O6    D    
C31   N4    S    
H3    N4    S    
C28   C35   A    
C46   H15   S    
C38   O16   D    
C23   C50   A    
C25   C26   S    
O14   Zn2   S    
C44   H14   S    
H18   N8    S    
C30   N6    S    
C9    C14   A    
C29   N5    S    
C2    C49   A    
C9    C11   A    
C47   C48   A    
C4    N8    S    
C45   C49   A    
C13   C21   A    
C36   C45   A    
C17   O15   A    
C42   H11   S    
C44   O7    D    
C21   C41   S    
C4    C6    A    
O15   Zn1   S    
C39   H25   S    
C3    N7    S    
C49   H23   S    
C12   O9    A    
C37   C47   A    
C5    N1    A    
O1    Zn1   S    
C38   H24   S    
C7    C9    A    
C41   O4    D    
C16   C22   S    
C19   C21   A    
C14   C15   A    
C14   C19   A    
C41   H10   S    
C8    C42   S    
C3    C5    A    
C10   C13   A    
O9    Zn2   S    
C38   C50   S    
C5    C46   S    
C42   O5    D    
C29   C31   A    
H19   N8    S    
C32   N3    S    
C30   C32   A    
C16   O14   A    
C18   C20   A    
C3    C11   A    
C33   H21   S    
O10   Zn2   S    
C8    C10   A    
C23   C36   A    
C1    C27   S    
H7    N6    S    
C39   O2    D    
C17   O13   A    
O11   Zn1   S    
