data_mof_unit_48073.cif
_audit_creation_date              2013-03-05T15:47:55-0500
_audit_creation_method            fapswitch 2.2
_symmetry_space_group_name_H-M    P1
_symmetry_Int_Tables_number       1
_space_group_crystal_system       triclinic
_cell_length_a                    11.665424
_cell_length_b                    13.044072
_cell_length_c                    13.343256
_cell_angle_alpha                 92.115898
_cell_angle_beta                  76.717684
_cell_angle_gamma                 99.689651
_cell_volume                      1947.86491864

loop_
_atom_site_label
_atom_site_type_symbol
_atom_site_description
_atom_site_fract_x
_atom_site_fract_y
_atom_site_fract_z
_atom_type_partial_charge
O1    O     O_R   0.419710 0.645650 0.494620 -0.540137
O2    O     O_R   0.611450 0.658430 0.507430 -0.598340
C1    C     C_R   0.521151 0.700904 0.499248 0.833546
O3    O     O_R   0.357340 0.490460 0.641450 -0.589772
O4    O     O_R   0.549080 0.503250 0.654260 -0.595553
C2    C     C_R   0.437098 0.502480 0.696463 0.812470
Cu1   Cu    Cu3+1 0.386470 0.492430 0.492410 1.040251
Cu2   Cu    Cu3+1 0.613530 0.507570 0.507590 0.984131
O5    O     O_R   0.388550 0.341570 0.492570 -0.545714
O6    O     O_R   0.580290 0.354350 0.505380 -0.604550
O7    O     O_R   0.450920 0.496750 0.345740 -0.537586
O8    O     O_R   0.642660 0.509540 0.358550 -0.534559
C3    C     C_R   0.479354 0.299439 0.498487 0.809237
C4    C     C_R   0.564192 0.508118 0.303348 0.840466
C5    C     C_R   0.743155 0.614999 0.042258 -0.219320
H1    H     H_    0.766763 0.677845 0.849562 0.190620
H2    H     H_    0.833524 0.649318 0.004938 0.200634
C6    C     C_R   0.602216 0.531585 0.191757 -0.192565
C7    C     C_R   0.280375 0.473905 0.858068 -0.324914
C8    C     C_R   0.239317 0.482162 0.964661 0.442040
C9    C     C_R   0.318931 0.526911 0.025370 0.182550
C10   C     C_R   0.443287 0.548303 0.979129 -0.074794
C11   C     C_R   0.478990 0.557899 0.870732 0.047912
C12   C     C_R   0.534146 0.560348 0.035990 0.136713
C13   C     C_R   0.652249 0.605259 0.988197 0.084773
C14   C     C_R   0.678491 0.638011 0.885970 -0.181953
C15   C     C_R   0.592941 0.614140 0.827751 -0.143793
C16   C     C_R   0.512497 0.520660 0.135954 -0.213649
C17   C     C_R   0.719920 0.577748 0.143226 0.318328
C18   C     C_R   0.398829 0.513310 0.809590 -0.154521
H3    H     H_    0.425019 0.479507 0.171111 0.172443
H4    H     H_    0.217629 0.439680 0.812767 0.188040
H5    H     H_    0.616022 0.642545 0.749824 0.151946
C19   C     C_R   0.468660 0.186805 0.494063 -0.048675
C20   C     C_R   0.531852 0.814414 0.498522 -0.157448
C21   C     C_R   0.634604 0.982303 0.539753 -0.187609
C22   C     C_R   0.626385 0.875005 0.533163 -0.211109
C23   C     C_R   0.445370 0.862760 0.467934 0.272143
C24   C     C_R   0.451973 0.970846 0.477167 0.064705
C25   C     C_R   0.547689 0.030565 0.512875 0.121169
C26   C     C_R   0.555793 0.138175 0.520360 -0.231090
C27   C     C_R   0.372948 0.127697 0.460577 -0.207462
C28   C     C_R   0.365486 0.020923 0.450538 -0.133223
H6    H     H_    0.629770 0.183922 0.546829 0.149251
H7    H     H_    0.304615 0.164194 0.440528 0.200892
H8    H     H_    0.708256 0.027473 0.567008 0.156098
H9    H     H_    0.291629 0.978676 0.421809 0.203120
H10   H     H_    0.693297 0.839243 0.556866 0.189532
N1    N     N_R   0.215880 0.481050 0.481000 -0.234047
N2    N     N_R   0.784100 0.518950 0.519000 -0.206771
C29   C     C_R   0.948509 0.607018 0.588571 0.261725
C30   C     C_R   0.829863 0.596363 0.577111 0.007956
C31   C     C_R   0.854582 0.451907 0.466835 0.113625
C32   C     C_R   0.975481 0.461243 0.472074 -0.034208
C33   C     C_R   0.023704 0.539051 0.533814 -0.054827
C34   C     C_R   0.145790 0.546972 0.536628 0.068672
C35   C     C_R   0.170727 0.406096 0.419032 0.711984
C36   C     C_R   0.048390 0.394145 0.416389 -0.338260
H11   H     H_    0.186345 0.605788 0.582529 0.208087
H12   H     H_    0.009160 0.332664 0.372008 0.140765
H13   H     H_    0.773546 0.650062 0.615876 0.139107
H14   H     H_    0.817064 0.392029 0.419698 0.140369
N3    N     N_R   0.816993 0.587052 0.193973 0.153047
O9    O     O_R   0.847714 0.503614 0.223183 -0.347049
O10   O     O_R   0.890085 0.674702 0.190082 -0.294114
N4    N     N_R   0.353731 0.803170 0.424277 0.117181
O11   O     O_R   0.381809 0.759972 0.334547 -0.284589
O12   O     O_R   0.242707 0.790859 0.474647 -0.337899
O13   O     O_3   0.244691 0.337552 0.368846 -0.575434
C37   C     C_3   0.225265 0.304896 0.270714 0.007396
H15   H     H_    0.313616 0.310898 0.216111 0.164999
H16   H     H_    0.173944 0.353717 0.237583 0.175888
C38   C     C_3   0.166079 0.191153 0.273931 -0.818706
H17   H     H_    0.083090 0.177810 0.335497 0.247862
H18   H     H_    0.143510 0.169138 0.198715 0.221496
H19   H     H_    0.228076 0.140507 0.288438 0.255029
N5    N     N_R   0.989384 0.686099 0.655980 0.119770
O14   O     O_R   0.954822 0.776269 0.660258 -0.350694
O15   O     O_R   0.041294 0.662250 0.726407 -0.368716
N6    N     N_R   0.272808 0.566902 0.126373 0.131834
O16   O     O_R   0.166365 0.530191 0.179299 -0.294528
O17   O     O_R   0.328448 0.652801 0.157389 -0.268998
O18   O     O_3   0.119201 0.453098 0.008553 -0.500543
C39   C     C_3   0.093377 0.343483 0.016109 0.062372
H20   H     H_    0.160535 0.311103 0.047728 0.108273
H21   H     H_    0.090365 0.308702 0.939160 0.141081
C40   C     C_3   0.971977 0.311680 0.088427 -0.664168
H22   H     H_    0.902293 0.343063 0.060227 0.260443
H23   H     H_    0.949188 0.225548 0.092278 0.181940
H24   H     H_    0.974085 0.341987 0.166975 0.267975

loop_
_geom_bond_atom_site_label_1
_geom_bond_atom_site_label_2
_geom_bond_distance
_ccdc_geom_bond_type
N4    O12   1.301107 A    
C40   H22   1.110807 S    
C17   N3    1.433718 S    
C38   H17   1.109395 S    
C4    C6    1.480547 S    
C7    C8    1.398912 A    
C19   C27   1.398116 A    
C39   C40   1.520746 S    
C33   C34   1.419555 A    
N3    O10   1.301061 A    
Cu1   Cu2   2.676452 S    
N5    O14   1.301279 A    
C15   H5    1.075719 S    
Cu1   O7    1.927766 S    
C14   C15   1.389307 A    
C21   C22   1.387600 A    
C20   C22   1.402936 A    
C39   H21   1.112700 S    
C30   H13   1.077859 S    
O4    C2    1.296794 A    
O7    C4    1.297982 A    
C5    C13   1.400151 A    
C36   H12   1.081282 S    
N1    C35   1.372626 A    
C5    H2    1.084475 S    
O5    C3    1.291463 A    
C23   N4    1.435017 S    
N2    C30   1.362650 A    
C21   H8    1.083954 S    
C37   H15   1.109597 S    
C11   C15   1.409462 A    
N4    O11   1.300163 A    
C9    C10   1.424127 A    
C38   H18   1.110726 S    
C19   C26   1.398570 A    
O3    Cu1   1.939405 S    
C7    H4    1.083433 S    
C5    C17   1.400301 A    
N5    O15   1.301159 A    
H1    C14   1.083967 S    
N2    C31   1.363602 A    
C29   C30   1.410405 A    
C11   C18   1.418005 A    
C21   C25   1.396982 A    
C20   C23   1.415780 A    
C6    C16   1.403632 A    
C12   C13   1.414269 A    
Cu1   N1    2.010831 S    
O3    C2    1.298187 A    
C24   C25   1.415913 A    
C24   C28   1.405184 A    
C13   C14   1.394264 A    
C31   C32   1.412666 A    
O1    C1    1.291043 A    
C27   H7    1.081091 S    
C29   N5    1.436476 S    
C31   H14   1.082742 S    
O18   C39   1.413155 S    
C1    C20   1.465012 S    
Cu2   O8    1.939405 S    
C37   C38   1.525152 S    
C6    C17   1.417447 A    
C39   H20   1.116500 S    
C22   H10   1.083430 S    
N6    O17   1.300926 A    
C25   C26   1.392303 A    
C2    C18   1.481095 S    
O8    C4    1.297627 A    
C40   H23   1.110419 S    
C38   H19   1.109751 S    
C10   C12   1.424219 A    
C40   H24   1.110565 S    
C27   C28   1.384227 A    
Cu2   N2    2.010599 S    
C32   C36   1.397730 A    
Cu1   O5    1.972145 S    
C32   C33   1.408626 A    
O1    Cu1   1.971219 S    
C16   H3    1.078796 S    
O2    Cu2   1.972142 S    
C12   C16   1.401106 A    
N6    O16   1.300671 A    
O6    C3    1.291864 A    
O4    Cu2   1.927766 S    
N1    C34   1.367319 A    
C34   H11   1.078792 S    
O2    C1    1.297005 A    
C3    C19   1.453588 S    
C35   C36   1.417759 A    
C23   C24   1.401380 A    
C9    N6    1.444747 S    
C26   H6    1.084760 S    
C29   C33   1.417289 A    
O13   C37   1.417738 S    
N3    O9    1.300659 A    
C8    C9    1.409875 A    
Cu2   O6    1.971221 S    
C8    O18   1.382243 S    
C10   C11   1.414255 A    
C37   H16   1.109117 S    
C35   O13   1.393658 S    
C7    C18   1.402421 A    
C28   H9    1.081327 S    
