data_mof_unit_21835.cif
_audit_creation_date              2012-12-11T14:17:52-0500
_audit_creation_method            fapswitch 2.2
_symmetry_space_group_name_H-M    P1
_symmetry_Int_Tables_number       1
_space_group_crystal_system       triclinic
_cell_length_a                    11.12717
_cell_length_b                    11.127176
_cell_length_c                    18.732067
_cell_angle_alpha                 90.000838
_cell_angle_beta                  89.997021
_cell_angle_gamma                 120.000961
_cell_volume                      2008.54612051

loop_
_atom_site_label
_atom_site_type_symbol
_atom_type_description
_atom_site_fract_x
_atom_site_fract_y
_atom_site_fract_z
_atom_type_partial_charge
C1    C     C_R   0.521481 0.453036 0.145645 0.528727
C2    C     C_R   0.005079 0.394121 0.537316 -0.143237
C3    C     C_R   0.389001 0.994784 0.537286 -0.143227
C4    C     C_R   0.605878 0.610939 0.537320 -0.143210
C5    C     C_R   0.745512 0.061410 0.567118 -0.080673
C6    C     C_R   0.938175 0.683771 0.567282 -0.080672
C7    C     C_R   0.316209 0.254363 0.567279 -0.080639
C8    C     C_R   0.061622 0.745578 0.432748 -0.080178
C9    C     C_R   0.683637 0.937928 0.432591 -0.080138
C10   C     C_R   0.254390 0.316062 0.432761 -0.080176
C11   C     C_R   0.838986 0.034693 0.532484 -0.142807
C12   C     C_R   0.546965 0.068442 0.145646 0.528709
C13   C     C_R   0.964968 0.804050 0.532731 -0.142650
C14   C     C_R   0.195917 0.160878 0.532732 -0.142679
C15   C     C_R   0.034756 0.838991 0.467324 -0.141991
C16   C     C_R   0.804016 0.964877 0.467083 -0.141864
C17   C     C_R   0.160962 0.195778 0.467338 -0.142043
C18   C     C_R   0.518107 0.458779 0.353310 0.534207
C19   C     C_R   0.541189 0.059287 0.353291 0.534240
C20   C     C_R   0.940667 0.481890 0.353310 0.534220
C21   C     C_R   0.458780 0.518117 0.646685 0.536705
C22   C     C_R   0.059349 0.541224 0.646681 0.536715
C23   C     C_R   0.931568 0.478525 0.145648 0.528717
C24   C     C_R   0.481833 0.940528 0.646649 0.536852
C25   C     C_R   0.493621 0.004523 0.922457 -0.005009
C26   C     C_R   0.995470 0.489095 0.922456 -0.004999
C27   C     C_R   0.510904 0.506370 0.922453 -0.005003
C28   C     C_R   0.968487 0.490769 0.070521 0.009700
C29   C     C_R   0.522292 0.031519 0.070520 0.009710
C30   C     C_R   0.509240 0.477708 0.070517 0.009699
C31   C     C_R   0.374888 0.969251 0.966119 -0.030189
C32   C     C_R   0.030729 0.405620 0.966110 -0.030181
C33   C     C_R   0.594376 0.625104 0.966109 -0.030180
C34   C     C_R   0.459773 0.520689 0.852380 0.543273
C35   C     C_R   0.030430 0.418723 0.040952 -0.041104
C36   C     C_R   0.388300 0.969555 0.040959 -0.041101
C37   C     C_R   0.581271 0.611698 0.040950 -0.041103
C38   C     C_R   0.639269 0.091803 0.025558 -0.105977
C39   C     C_R   0.908214 0.547479 0.025566 -0.106003
C40   C     C_R   0.452533 0.360724 0.025560 -0.105998
C41   C     C_R   0.924295 0.549272 0.952472 -0.148083
C42   C     C_R   0.624976 0.075717 0.952464 -0.148053
C43   C     C_R   0.450730 0.375013 0.952466 -0.148058
C44   C     C_R   0.244155 0.935882 0.938015 -0.102621
C45   C     C_R   0.060915 0.540226 0.852380 0.543273
C46   C     C_R   0.064089 0.308254 0.937996 -0.102609
C47   C     C_R   0.691741 0.755835 0.937997 -0.102622
C48   C     C_R   0.085912 0.354246 0.084242 -0.141027
C49   C     C_R   0.268346 0.914061 0.084258 -0.141035
C50   C     C_R   0.645726 0.731657 0.084242 -0.141017
C51   C     C_R   0.126690 0.886834 0.981622 0.372978
C52   C     C_R   0.113144 0.239836 0.981592 0.372993
C53   C     C_R   0.760142 0.873308 0.981596 0.372991
C54   C     C_R   0.122606 0.261335 0.055046 0.348467
C55   C     C_R   0.138735 0.877363 0.055074 0.348442
C56   C     C_R   0.479308 0.939082 0.852381 0.543301
C57   C     C_R   0.738629 0.861267 0.055049 0.348478
C58   C     C_R   0.502051 0.002291 0.574963 -0.014981
C59   C     C_R   0.997484 0.499590 0.575023 -0.015000
C60   C     C_R   0.500412 0.497871 0.575028 -0.015031
C61   C     C_R   0.002530 0.502139 0.424967 -0.015539
C62   C     C_R   0.499467 0.997268 0.424909 -0.015581
C63   C     C_R   0.497858 0.500381 0.424972 -0.015568
C64   C     C_R   0.616411 0.019342 0.535777 0.044558
C65   C     C_R   0.980257 0.596803 0.535878 0.044526
C66   C     C_R   0.403187 0.383422 0.535878 0.044541
C67   C     C_R   0.394017 0.004879 0.462629 -0.143370
C68   C     C_R   0.019652 0.616530 0.464132 0.044370
C69   C     C_R   0.596642 0.979941 0.464034 0.044322
C70   C     C_R   0.383452 0.403110 0.464138 0.044384
C71   C     C_R   0.995016 0.389101 0.462658 -0.143372
C72   C     C_R   0.610916 0.605882 0.462664 -0.143332
Cr1   Cr    Cr6+3 0.768550 0.541320 0.250660 1.010200
Cr2   Cr    Cr6+3 0.458680 0.227230 0.250660 1.010205
Cr3   Cr    Cr6+3 0.772770 0.231450 0.250660 1.010224
Cr4   Cr    Cr6+3 0.541320 0.768550 0.749340 0.992509
Cr5   Cr    Cr6+3 0.227230 0.458680 0.749340 0.992543
Cr6   Cr    Cr6+3 0.231450 0.772770 0.749340 0.992528
H1    H     H_    0.772145 0.110346 0.619193 0.119302
H2    H     H_    0.884577 0.601132 0.919241 0.154634
H3    H     H_    0.716550 0.115447 0.919227 0.154657
H4    H     H_    0.398876 0.283436 0.919233 0.154656
H5    H     H_    0.232322 0.957882 0.883265 0.129410
H6    H     H_    0.042083 0.274425 0.883247 0.129394
H7    H     H_    0.725580 0.767660 0.883247 0.129370
H8    H     H_    0.099317 0.373528 0.141040 0.111270
H9    H     H_    0.274233 0.900657 0.141055 0.111262
H10   H     H_    0.626431 0.725775 0.141041 0.111258
H11   H     H_    0.006307 0.861761 0.900954 0.291848
H12   H     H_    0.889293 0.661397 0.619370 0.119227
H13   H     H_    0.138238 0.144558 0.900909 0.291833
H14   H     H_    0.855457 0.993683 0.900919 0.291848
H15   H     H_    0.153390 0.204649 0.148256 0.315327
H16   H     H_    0.051270 0.846546 0.148293 0.315326
H17   H     H_    0.795294 0.948747 0.148260 0.315353
H18   H     H_    0.317203 0.019318 0.434655 0.145035
H19   H     H_    0.980720 0.297930 0.434655 0.144982
H20   H     H_    0.702116 0.682726 0.434663 0.145063
H21   H     H_    0.019434 0.317267 0.565304 0.144859
H22   H     H_    0.297840 0.980510 0.565299 0.144896
H23   H     H_    0.338583 0.227843 0.619366 0.119208
H24   H     H_    0.682712 0.702162 0.565308 0.144909
H25   H     H_    0.935000 0.064907 0.558847 0.100646
H26   H     H_    0.934848 0.869845 0.559154 0.100668
H27   H     H_    0.130109 0.064949 0.559168 0.100640
H28   H     H_    0.064816 0.934920 0.440915 0.101582
H29   H     H_    0.869866 0.934865 0.440614 0.101572
H30   H     H_    0.065002 0.129963 0.440942 0.101591
H31   H     H_    0.110511 0.772164 0.380660 0.119207
H32   H     H_    0.661245 0.889067 0.380495 0.119113
H33   H     H_    0.227809 0.338392 0.380679 0.119177
H34   H     H_    0.743267 0.151782 0.046971 0.201039
H35   H     H_    0.848251 0.591516 0.046986 0.201061
H36   H     H_    0.408511 0.256726 0.046977 0.201021
O1    O     O_R   0.910960 0.572410 0.171010 -0.513570
O2    O     O_R   0.528530 0.639750 0.824400 -0.519503
O3    O     O_R   0.111220 0.471470 0.824400 -0.519504
O4    O     O_R   0.360250 0.888780 0.824400 -0.519492
O5    O     O_R   0.909330 0.572400 0.331540 -0.521250
O6    O     O_R   0.427600 0.336930 0.331540 -0.521208
O7    O     O_R   0.663070 0.090670 0.331540 -0.521155
O8    O     O_R   0.572400 0.909330 0.668460 -0.521571
O9    O     O_R   0.336930 0.427600 0.668460 -0.521429
O10   O     O_R   0.090670 0.663070 0.668460 -0.521461
O11   O     O_R   0.638240 0.528520 0.324410 -0.503154
O12   O     O_R   0.427590 0.338550 0.171010 -0.513580
O13   O     O_R   0.471480 0.109720 0.324410 -0.503154
O14   O     O_R   0.890280 0.361760 0.324410 -0.503122
O15   O     O_R   0.528520 0.638240 0.675590 -0.503489
O16   O     O_R   0.109720 0.471480 0.675590 -0.503449
O17   O     O_R   0.361760 0.890280 0.675590 -0.503502
O18   O     O_3   0.666667 0.333333 0.250630 -0.250695
O19   O     O_3   0.333333 0.666667 0.749370 -0.235795
O20   O     O_3   0.999200 0.852281 0.953661 -0.651988
O21   O     O_3   0.147714 0.146919 0.953615 -0.652023
O22   O     O_3   0.853054 0.000798 0.953624 -0.652041
O23   O     O_R   0.661450 0.089040 0.171010 -0.513577
O24   O     O_3   0.161440 0.185023 0.097392 -0.628661
O25   O     O_3   0.023591 0.838516 0.097431 -0.628690
O26   O     O_3   0.814911 0.976419 0.097398 -0.628706
O27   O     O_R   0.572410 0.910960 0.828990 -0.529211
O28   O     O_R   0.338550 0.427590 0.828990 -0.529241
O29   O     O_R   0.089040 0.661450 0.828990 -0.529245
O30   O     O_R   0.639750 0.528530 0.175600 -0.508708
O31   O     O_R   0.471470 0.111220 0.175600 -0.508732
O32   O     O_R   0.888780 0.360250 0.175600 -0.508714

loop_
_geom_bond_atom_site_label_1
_geom_bond_atom_site_label_2
_ccdc_geom_bond_type
C25   C31   A    
C26   C32   A    
Cr1   O5    S    
Cr2   O18   S    
C12   C29   S    
C19   O7    A    
C49   H9    S    
Cr2   O31   S    
C61   C68   A    
C25   C56   S    
C44   H5    S    
C41   H2    S    
C39   C41   A    
C72   H20   S    
C27   C33   A    
C48   C54   A    
C71   H19   S    
C29   C36   A    
H17   O26   S    
C54   O24   S    
C62   C67   A    
C47   H7    S    
C15   H28   S    
Cr6   O4    S    
C9    C16   A    
C9    C69   A    
C20   O14   A    
Cr5   O3    S    
C31   C36   A    
C18   O11   A    
C51   O20   S    
C18   C63   S    
C19   C62   S    
C34   O2    A    
C46   C52   A    
C57   O26   S    
C55   O25   S    
Cr3   O14   S    
Cr4   O15   S    
C20   C61   S    
Cr5   O28   S    
H15   O24   S    
C14   H27   S    
C26   C45   S    
C3    H22   S    
C7    C14   A    
C40   H36   S    
C28   C35   A    
C39   H35   S    
C4    H24   S    
C29   C38   A    
C5    H1    S    
Cr6   O10   S    
C16   H29   S    
C50   H10   S    
C47   C53   A    
Cr4   O27   S    
C61   C71   A    
Cr1   O18   S    
C60   C66   A    
Cr3   O32   S    
C22   O16   A    
H16   O25   S    
C14   C17   A    
H14   O22   S    
C42   H3    S    
Cr5   O19   S    
C35   C48   A    
C52   C54   A    
C6    C65   A    
C27   C34   S    
C58   C64   A    
C23   O32   A    
C31   C44   A    
C32   C35   A    
C1    O12   A    
C21   C60   S    
Cr3   O23   S    
C17   H30   S    
C22   C59   S    
C53   C57   A    
C2    C59   A    
C28   C39   A    
C6    H12   S    
C33   C37   A    
C30   C37   A    
C12   O31   A    
C21   O9    A    
Cr6   O17   S    
C3    C58   A    
Cr5   O9    S    
C27   C43   A    
C11   C16   A    
Cr2   O13   S    
C63   C70   A    
C65   C68   A    
C4    C60   A    
C24   O8    A    
C30   C40   A    
C10   H33   S    
C64   C69   A    
C13   H26   S    
C21   O15   A    
C46   H6    S    
C56   O27   A    
C10   C70   A    
C44   C51   A    
C2    H21   S    
C8    C68   A    
C8    C15   A    
C13   C15   A    
C5    C11   A    
C67   H18   S    
C33   C47   A    
C48   H8    S    
C23   C28   S    
C38   H34   S    
C2    C71   A    
C18   O6    A    
C4    C72   A    
Cr3   O18   S    
C45   O3    A    
C9    H32   S    
C43   H4    S    
C34   O28   A    
H11   O20   S    
Cr3   O7    S    
C50   C57   A    
C32   C46   A    
C3    C67   A    
C25   C42   A    
Cr4   O19   S    
C22   O10   A    
Cr2   O6    S    
C66   C70   A    
Cr1   O1    S    
C5    C64   A    
Cr4   O8    S    
C40   C43   A    
C1    O30   A    
C49   C55   A    
Cr6   O29   S    
C59   C65   A    
C7    C66   A    
C56   O4    A    
C37   C50   A    
C24   O17   A    
Cr2   O12   S    
Cr1   O11   S    
C19   O13   A    
C1    C30   S    
Cr4   O2    S    
C51   C55   A    
Cr5   O16   S    
Cr6   O19   S    
C23   O1    A    
C38   C42   A    
C53   O22   S    
H13   O21   S    
C63   C72   A    
C62   C69   A    
C24   C58   S    
C7    H23   S    
C45   O29   A    
C52   O21   S    
C12   O23   A    
C11   H25   S    
C10   C17   A    
C8    H31   S    
C20   O5    A    
C36   C49   A    
C26   C41   A    
C6    C13   A    
Cr1   O30   S    
