data_mof_unit_60714.cif
_audit_creation_date              2012-12-11T17:11:11-0500
_audit_creation_method            fapswitch 2.2
_symmetry_space_group_name_H-M    P1
_symmetry_Int_Tables_number       1
_space_group_crystal_system       triclinic
_cell_length_a                    8.276817
_cell_length_b                    16.466283
_cell_length_c                    16.384825
_cell_angle_alpha                 108.414609
_cell_angle_beta                  92.762847
_cell_angle_gamma                 82.369884
_cell_volume                      2099.91305909

loop_
_atom_site_label
_atom_site_type_symbol
_atom_type_description
_atom_site_fract_x
_atom_site_fract_y
_atom_site_fract_z
_atom_type_partial_charge
Ba1   Ba    Ba6+2 0.642070 0.542310 0.469620 1.704214
Ba2   Ba    Ba6+2 0.168110 0.457680 0.530320 1.681913
C1    C     C_3   0.764616 0.744826 0.201652 -0.388271
C2    C     C_3   0.788431 0.722191 0.284903 0.324755
C3    C     C_3   0.906505 0.728399 0.709673 0.630342
C4    C     C_3   0.801704 0.816126 0.738537 -0.363683
C5    C     C_3   0.476083 0.221871 0.662701 0.341449
C6    C     C_3   0.482826 0.132318 0.671713 -0.338540
C7    C     C_3   0.986436 0.266498 0.714560 0.358442
C8    C     C_3   0.007052 0.236347 0.793815 0.198666
C9    C     C_2   0.709961 0.248528 0.480836 -0.295560
C10   C     C_R   0.106815 0.750419 0.520701 0.184144
C11   C     C_2   0.538790 0.137962 0.403043 -0.135278
C12   C     C_3   0.320496 0.777376 0.331003 0.660840
C13   C     C_2   0.561762 0.221736 0.431497 0.056406
C14   C     C_2   0.820178 0.191392 0.502892 0.008097
C15   C     C_3   0.771486 0.104092 0.497300 -0.052742
C16   C     C_3   0.664759 0.068935 0.417976 0.009878
C17   C     C_2   0.907749 0.037021 0.505983 -0.057909
C18   C     C_2   0.873665 0.966624 0.523194 -0.052406
C19   C     C_R   0.145807 0.925154 0.579908 -0.010533
C20   C     C_R   0.002109 0.899846 0.535705 -0.074058
C21   C     C_R   0.265567 0.864487 0.597210 -0.194479
C22   C     C_R   0.245308 0.776966 0.568438 0.097259
C23   C     C_3   0.350873 0.866458 0.329499 -0.351361
C24   C     C_R   0.980789 0.811473 0.507759 0.046627
C25   C     C_R   0.110093 0.531699 0.273515 -0.265467
C26   C     C_R   0.977332 0.487883 0.239001 0.014024
C27   C     C_R   0.925266 0.480878 0.154504 -0.131734
C28   C     C_R   0.007862 0.517571 0.103825 0.240933
C29   C     C_R   0.145505 0.558727 0.139049 -0.180396
C30   C     C_R   0.197322 0.564870 0.223373 0.024565
C31   C     C_R   0.877164 0.511882 0.854676 -0.135645
C32   C     C_R   0.828838 0.507089 0.770482 -0.025354
C33   C     C_R   0.790749 0.474424 0.903222 0.244495
C34   C     C_3   0.343957 0.350055 0.262098 0.306310
C35   C     C_R   0.697562 0.463572 0.732976 -0.230827
C36   C     C_R   0.605022 0.430192 0.780777 0.022189
C37   C     C_R   0.652373 0.434723 0.865605 -0.174780
C38   C     C_3   0.330153 0.326203 0.164655 -0.382896
C39   C     C_3   0.491865 0.662393 0.744116 0.672044
C40   C     C_3   0.543168 0.702941 0.838103 -0.397401
C41   C     C_3   0.868175 0.281188 0.316391 0.310860
C42   C     C_3   0.891286 0.183719 0.275130 -0.384187
H1    H     H_    0.702222 0.676472 0.285156 0.101237
H2    H     H_    0.249879 0.274642 0.139743 0.129754
H3    H     H_    0.277972 0.383107 0.145601 0.058070
H4    H     H_    0.452735 0.302900 0.135389 0.129874
H5    H     H_    0.602200 0.638749 0.704254 -0.001257
H6    H     H_    0.613324 0.757398 0.844572 0.113113
H7    H     H_    0.618980 0.654177 0.861791 0.082729
H8    H     H_    0.434085 0.728473 0.879723 0.094575
H9    H     H_    0.739635 0.302563 0.336015 0.003878
H10   H     H_    0.949671 0.297654 0.373545 0.067840
H11   H     H_    0.806313 0.164940 0.219714 0.125254
H12   H     H_    0.866874 0.151344 0.322321 0.060113
H13   H     H_    0.018682 0.161630 0.252325 0.127476
H14   H     H_    0.914120 0.689795 0.286553 0.043266
H15   H     H_    0.786512 0.685325 0.145809 0.098347
H16   H     H_    0.828253 0.855643 0.698102 0.079716
H17   H     H_    0.670532 0.807990 0.731258 0.090499
H18   H     H_    0.851107 0.789970 0.198990 0.111659
H19   H     H_    0.286648 0.917222 0.383998 0.091939
H20   H     H_    0.404104 0.223092 0.604004 0.084697
H21   H     H_    0.602602 0.233954 0.655471 -0.043142
H22   H     H_    0.358363 0.118661 0.680952 0.137051
H23   H     H_    0.535250 0.083065 0.612765 0.067659
H24   H     H_    0.560273 0.127925 0.727794 0.146146
H25   H     H_    0.949372 0.288101 0.849651 0.053134
H26   H     H_    0.138846 0.224140 0.809167 0.071880
H27   H     H_    0.372119 0.770229 0.392576 0.065844
H28   H     H_    0.434736 0.117951 0.362245 0.090373
H29   H     H_    0.372202 0.886033 0.634406 0.096419
H30   H     H_    0.734878 0.314278 0.492482 0.064404
H31   H     H_    0.033186 0.044264 0.496269 0.100825
H32   H     H_    0.747020 0.958000 0.527677 0.094178
H33   H     H_    0.978828 0.546803 0.882409 0.108873
H34   H     H_    0.213204 0.585022 0.100456 0.091440
H35   H     H_    0.581164 0.408226 0.902502 0.094664
H36   H     H_    0.151826 0.535360 0.337987 0.121916
H37   H     H_    0.660329 0.461058 0.668068 0.087970
H38   H     H_    0.482704 0.872864 0.335819 0.129546
H39   H     H_    0.305473 0.876828 0.268210 0.099379
H40   H     H_    0.419278 0.403964 0.285587 0.060780
N1    N     N_2   0.960699 0.513098 0.017459 -0.236156
N2    N     N_2   0.835360 0.477779 0.989799 -0.230519
O1    O     O_2   0.554430 0.712240 0.583340 -0.511880
O2    O     O_3   0.906465 0.319260 0.255823 -0.633344
O3    O     O_3   0.397128 0.713148 0.259806 -0.634233
O4    O     O_2   0.255890 0.287710 0.416620 -0.461480
O5    O     O_3   0.472550 0.396030 0.437270 -0.498655
O6    O     O_3   0.997190 0.341000 0.573500 -0.486434
O7    O     O_3   0.416404 0.277553 0.283224 -0.634096
O8    O     O_3   0.856110 0.544300 0.605450 -0.497024
O9    O     O_3   0.397490 0.384750 0.623120 -0.466271
O10   O     O_2   0.265358 0.442390 0.779338 -0.474436
O11   O     O_3   0.401627 0.283054 0.735829 -0.607383
O12   O     O_3   0.337760 0.603960 0.562660 -0.404670
O13   O     O_3   0.954190 0.455690 0.394480 -0.484294
O14   O     O_2   0.106750 0.542200 0.705290 -0.398728
O15   O     O_3   0.885718 0.681500 0.766191 -0.673646
O16   O     O_2   0.156840 0.188410 0.488569 -0.495718
O17   O     O_3   0.070303 0.204300 0.645142 -0.612491
O18   O     O_3   0.813110 0.658990 0.426440 -0.460828
O19   O     O_2   0.639938 0.809930 0.504798 -0.521321
O20   O     O_3   0.393010 0.725274 0.717430 -0.626320
O21   O     O_3   0.759828 0.797611 0.355394 -0.602445
O22   O     O_2   0.703570 0.457750 0.294670 -0.467558
O23   O     O_3   0.412810 0.615240 0.376810 -0.466034
O24   O     O_2   0.534084 0.553094 0.218639 -0.501839
P1    P     P_3+3 0.385820 0.698700 0.604730 1.087571
P2    P     P_3+3 0.884390 0.431600 0.301750 0.986550
P3    P     P_3+3 0.384937 0.610610 0.268898 0.969542
P4    P     P_3+3 0.424480 0.301290 0.395200 0.980552
P5    P     P_3+3 0.417349 0.386310 0.730748 0.998676
P6    P     P_3+3 0.795752 0.770879 0.450590 0.984549
P7    P     P_3+3 0.917768 0.569682 0.713435 0.962342
P8    P     P_3+3 0.012851 0.229525 0.551081 0.941063
O25   O     O_3   0.406144 0.592788 0.737053 -0.712821
H41   H     H_    0.322916 0.612897 0.783063 0.310566
H42   H     H_    0.638269 0.775756 0.197430 0.148719
O26   O     O_3   0.069749 0.741108 0.710224 -0.767953
H43   H     H_    0.100867 0.768020 0.771228 0.312442
H44   H     H_    0.867977 0.696148 0.642843 0.033617
H45   H     H_    0.827538 0.851064 0.806900 0.106796
H46   H     H_    0.853951 0.277081 0.700703 -0.060388
H47   H     H_    0.037951 0.328575 0.729378 0.028335
O27   O     O_3   0.930845 0.162069 0.780861 -0.722209
H48   H     H_    0.005734 0.112786 0.745209 0.320162
O28   O     O_3   0.096496 0.664043 0.485192 -0.712044
H49   H     H_    0.047050 0.646641 0.529988 0.311333
H50   H     H_    0.822821 0.445919 0.128530 0.118387
O29   O     O_3   0.152258 0.773528 0.329046 -0.780737
H51   H     H_    0.112576 0.776221 0.271710 0.289632
H52   H     H_    0.220619 0.370409 0.290011 0.006054

loop_
_geom_bond_atom_site_label_1
_geom_bond_atom_site_label_2
_ccdc_geom_bond_type
Ba1   O1    S    
C38   H3    S    
C39   C40   S    
C6    H22   S    
C32   C35   A    
C12   H27   S    
O19   P6    D    
C17   C18   D    
O27   H48   S    
Ba1   O13   S    
O29   H51   S    
C5    C6    S    
N1    N2    D    
C26   P2    S    
C38   H2    S    
C3    H44   S    
C7    H47   S    
C10   O28   S    
C11   C16   S    
C41   O2    S    
C4    H17   S    
Ba2   O9    S    
C35   C36   A    
Ba1   P2    S    
C28   C29   A    
O8    P7    S    
C27   H50   S    
O1    P1    D    
C18   H32   S    
Ba1   Ba2   S    
C23   H19   S    
Ba2   O4    S    
O6    P8    S    
Ba1   O23   S    
O18   P6    S    
C9    C13   S    
C34   O7    S    
C41   H9    S    
O9    P5    S    
Ba1   O8    S    
C21   C22   A    
O10   P5    D    
C30   P3    S    
O11   P5    S    
C7    C8    S    
O16   P8    D    
O23   P3    S    
C40   H7    S    
C2    H1    S    
C32   P7    S    
Ba2   O14   S    
Ba1   O5    S    
C19   C20   A    
C35   H37   S    
C22   P1    S    
C21   H29   S    
C8    O27   S    
C39   H5    S    
C31   C32   A    
C3    O15   S    
O20   P1    S    
C36   C37   A    
C5    H20   S    
C2    O21   S    
O3    P3    S    
C39   O20   S    
C4    H16   S    
C34   C38   S    
C25   H36   S    
C14   C15   S    
C3    O26   S    
O22   P2    D    
C10   C24   A    
C37   H35   S    
C33   C37   A    
C41   C42   S    
C12   O3    S    
C27   C28   A    
C14   P8    S    
C5    H21   S    
C9    C14   D    
C42   H12   S    
C41   H10   S    
C29   C30   A    
O24   P3    D    
Ba2   O8    S    
C42   H13   S    
C7    O17   S    
C15   C16   S    
C13   P4    S    
C39   O25   S    
C28   N1    S    
Ba2   O6    S    
Ba1   O18   S    
C40   H6    S    
C8    H26   S    
C12   O29   S    
C18   C20   S    
Ba2   O13   S    
C6    H24   S    
C19   C21   A    
C23   H38   S    
O17   P8    S    
C15   C17   S    
C1    C2    S    
C34   H52   S    
C29   H34   S    
C1    H18   S    
C38   H4    S    
C26   C27   A    
O12   P1    S    
C5    O11   S    
C25   C30   A    
C4    H45   S    
C9    H30   S    
Ba1   O12   S    
O25   H41   S    
C11   H28   S    
C10   C22   A    
C7    H46   S    
O5    P4    S    
O15   P7    S    
C11   C13   D    
O28   H49   S    
Ba1   P1    S    
C36   P5    S    
Ba2   P4    S    
C42   H11   S    
C31   H33   S    
C3    C4    S    
C34   H40   S    
O13   P2    S    
C17   H31   S    
C31   C33   A    
O7    P4    S    
O4    P4    D    
C12   C23   S    
Ba2   O5    S    
C24   P6    S    
O21   P6    S    
Ba1   O22   S    
O2    P2    S    
C8    H25   S    
Ba2   O12   S    
C6    H23   S    
C20   C24   A    
C2    H14   S    
C25   C26   A    
C23   H39   S    
O14   P7    D    
O26   H43   S    
C33   N2    S    
C1    H42   S    
C40   H8    S    
C1    H15   S    
