data_mof_unit_23582.cif
_audit_creation_date              2012-12-11T16:08:34-0500
_audit_creation_method            fapswitch 2.2
_symmetry_space_group_name_H-M    P1
_symmetry_Int_Tables_number       1
_space_group_crystal_system       triclinic
_cell_length_a                    12.97885
_cell_length_b                    13.28031
_cell_length_c                    27.712844
_cell_angle_alpha                 94.830805
_cell_angle_beta                  90.382459
_cell_angle_gamma                 119.352201
_cell_volume                      4142.34006

loop_
_atom_site_label
_atom_site_type_symbol
_atom_type_description
_atom_site_fract_x
_atom_site_fract_y
_atom_site_fract_z
_atom_type_partial_charge
C1    C     C_R   0.627734 0.895155 0.427478 0.545215
C2    C     C_R   0.580742 0.256148 0.219766 -0.104488
C3    C     C_R   0.569111 0.240468 0.269097 -0.102974
C4    C     C_R   0.663172 0.312184 0.302865 0.035942
C5    C     C_R   0.686785 0.343288 0.203854 0.035611
C6    C     C_1   0.695511 0.366631 0.153782 -0.057910
C7    C     C_1   0.649836 0.293084 0.353393 -0.058939
C8    C     C_1   0.703916 0.394367 0.113041 -0.013846
C9    C     C_R   0.196313 0.754966 0.348091 -0.130505
C10   C     C_R   0.185521 0.749960 0.298197 0.008770
C11   C     C_R   0.174207 0.745312 0.197650 0.009892
C12   C     C_R   0.600817 0.221759 0.440491 0.540035
C13   C     C_R   0.185754 0.659296 0.219012 -0.132487
C14   C     C_R   0.189335 0.660505 0.269122 -0.135062
C15   C     C_R   0.159223 0.737925 0.147751 -0.129839
C16   C     C_R   0.128191 0.812297 0.126668 -0.005897
C17   C     C_R   0.197100 0.939183 0.356815 -0.137347
C18   C     C_R   0.178233 0.931473 0.306555 0.011069
C19   C     C_R   0.177404 0.838879 0.277147 0.061087
C20   C     C_R   0.165957 0.017084 0.284924 -0.134705
C21   C     C_R   0.152042 0.010331 0.234483 -0.133730
C22   C     C_R   0.153509 0.919662 0.205133 0.010612
C23   C     C_R   0.269031 0.875953 0.425551 0.542150
C24   C     C_R   0.169289 0.835247 0.226633 0.060157
C25   C     C_R   0.132235 0.907290 0.154921 -0.136248
C26   C     C_R   0.211648 0.853477 0.377302 -0.004229
C27   C     C_R   0.754124 0.934082 0.358285 -0.129490
C28   C     C_R   0.760544 0.924385 0.308392 0.012683
C29   C     C_R   0.764809 0.913961 0.207709 0.011725
C30   C     C_R   0.857647 0.006407 0.236315 -0.126310
C31   C     C_R   0.856414 0.010656 0.286510 -0.125720
C32   C     C_R   0.769395 0.906355 0.157819 -0.126609
C33   C     C_R   0.686748 0.805598 0.129208 -0.005242
C34   C     C_R   0.627468 0.898537 0.564885 0.562280
C35   C     C_R   0.560512 0.760021 0.351934 -0.133230
C36   C     C_R   0.567925 0.746145 0.301795 0.014163
C37   C     C_R   0.666247 0.831277 0.279848 0.061983
C38   C     C_R   0.476139 0.652689 0.272935 -0.126439
C39   C     C_R   0.481926 0.643660 0.222519 -0.126522
C40   C     C_R   0.578153 0.729515 0.200390 0.014656
C41   C     C_R   0.669453 0.824944 0.229294 0.062161
C42   C     C_R   0.588180 0.719454 0.150183 -0.135550
C43   C     C_R   0.650769 0.857562 0.379743 -0.004890
C44   C     C_R   0.740190 0.291070 0.650885 -0.113493
C45   C     C_R   0.604345 0.228388 0.577965 0.568086
C46   C     C_R   0.757936 0.321687 0.700773 0.027322
C47   C     C_R   0.771084 0.355961 0.802373 0.024843
C48   C     C_R   0.846793 0.323675 0.778416 -0.117575
C49   C     C_R   0.839719 0.305870 0.727854 -0.116604
C50   C     C_R   0.774085 0.369949 0.853047 -0.126768
C51   C     C_R   0.695776 0.399814 0.876205 0.001516
C52   C     C_R   0.587775 0.346868 0.647654 -0.098352
C53   C     C_R   0.603824 0.377154 0.697454 0.044190
C54   C     C_R   0.685941 0.360200 0.724399 0.089537
C55   C     C_R   0.531782 0.414408 0.721166 -0.096070
C56   C     C_R   0.271668 0.879300 0.563326 0.559035
C57   C     C_R   0.535893 0.428082 0.771539 -0.110514
C58   C     C_R   0.613146 0.406028 0.798490 0.023040
C59   C     C_R   0.691040 0.375285 0.775107 0.085955
C60   C     C_R   0.614096 0.415187 0.848588 -0.121731
C61   C     C_R   0.649294 0.295760 0.625064 0.012810
C62   C     C_1   0.223267 0.863039 0.610184 0.036959
C63   C     C_R   0.069430 0.766194 0.718394 -0.165473
C64   C     C_R   0.052309 0.755508 0.767799 -0.128948
C65   C     C_R   0.251706 0.914261 0.787265 -0.096184
C66   C     C_R   0.270006 0.925782 0.737690 0.241566
C67   C     C_1   0.631952 0.267652 0.394462 -0.014170
C68   C     C_R   0.177949 0.850483 0.703024 0.019516
C69   C     C_R   0.143546 0.828975 0.802274 -0.012283
C70   C     C_1   0.124865 0.815346 0.852983 -0.053072
C71   C     C_1   0.196772 0.855157 0.651843 0.008583
C72   C     C_1   0.100631 0.797643 0.894445 -0.008676
C73   C     C_1   0.648378 0.859031 0.608693 0.000532
C74   C     C_R   0.787112 0.840623 0.717064 -0.104785
C75   C     C_R   0.799413 0.825197 0.765700 -0.105777
C76   C     C_R   0.586280 0.729456 0.770853 -0.104992
C77   C     C_R   0.573963 0.744832 0.722234 -0.111931
C78   C     C_R   0.769690 0.398732 0.286958 -0.106181
C79   C     C_R   0.674396 0.801903 0.695381 0.035982
C80   C     C_R   0.699147 0.771262 0.792936 0.038574
C81   C     C_1   0.712817 0.763550 0.843931 -0.062565
C82   C     C_1   0.661843 0.830512 0.647432 -0.052199
C83   C     C_1   0.727060 0.759042 0.886616 -0.017554
C84   C     C_R   0.065707 0.773192 0.079003 0.549820
C85   C     C_R   0.717131 0.441385 0.067290 0.551418
C86   C     C_R   0.720829 0.782777 0.081115 0.558956
C87   C     C_R   0.056391 0.766252 0.941260 0.537640
C88   C     C_R   0.711634 0.438510 0.927933 0.536918
C89   C     C_R   0.781330 0.414445 0.237555 -0.104431
C90   C     C_R   0.749050 0.753899 0.936983 0.562176
Cr1   Cr    Cr6+3 0.416430 0.829200 0.492370 1.025854
Cr2   Cr    Cr6+3 0.674630 0.087020 0.504170 1.026308
Cr3   Cr    Cr6+3 0.408920 0.083740 0.503490 1.040403
Cr4   Cr    Cr6+3 0.914010 0.832750 0.013970 1.019485
Cr5   Cr    Cr6+3 0.922310 0.578600 0.003000 1.019713
Cr6   Cr    Cr6+3 0.656280 0.574630 0.003870 1.022307
H1    H     H_    0.843229 0.454202 0.312650 0.111509
H2    H     H_    0.139917 0.075700 0.218447 0.101197
H3    H     H_    0.166341 0.088631 0.306982 0.104257
H4    H     H_    0.207594 0.014700 0.379402 0.123054
H5    H     H_    0.844760 0.974576 0.141897 0.133013
H6    H     H_    0.824949 0.008358 0.379746 0.131732
H7    H     H_    0.931979 0.074384 0.219872 0.099905
H8    H     H_    0.928919 0.082744 0.308171 0.102745
H9    H     H_    0.523633 0.642150 0.128070 0.124309
H10   H     H_    0.411089 0.570019 0.200869 0.103923
H11   H     H_    0.400013 0.586807 0.289339 0.100207
H12   H     H_    0.863345 0.483050 0.225727 0.119397
H13   H     H_    0.481085 0.699877 0.368616 0.122930
H14   H     H_    0.838383 0.360069 0.874339 0.123535
H15   H     H_    0.789621 0.253601 0.633190 0.132042
H16   H     H_    0.909315 0.309489 0.798779 0.113885
H17   H     H_    0.895863 0.276741 0.710006 0.112459
H18   H     H_    0.554912 0.441034 0.865998 0.137674
H19   H     H_    0.477309 0.453975 0.789423 0.105286
H20   H     H_    0.469047 0.428408 0.700846 0.110366
H21   H     H_    0.519556 0.352898 0.627378 0.128156
H22   H     H_    0.998501 0.707714 0.692156 0.116732
H23   H     H_    0.506623 0.201520 0.194192 0.114790
H24   H     H_    0.968079 0.689316 0.779124 0.124698
H25   H     H_    0.321569 0.970938 0.814201 0.156009
H26   H     H_    0.865503 0.885596 0.696850 0.115945
H27   H     H_    0.887166 0.857933 0.782394 0.120984
H28   H     H_    0.508129 0.687500 0.791491 0.109309
H29   H     H_    0.486399 0.715277 0.706007 0.107896
H30   H     H_    0.486523 0.172737 0.280949 0.120313
H31   H     H_    0.158900 0.666003 0.125931 0.133473
H32   H     H_    0.205058 0.687072 0.363640 0.130636
H33   H     H_    0.188851 0.589516 0.196974 0.104248
H34   H     H_    0.197006 0.592634 0.285155 0.099216
H35   H     H_    0.110020 0.965993 0.138523 0.123504
O1    O     O_R   0.296680 0.802170 0.437540 -0.526717
O2    O     O_R   0.662610 0.183990 0.557860 -0.505622
O3    O     O_R   0.500730 0.201280 0.562180 -0.499353
O4    O     O_R   0.312500 0.978850 0.548170 -0.477753
O5    O     O_3   0.499990 0.999990 0.500010 -0.240585
O6    O     O_R   0.820790 0.857990 0.068830 -0.519380
O7    O     O_R   0.016700 0.827330 0.062850 -0.501581
O8    O     O_R   0.041970 0.673520 0.060040 -0.516925
O9    O     O_R   0.817980 0.483660 0.048840 -0.490302
O10   O     O_R   0.637200 0.461990 0.052510 -0.506591
O11   O     O_R   0.664790 0.681920 0.057970 -0.494120
O12   O     O_R   0.525380 0.838530 0.443500 -0.505596
O13   O     O_R   0.815840 0.852920 0.961840 -0.498356
O14   O     O_R   0.012100 0.822630 0.963670 -0.512082
O15   O     O_R   0.037010 0.668460 0.953040 -0.507121
O16   O     O_R   0.813390 0.478970 0.949660 -0.502404
O17   O     O_R   0.632250 0.456930 0.945520 -0.526779
O18   O     O_R   0.660200 0.677230 0.958780 -0.495695
O19   O     O_3   0.830870 0.661990 0.006950 -0.268146
O20   O     O_R   0.702130 0.995190 0.446810 -0.521287
O21   O     O_R   0.661770 0.181390 0.458760 -0.497642
O22   O     O_R   0.499820 0.198480 0.455280 -0.515288
O23   O     O_R   0.311660 0.976250 0.449080 -0.504320
O24   O     O_R   0.297580 0.804960 0.544440 -0.512807
O25   O     O_R   0.526220 0.841130 0.542590 -0.490385
O26   O     O_R   0.703030 0.997990 0.553710 -0.509273
S1    S     S_3+6 0.408262 0.034212 0.719809 -0.001872
O27   O     O_2   0.388034 0.114556 0.691083 -0.257818
O28   O     O_2   0.490399 0.103016 0.763187 -0.298554
O29   O     O_3   0.470922 0.972244 0.684492 -0.509643
H36   H     H_    0.481106 0.920022 0.705120 0.333960

loop_
_geom_bond_atom_site_label_1
_geom_bond_atom_site_label_2
_ccdc_geom_bond_type
C39   H10   S    
C49   H17   S    
C87   O15   A    
C12   O21   A    
C60   H18   S    
C35   C36   A    
C42   H9    S    
C50   H14   S    
C12   O22   A    
Cr3   O5    S    
C72   C87   S    
O29   H36   S    
C3    H30   S    
C62   C71   T    
C57   H19   S    
C53   C54   A    
C4    C78   A    
C5    C6    S    
C46   C49   A    
Cr5   O9    S    
C75   H27   S    
C33   C42   A    
Cr3   O23   S    
C8    C85   S    
C29   C32   A    
C52   C61   A    
C90   O18   A    
C14   H34   S    
C38   C39   A    
C66   C68   A    
C58   C60   A    
C15   C16   A    
C11   C24   A    
C16   C84   S    
C18   C19   A    
C23   C26   S    
C45   C61   S    
C38   H11   S    
S1    O29   S    
Cr6   O10   S    
C11   C15   A    
C1    C43   S    
Cr1   O5    S    
Cr2   O2    S    
C84   O8    A    
C22   C25   A    
C30   H7    S    
Cr2   O21   S    
C1    O20   A    
C65   H25   S    
C35   C43   A    
C9    C10   A    
C18   C20   A    
C86   O6    A    
C52   H21   S    
Cr4   O14   S    
C40   C42   A    
C84   O7    A    
C15   H31   S    
C21   C22   A    
S1    O28   D    
Cr2   O5    S    
Cr5   O15   S    
C78   H1    S    
C56   O24   A    
C81   C83   T    
Cr6   O11   S    
C44   C46   A    
C9    C26   A    
C50   C51   A    
C47   C50   A    
Cr1   O12   S    
C54   C59   A    
C53   C55   A    
C78   C89   A    
Cr6   O17   S    
C12   C67   S    
C9    H32   S    
C74   C75   A    
C76   H28   S    
Cr5   O16   S    
C76   C77   A    
Cr3   O3    S    
C10   C14   A    
C85   O10   A    
C39   C40   A    
C63   H22   S    
C6    C8    T    
Cr1   O1    S    
C4    C7    S    
C58   C59   A    
C47   C59   A    
Cr2   O26   S    
C33   C86   S    
C44   H15   S    
Cr1   O24   S    
C29   C30   A    
C1    O12   A    
C47   C48   A    
C74   H26   S    
C10   C19   A    
Cr6   O19   S    
C46   C54   A    
Cr2   O20   S    
C17   C18   A    
C88   O17   A    
C77   C79   A    
Cr5   O19   S    
C45   O3    A    
C64   C69   A    
C85   O9    A    
C40   C41   A    
C48   H16   S    
C74   C79   A    
C55   C57   A    
S1    O27   D    
Cr4   O7    S    
C22   C24   A    
C2    C5    A    
C17   C26   A    
C3    C4    A    
C25   H35   S    
C73   C82   T    
C66   S1    S    
C56   O4    A    
C77   H29   S    
C52   C53   A    
C86   O11   A    
C75   C80   A    
C16   C25   A    
C83   C90   S    
C63   C68   A    
C48   C49   A    
C87   O14   A    
C29   C41   A    
C45   O2    A    
C28   C31   A    
C76   C80   A    
C80   C81   S    
Cr3   O4    S    
C35   H13   S    
C51   C88   S    
C79   C82   S    
C2    H23   S    
C34   O25   A    
C44   C61   A    
Cr4   O19   S    
C27   H6    S    
Cr5   O8    S    
C64   H24   S    
Cr4   O13   S    
C32   C33   A    
Cr3   O22   S    
C2    C3    A    
Cr1   O25   S    
C31   H8    S    
C21   H2    S    
C11   C13   A    
C57   C58   A    
C30   C31   A    
C20   H3    S    
C28   C37   A    
C68   C71   S    
C65   C69   A    
Cr6   O18   S    
C89   H12   S    
C36   C38   A    
C88   O16   A    
C23   O1    A    
C19   C24   A    
C56   C62   S    
C37   C41   A    
C69   C70   S    
C17   H4    S    
C90   O13   A    
C34   C73   S    
C7    C67   T    
C63   C64   A    
C34   O26   A    
C27   C43   A    
C20   C21   A    
C36   C37   A    
C65   C66   A    
C55   H20   S    
C23   O23   A    
C27   C28   A    
Cr4   O6    S    
C13   H33   S    
C32   H5    S    
C70   C72   T    
C51   C60   A    
C13   C14   A    
C5    C89   A    
