data_mof_unit_7095.cif
_audit_creation_date              2012-12-11T15:26:33-0500
_audit_creation_method            fapswitch 2.2
_symmetry_space_group_name_H-M    P1
_symmetry_Int_Tables_number       1
_space_group_crystal_system       triclinic
_cell_length_a                    7.22339
_cell_length_b                    12.138973
_cell_length_c                    29.09934
_cell_angle_alpha                 89.996732
_cell_angle_beta                  89.986239
_cell_angle_gamma                 90.241238
_cell_volume                      2551.5394368

loop_
_atom_site_label
_atom_site_type_symbol
_atom_type_description
_atom_site_fract_x
_atom_site_fract_y
_atom_site_fract_z
_atom_type_partial_charge
O1    O     O_R   0.647170 0.849180 0.201220 -0.536853
O2    O     O_R   0.352830 0.150820 0.798780 -0.536853
O3    O     O_R   0.352830 0.150820 0.701220 -0.536850
O4    O     O_R   0.647170 0.849180 0.298780 -0.536850
O5    O     O_R   0.147170 0.650820 0.298780 -0.537255
O6    O     O_R   0.852830 0.349180 0.701220 -0.537255
O7    O     O_R   0.852830 0.349180 0.798780 -0.537266
O8    O     O_R   0.147170 0.650820 0.201220 -0.537267
O9    O     O_R   0.317430 0.862210 0.298450 -0.540197
O10   O     O_R   0.682570 0.137790 0.701550 -0.540197
O11   O     O_R   0.682570 0.137790 0.798450 -0.540187
O12   O     O_R   0.317430 0.862210 0.201550 -0.540187
O13   O     O_R   0.817430 0.637790 0.201550 -0.539992
O14   O     O_R   0.182570 0.362210 0.798450 -0.539992
O15   O     O_R   0.182570 0.362210 0.701550 -0.540002
O16   O     O_R   0.817430 0.637790 0.298450 -0.540002
H1    H     H_    0.966888 0.224447 0.455044 0.139596
H2    H     H_    0.033112 0.775553 0.544956 0.139596
H3    H     H_    0.031819 0.775592 0.955012 0.139585
H4    H     H_    0.968181 0.224408 0.044987 0.139585
H5    H     H_    0.541259 0.274968 0.045208 0.139726
H6    H     H_    0.458740 0.725032 0.954792 0.139726
H7    H     H_    0.460316 0.724957 0.545234 0.139692
H8    H     H_    0.539684 0.275043 0.454766 0.139692
C1    C     C_R   0.486043 0.887747 0.313334 0.682338
C2    C     C_R   0.513956 0.112253 0.686666 0.682338
C3    C     C_R   0.513923 0.112245 0.813331 0.682360
C4    C     C_R   0.486077 0.887755 0.186668 0.682360
C5    C     C_R   0.985457 0.612210 0.186653 0.682602
C6    C     C_R   0.014543 0.387790 0.813347 0.682602
C7    C     C_R   0.014574 0.387798 0.686654 0.682611
C8    C     C_R   0.985426 0.612201 0.313346 0.682611
H9    H     H_    0.034384 0.609720 0.691153 0.101159
H10   H     H_    0.965616 0.390280 0.308847 0.101159
H11   H     H_    0.966487 0.390264 0.191170 0.101145
H12   H     H_    0.033513 0.609736 0.808830 0.101145
H13   H     H_    0.480988 0.890796 0.808642 0.100898
H14   H     H_    0.519012 0.109203 0.191358 0.100898
H15   H     H_    0.517954 0.109246 0.308631 0.100896
H16   H     H_    0.482045 0.890754 0.691369 0.100896
H17   H     H_    0.961543 0.260793 0.373420 0.124654
H18   H     H_    0.038457 0.739207 0.626580 0.124654
H19   H     H_    0.037209 0.739235 0.873392 0.124638
H20   H     H_    0.962791 0.260765 0.126608 0.124638
H21   H     H_    0.537448 0.238518 0.126843 0.124648
H22   H     H_    0.462552 0.761482 0.873157 0.124648
H23   H     H_    0.464082 0.761414 0.626866 0.124636
H24   H     H_    0.535918 0.238586 0.373134 0.124636
H25   H     H_    0.987311 0.337488 0.599537 0.096818
H26   H     H_    0.012689 0.662512 0.400463 0.096818
H27   H     H_    0.012193 0.662555 0.099521 0.096788
H28   H     H_    0.987807 0.337445 0.900479 0.096788
H29   H     H_    0.525281 0.162480 0.900617 0.096426
H30   H     H_    0.474719 0.837520 0.099383 0.096426
H31   H     H_    0.475346 0.837473 0.400628 0.096413
H32   H     H_    0.524654 0.162527 0.599372 0.096413
O17   O     O_3   0.480630 0.680630 0.250000 -0.376848
O18   O     O_3   0.519370 0.319370 0.750000 -0.376848
O19   O     O_3   0.980630 0.819370 0.250000 -0.376799
O20   O     O_3   0.019370 0.180630 0.750000 -0.376799
V1    V     V_3+5 0.205800 0.762860 0.250000 1.422791
V2    V     V_3+5 0.794200 0.237140 0.750000 1.422791
V3    V     V_3+5 0.705800 0.737140 0.250000 1.424195
V4    V     V_3+5 0.294200 0.262860 0.750000 1.424195
H33   H     H_    0.977156 0.283336 0.532556 0.129581
H34   H     H_    0.022843 0.716664 0.467443 0.129581
H35   H     H_    0.021877 0.716705 0.032531 0.129596
H36   H     H_    0.978123 0.283295 0.967468 0.129596
H37   H     H_    0.533145 0.216398 0.967640 0.129759
H38   H     H_    0.466854 0.783601 0.032360 0.129759
H39   H     H_    0.468000 0.783537 0.467659 0.129764
H40   H     H_    0.532000 0.216463 0.532341 0.129764
C9    C     C_R   0.991280 0.534447 0.351718 -0.026024
C10   C     C_R   0.008720 0.465553 0.648282 -0.026024
C11   C     C_R   0.008577 0.465536 0.851718 -0.025974
C12   C     C_R   0.991423 0.534464 0.148282 -0.025974
C13   C     C_R   0.495213 0.965310 0.148270 -0.025487
C14   C     C_R   0.504787 0.034690 0.851730 -0.025487
C15   C     C_R   0.504942 0.034697 0.648270 -0.025457
C16   C     C_R   0.495058 0.965303 0.351730 -0.025457
C17   C     C_R   0.973310 0.348261 0.380420 -0.169481
C18   C     C_R   0.026690 0.651739 0.619579 -0.169481
C19   C     C_R   0.025836 0.651751 0.880402 -0.169506
C20   C     C_R   0.974164 0.348249 0.119598 -0.169506
C21   C     C_R   0.523548 0.151198 0.119750 -0.169023
C22   C     C_R   0.476452 0.848802 0.880249 -0.169023
C23   C     C_R   0.477496 0.848760 0.619765 -0.169034
C24   C     C_R   0.522504 0.151240 0.380234 -0.169034
C25   C     C_R   0.976053 0.421530 0.343631 -0.178803
C26   C     C_R   0.023947 0.578470 0.656369 -0.178803
C27   C     C_R   0.023306 0.578473 0.843619 -0.178805
C28   C     C_R   0.976694 0.421527 0.156381 -0.178805
C29   C     C_R   0.513044 0.078026 0.156500 -0.179112
C30   C     C_R   0.486956 0.921974 0.843500 -0.179112
C31   C     C_R   0.487729 0.921948 0.656509 -0.179108
C32   C     C_R   0.512271 0.078052 0.343491 -0.179108
C33   C     C_R   0.002702 0.574439 0.396738 -0.217653
C34   C     C_R   0.997298 0.425561 0.603262 -0.217653
C35   C     C_R   0.997442 0.425532 0.896744 -0.217644
C36   C     C_R   0.002558 0.574468 0.103256 -0.217644
C37   C     C_R   0.488214 0.925418 0.103187 -0.217571
C38   C     C_R   0.511786 0.074582 0.896813 -0.217571
C39   C     C_R   0.511598 0.074605 0.603183 -0.217574
C40   C     C_R   0.488402 0.925395 0.396817 -0.217574
C41   C     C_R   0.997310 0.501966 0.434934 0.081668
C42   C     C_R   0.002690 0.498034 0.565066 0.081668
C43   C     C_R   0.002607 0.498021 0.934934 0.081692
C44   C     C_R   0.997393 0.501979 0.065066 0.081692
C45   C     C_R   0.499240 0.997853 0.065060 0.081617
C46   C     C_R   0.500760 0.002147 0.934940 0.081617
C47   C     C_R   0.500863 0.002151 0.565061 0.081627
C48   C     C_R   0.499137 0.997849 0.434939 0.081627
C49   C     C_R   0.983156 0.387293 0.425791 0.130729
C50   C     C_R   0.016844 0.612707 0.574209 0.130729
C51   C     C_R   0.016245 0.612713 0.925778 0.130722
C52   C     C_R   0.983755 0.387287 0.074222 0.130722
C53   C     C_R   0.516817 0.112316 0.074318 0.130731
C54   C     C_R   0.483183 0.887684 0.925682 0.130731
C55   C     C_R   0.483918 0.887656 0.574329 0.130711
C56   C     C_R   0.516082 0.112344 0.425671 0.130711
C57   C     C_R   0.003726 0.539276 0.481641 0.053650
C58   C     C_R   0.996274 0.460724 0.518359 0.053650
C59   C     C_R   0.996428 0.460714 0.981645 0.053662
C60   C     C_R   0.003572 0.539286 0.018355 0.053662
C61   C     C_R   0.493871 0.960735 0.018322 0.053564
C62   C     C_R   0.506129 0.039265 0.981678 0.053564
C63   C     C_R   0.505946 0.039277 0.518319 0.053561
C64   C     C_R   0.494054 0.960723 0.481681 0.053561
C65   C     C_R   0.983388 0.347593 0.507138 -0.194443
C66   C     C_R   0.016612 0.652407 0.492862 -0.194443
C67   C     C_R   0.015927 0.652433 0.007121 -0.194460
C68   C     C_R   0.984073 0.347567 0.992879 -0.194460
C69   C     C_R   0.523059 0.152170 0.992999 -0.194265
C70   C     C_R   0.476941 0.847830 0.007001 -0.194265
C71   C     C_R   0.477762 0.847787 0.493013 -0.194276
C72   C     C_R   0.522238 0.152213 0.506987 -0.194276
C73   C     C_R   0.977394 0.312093 0.461867 -0.200269
C74   C     C_R   0.022606 0.687907 0.538133 -0.200269
C75   C     C_R   0.021717 0.687931 0.961846 -0.200334
C76   C     C_R   0.978283 0.312069 0.038154 -0.200334
C77   C     C_R   0.527961 0.187483 0.038304 -0.200347
C78   C     C_R   0.472039 0.812517 0.961696 -0.200347
C79   C     C_R   0.473121 0.812467 0.538322 -0.200352
C80   C     C_R   0.526879 0.187533 0.461678 -0.200352

loop_
_geom_bond_atom_site_label_1
_geom_bond_atom_site_label_2
_ccdc_geom_bond_type
C61   C70   A    
C24   C32   A    
C6    C11   S    
C59   C68   A    
C14   C38   A    
C1    C16   S    
C55   C79   A    
H30   C37   S    
C13   C37   A    
H18   C18   S    
C43   C59   A    
C57   C66   A    
C3    C14   S    
H7    C79   S    
C46   C54   A    
O4    C1    A    
O9    C1    A    
C59   C60   A    
C10   C34   A    
C5    C12   S    
O3    V4    S    
C9    C33   A    
O4    V3    S    
C42   C50   A    
O9    V1    S    
O8    C5    A    
O13   C5    A    
C56   C80   A    
O14   C6    A    
H39   C71   S    
H40   C72   S    
C37   C45   A    
H19   C19   S    
C47   C55   A    
H2    C74   S    
C22   C30   A    
H25   C34   S    
C21   C29   A    
C62   C69   A    
C23   C31   A    
O1    C4    A    
O15   V4    S    
H24   C24   S    
O2    C3    A    
O16   V3    S    
C16   C32   A    
C58   C65   A    
C11   C27   A    
O8    V1    S    
O5    C8    A    
C17   C25   A    
H11   C28   S    
O10   C2    A    
C71   C79   A    
O6    C7    A    
O14   V4    S    
C20   C52   A    
O7    C6    A    
H22   C22   S    
C15   C39   A    
C24   C56   A    
O10   V2    S    
C44   C60   A    
O1    V3    S    
O2    V4    S    
O17   V3    S    
O18   V4    S    
C53   C77   A    
C36   C44   A    
O19   V1    S    
C45   C53   A    
C46   C62   A    
C19   C51   A    
C12   C36   A    
C63   C72   A    
C18   C50   A    
C64   C71   A    
C8    C9    S    
C48   C56   A    
C7    C10   S    
H20   C20   S    
H31   C40   S    
C60   C67   A    
H36   C68   S    
C15   C31   A    
H21   C21   S    
O7    V2    S    
C23   C55   A    
C70   C78   A    
O13   V3    S    
O11   C3    A    
H29   C38   S    
H17   C17   S    
C42   C58   A    
C11   C35   A    
C41   C57   A    
C22   C54   A    
C21   C53   A    
C4    C13   S    
C43   C51   A    
C57   C58   A    
C12   C28   A    
H12   C27   S    
C45   C61   A    
C16   C40   A    
C44   C52   A    
C47   C63   A    
C61   C62   A    
C49   C73   A    
C38   C46   A    
C68   C76   A    
H16   C31   S    
C63   C64   A    
C66   C74   A    
C19   C27   A    
C40   C48   A    
C41   C49   A    
H27   C36   S    
H26   C33   S    
H37   C69   S    
H28   C35   S    
O3    C2    A    
H35   C67   S    
H32   C39   S    
C51   C75   A    
C54   C78   A    
C34   C42   A    
H33   C65   S    
H6    C78   S    
O15   C7    A    
C14   C30   A    
C39   C47   A    
O16   C8    A    
C35   C43   A    
O11   V2    S    
C69   C77   A    
C2    C15   S    
C18   C26   A    
O6    V2    S    
H10   C25   S    
C33   C41   A    
C72   C80   A    
H9    C26   S    
O20   V2    S    
O12   V1    S    
H4    C76   S    
H8    C80   S    
C10   C26   A    
H14   C29   S    
C13   C29   A    
H13   C30   S    
C50   C74   A    
H15   C32   S    
C48   C64   A    
C67   C75   A    
C9    C25   A    
C65   C73   A    
O12   C4    A    
H5    C77   S    
C17   C49   A    
H38   C70   S    
H1    C73   S    
C20   C28   A    
C52   C76   A    
H3    C75   S    
O5    V1    S    
H23   C23   S    
H34   C66   S    
