data_mof_unit_63798.cif
_audit_creation_date              2012-12-10T20:39:20-0500
_audit_creation_method            fapswitch 2.2
_symmetry_space_group_name_H-M    P1
_symmetry_Int_Tables_number       1
_space_group_crystal_system       triclinic
_cell_length_a                    28.168302
_cell_length_b                    28.168309
_cell_length_c                    51.373431
_cell_angle_alpha                 90.000035
_cell_angle_beta                  90.000034
_cell_angle_gamma                 90.0
_cell_volume                      40762.4252814

loop_
_atom_site_label
_atom_site_type_symbol
_atom_type_description
_atom_site_fract_x
_atom_site_fract_y
_atom_site_fract_z
_atom_type_partial_charge
C1    C     C_R   1.000000 0.500000 0.179748 0.790363
C2    C     C_R   0.000000 0.500000 0.820252 0.790364
C3    C     C_R   0.500000 1.000000 0.179748 0.790363
C4    C     C_R   0.500000 0.000000 0.820252 0.790364
C5    C     C_R   0.500000 1.000000 0.679748 0.790364
C6    C     C_R   0.500000 0.000000 0.320252 0.790364
C7    C     C_R   0.000000 0.500000 0.679748 0.790363
C8    C     C_R   0.000000 0.500000 0.320252 0.790364
C9    C     C_R   0.500000 1.000000 0.013770 -0.016067
C10   C     C_R   0.500000 0.000000 0.986230 -0.016066
C11   C     C_R   1.000000 0.500000 0.013770 -0.016068
C12   C     C_R   0.000000 0.500000 0.986230 -0.016067
C13   C     C_R   0.000000 0.500000 0.513770 -0.016067
C14   C     C_R   1.000000 0.500000 0.486230 -0.016066
C15   C     C_R   0.500000 0.000000 0.513770 -0.016067
C16   C     C_R   0.500000 1.000000 0.486230 -0.016067
C17   C     C_R   0.578390 0.035941 0.013595 -0.144396
C18   C     C_R   0.421610 0.964059 0.986405 -0.144395
C19   C     C_R   0.035930 0.578395 0.013595 -0.144395
C20   C     C_R   0.964070 0.421605 0.986405 -0.144395
C21   C     C_R   0.421610 0.964059 0.013595 -0.144396
C22   C     C_R   0.578390 0.035941 0.986405 -0.144395
C23   C     C_R   0.964070 0.421605 0.013595 -0.144395
C24   C     C_R   0.035930 0.578395 0.986405 -0.144395
C25   C     C_R   0.078392 0.535937 0.513595 -0.144396
C26   C     C_R   0.921608 0.464063 0.486405 -0.144395
C27   C     C_R   0.535930 0.078395 0.513595 -0.144396
C28   C     C_R   0.464069 0.921605 0.486405 -0.144396
C29   C     C_R   0.921608 0.464063 0.513595 -0.144396
C30   C     C_R   0.078391 0.535937 0.486405 -0.144395
C31   C     C_R   0.464069 0.921605 0.513595 -0.144395
C32   C     C_R   0.535930 0.078394 0.486405 -0.144395
C33   C     C_R   0.000021 0.457019 0.390174 -0.095149
C34   C     C_R   0.000022 0.457019 0.609826 -0.095150
C35   C     C_R   0.457019 0.000018 0.390174 -0.095151
C36   C     C_R   0.457019 0.000019 0.609826 -0.095150
C37   C     C_R   0.999979 0.542981 0.390174 -0.095150
C38   C     C_R   0.999978 0.542981 0.609826 -0.095150
C39   C     C_R   0.542981 0.999981 0.390174 -0.095150
C40   C     C_R   0.542981 0.999981 0.609826 -0.095151
C41   C     C_R   0.500022 0.957019 0.890174 -0.095149
C42   C     C_R   0.500024 0.957019 0.109826 -0.095150
C43   C     C_R   0.957019 0.500018 0.890174 -0.095151
C44   C     C_R   0.957019 0.500019 0.109826 -0.095150
C45   C     C_R   0.499978 0.042981 0.890174 -0.095149
C46   C     C_R   0.499976 0.042981 0.109826 -0.095150
C47   C     C_R   0.042981 0.499982 0.890174 -0.095150
C48   C     C_R   0.042981 0.499981 0.109826 -0.095150
C49   C     C_R   0.000021 0.456978 0.362967 -0.184669
C50   C     C_R   0.000021 0.456978 0.637033 -0.184670
C51   C     C_R   0.456978 0.000018 0.362967 -0.184669
C52   C     C_R   0.456978 0.000018 0.637033 -0.184669
C53   C     C_R   0.999979 0.543022 0.362967 -0.184669
C54   C     C_R   0.999978 0.543022 0.637033 -0.184669
C55   C     C_R   0.543022 0.999981 0.362967 -0.184669
C56   C     C_R   0.543022 0.999981 0.637033 -0.184669
C57   C     C_R   0.500022 0.956978 0.862967 -0.184669
C58   C     C_R   0.500024 0.956978 0.137033 -0.184669
C59   C     C_R   0.956978 0.500018 0.862967 -0.184668
C60   C     C_R   0.956978 0.500018 0.137033 -0.184669
C61   C     C_R   0.499978 0.043022 0.862967 -0.184670
C62   C     C_R   0.499976 0.043022 0.137033 -0.184669
C63   C     C_R   0.043022 0.499982 0.862967 -0.184669
C64   C     C_R   0.043022 0.499981 0.137033 -0.184669
C65   C     C_R   0.000000 0.500000 0.349064 -0.028775
C66   C     C_R   0.000000 0.500000 0.650936 -0.028775
C67   C     C_R   0.500000 1.000000 0.349064 -0.028775
C68   C     C_R   0.500000 0.000000 0.650936 -0.028774
C69   C     C_R   0.500000 0.000000 0.849064 -0.028775
C70   C     C_R   0.500000 1.000000 0.150936 -0.028775
C71   C     C_R   0.000000 0.500000 0.849064 -0.028775
C72   C     C_R   1.000000 0.500000 0.150936 -0.028775
C73   C     C_R   1.000000 0.500000 0.403946 0.294960
C74   C     C_R   0.000000 0.500000 0.596054 0.294961
C75   C     C_R   0.500000 1.000000 0.403946 0.294963
C76   C     C_R   0.500000 0.000000 0.596054 0.294963
C77   C     C_R   0.500000 0.000000 0.903946 0.294959
C78   C     C_R   0.500000 1.000000 0.096054 0.294961
C79   C     C_R   1.000000 0.500000 0.903946 0.294961
C80   C     C_R   1.000000 0.500000 0.096054 0.294962
C81   C     C_R   0.908756 0.591244 0.250000 0.885916
C82   C     C_R   0.091244 0.408756 0.750000 0.885916
C83   C     C_R   0.408756 0.908756 0.250000 0.886559
C84   C     C_R   0.591244 0.091244 0.750000 0.886559
C85   C     C_R   0.091244 0.408756 0.250000 0.885915
C86   C     C_R   0.908756 0.591244 0.750000 0.885915
C87   C     C_R   0.591244 0.091244 0.250000 0.886559
C88   C     C_R   0.408756 0.908756 0.750000 0.886559
C89   C     C_R   0.908756 0.408756 0.750000 0.886559
C90   C     C_R   0.091244 0.591244 0.250000 0.886559
C91   C     C_R   0.408756 0.091244 0.750000 0.885916
C92   C     C_R   0.591244 0.908756 0.250000 0.885916
C93   C     C_R   0.091244 0.591244 0.750000 0.886559
C94   C     C_R   0.908756 0.408756 0.250000 0.886559
C95   C     C_R   0.591244 0.908756 0.750000 0.885915
C96   C     C_R   0.408756 0.091244 0.250000 0.885915
C97   C     C_R   0.340449 0.796565 0.233717 -0.234170
C98   C     C_R   0.659551 0.203435 0.766283 -0.234171
C99   C     C_R   0.203464 0.340478 0.233741 -0.235133
C100  C     C_R   0.796536 0.659522 0.766259 -0.235134
C101  C     C_R   0.659551 0.203435 0.233717 -0.234171
C102  C     C_R   0.340449 0.796565 0.766283 -0.234170
C103  C     C_R   0.796536 0.659522 0.233741 -0.235133
C104  C     C_R   0.203464 0.340478 0.766259 -0.235133
C105  C     C_R   0.340478 0.203464 0.766259 -0.235133
C106  C     C_R   0.659522 0.796536 0.233741 -0.235134
C107  C     C_R   0.203435 0.659550 0.766283 -0.234171
C108  C     C_R   0.796565 0.340449 0.233717 -0.234171
C109  C     C_R   0.659522 0.796536 0.766259 -0.235133
C110  C     C_R   0.340478 0.203464 0.233741 -0.235134
C111  C     C_R   0.796565 0.340449 0.766283 -0.234172
C112  C     C_R   0.203435 0.659551 0.233717 -0.234172
C113  C     C_R   0.840449 0.296565 0.733717 -0.234171
C114  C     C_R   0.159550 0.703435 0.266283 -0.234171
C115  C     C_R   0.703464 0.840478 0.733741 -0.235134
C116  C     C_R   0.296536 0.159522 0.266259 -0.235134
C117  C     C_R   0.159550 0.703435 0.733717 -0.234171
C118  C     C_R   0.840449 0.296565 0.266283 -0.234171
C119  C     C_R   0.296536 0.159522 0.733741 -0.235134
C120  C     C_R   0.703464 0.840478 0.266259 -0.235134
C121  C     C_R   0.840478 0.703464 0.266259 -0.235134
C122  C     C_R   0.159522 0.296536 0.733741 -0.235134
C123  C     C_R   0.703435 0.159550 0.266283 -0.234171
C124  C     C_R   0.296565 0.840449 0.733717 -0.234171
C125  C     C_R   0.159522 0.296536 0.266259 -0.235133
C126  C     C_R   0.840478 0.703464 0.733741 -0.235133
C127  C     C_R   0.296565 0.840449 0.266283 -0.234171
C128  C     C_R   0.703435 0.159550 0.733717 -0.234170
C129  C     C_R   0.375597 0.831483 0.233632 0.592328
C130  C     C_R   0.624403 0.168517 0.766368 0.592329
C131  C     C_R   0.168545 0.375625 0.233656 0.591414
C132  C     C_R   0.831455 0.624374 0.766344 0.591416
C133  C     C_R   0.624403 0.168516 0.233632 0.592329
C134  C     C_R   0.375597 0.831483 0.766368 0.592329
C135  C     C_R   0.831455 0.624374 0.233655 0.591415
C136  C     C_R   0.168545 0.375626 0.766344 0.591415
C137  C     C_R   0.375626 0.168545 0.766344 0.591414
C138  C     C_R   0.624374 0.831455 0.233655 0.591415
C139  C     C_R   0.168516 0.624403 0.766368 0.592329
C140  C     C_R   0.831483 0.375597 0.233632 0.592329
C141  C     C_R   0.624374 0.831455 0.766344 0.591414
C142  C     C_R   0.375626 0.168545 0.233655 0.591416
C143  C     C_R   0.831483 0.375597 0.766368 0.592330
C144  C     C_R   0.168517 0.624403 0.233632 0.592330
C145  C     C_R   0.875597 0.331483 0.733632 0.592330
C146  C     C_R   0.124403 0.668516 0.266368 0.592329
C147  C     C_R   0.668545 0.875625 0.733656 0.591416
C148  C     C_R   0.331455 0.124374 0.266344 0.591416
C149  C     C_R   0.124403 0.668516 0.733632 0.592329
C150  C     C_R   0.875597 0.331483 0.266368 0.592329
C151  C     C_R   0.331455 0.124374 0.733656 0.591416
C152  C     C_R   0.668545 0.875625 0.266344 0.591415
C153  C     C_R   0.875625 0.668545 0.266344 0.591415
C154  C     C_R   0.124374 0.331455 0.733656 0.591415
C155  C     C_R   0.668516 0.124403 0.266368 0.592329
C156  C     C_R   0.331483 0.875597 0.733632 0.592329
C157  C     C_R   0.124374 0.331455 0.266344 0.591414
C158  C     C_R   0.875625 0.668545 0.733656 0.591414
C159  C     C_R   0.331483 0.875597 0.266368 0.592327
C160  C     C_R   0.668516 0.124403 0.733632 0.592328
C161  C     C_R   0.371578 0.871577 0.250000 -0.320191
C162  C     C_R   0.628422 0.128422 0.750000 -0.320191
C163  C     C_R   0.128422 0.371577 0.250000 -0.319660
C164  C     C_R   0.871578 0.628422 0.750000 -0.319660
C165  C     C_R   0.628422 0.128422 0.250000 -0.320192
C166  C     C_R   0.371578 0.871577 0.750000 -0.320191
C167  C     C_R   0.871578 0.628422 0.250000 -0.319661
C168  C     C_R   0.128422 0.371577 0.750000 -0.319661
C169  C     C_R   0.371578 0.128422 0.750000 -0.319660
C170  C     C_R   0.628422 0.871577 0.250000 -0.319661
C171  C     C_R   0.128422 0.628422 0.750000 -0.320191
C172  C     C_R   0.871578 0.371577 0.250000 -0.320191
C173  C     C_R   0.628422 0.871577 0.750000 -0.319660
C174  C     C_R   0.371578 0.128422 0.250000 -0.319661
C175  C     C_R   0.871578 0.371577 0.750000 -0.320191
C176  C     C_R   0.128422 0.628422 0.250000 -0.320192
C177  C     C_R   0.301028 0.801028 0.250000 -0.054968
C178  C     C_R   0.698972 0.198972 0.750000 -0.054968
C179  C     C_R   0.198972 0.301028 0.250000 -0.054409
C180  C     C_R   0.801028 0.698972 0.750000 -0.054408
C181  C     C_R   0.698972 0.198972 0.250000 -0.054968
C182  C     C_R   0.301028 0.801028 0.750000 -0.054968
C183  C     C_R   0.801028 0.698972 0.250000 -0.054408
C184  C     C_R   0.198972 0.301028 0.750000 -0.054408
C185  C     C_R   0.301028 0.198972 0.750000 -0.054409
C186  C     C_R   0.698972 0.801028 0.250000 -0.054408
C187  C     C_R   0.198972 0.698972 0.750000 -0.054968
C188  C     C_R   0.801028 0.301028 0.250000 -0.054968
C189  C     C_R   0.698972 0.801028 0.750000 -0.054409
C190  C     C_R   0.301028 0.198972 0.250000 -0.054408
C191  C     C_R   0.801028 0.301028 0.750000 -0.054967
C192  C     C_R   0.198972 0.698972 0.250000 -0.054967
C193  C     C_1   0.265078 0.765078 0.250000 0.045227
C194  C     C_1   0.734922 0.234922 0.750000 0.045227
C195  C     C_1   0.234922 0.265078 0.250000 0.044214
C196  C     C_1   0.765078 0.734922 0.750000 0.044214
C197  C     C_1   0.734922 0.234922 0.250000 0.045227
C198  C     C_1   0.265078 0.765078 0.750000 0.045227
C199  C     C_1   0.765078 0.734922 0.250000 0.044214
C200  C     C_1   0.234922 0.265078 0.750000 0.044214
C201  C     C_1   0.265078 0.234922 0.750000 0.044214
C202  C     C_1   0.734922 0.765078 0.250000 0.044214
C203  C     C_1   0.234922 0.734922 0.750000 0.045227
C204  C     C_1   0.765078 0.265078 0.250000 0.045227
C205  C     C_1   0.734922 0.765078 0.750000 0.044214
C206  C     C_1   0.265078 0.234922 0.250000 0.044214
C207  C     C_1   0.765078 0.265078 0.750000 0.045227
C208  C     C_1   0.234922 0.734922 0.250000 0.045227
C209  C     C_R   0.461418 0.982405 0.054879 0.513290
C210  C     C_R   0.538582 0.017595 0.945121 0.513290
C211  C     C_R   0.982410 0.461415 0.054879 0.513291
C212  C     C_R   0.017589 0.538585 0.945121 0.513291
C213  C     C_R   0.538582 0.017595 0.054879 0.513291
C214  C     C_R   0.461418 0.982405 0.945121 0.513290
C215  C     C_R   0.017589 0.538585 0.054879 0.513290
C216  C     C_R   0.982411 0.461415 0.945121 0.513290
C217  C     C_R   0.961417 0.482407 0.554879 0.513291
C218  C     C_R   0.038583 0.517593 0.445121 0.513290
C219  C     C_R   0.482410 0.961415 0.554879 0.513291
C220  C     C_R   0.517590 0.038585 0.445121 0.513291
C221  C     C_R   0.038583 0.517593 0.554879 0.513291
C222  C     C_R   0.961417 0.482407 0.445121 0.513290
C223  C     C_R   0.517589 0.038585 0.554879 0.513290
C224  C     C_R   0.482411 0.961415 0.445121 0.513290
C225  C     C_R   0.539323 0.018048 0.027507 -0.021021
C226  C     C_R   0.460677 0.981952 0.972493 -0.021021
C227  C     C_R   0.018043 0.539326 0.027507 -0.021021
C228  C     C_R   0.981957 0.460674 0.972493 -0.021021
C229  C     C_R   0.460677 0.981951 0.027507 -0.021021
C230  C     C_R   0.539323 0.018048 0.972493 -0.021021
C231  C     C_R   0.981957 0.460674 0.027507 -0.021021
C232  C     C_R   0.018043 0.539326 0.972493 -0.021021
C233  C     C_R   0.039324 0.518046 0.527507 -0.021021
C234  C     C_R   0.960676 0.481953 0.472493 -0.021021
C235  C     C_R   0.518043 0.039326 0.527507 -0.021021
C236  C     C_R   0.481957 0.960674 0.472492 -0.021021
C237  C     C_R   0.960676 0.481953 0.527507 -0.021021
C238  C     C_R   0.039324 0.518046 0.472493 -0.021021
C239  C     C_R   0.481957 0.960674 0.527507 -0.021021
C240  C     C_R   0.518043 0.039326 0.472493 -0.021021
H1    H     H_    0.344016 0.765997 0.221056 0.192157
H2    H     H_    0.655984 0.234003 0.778944 0.192157
H3    H     H_    0.234054 0.344067 0.221098 0.191791
H4    H     H_    0.765946 0.655933 0.778902 0.191791
H5    H     H_    0.655984 0.234003 0.221056 0.192157
H6    H     H_    0.344016 0.765997 0.778944 0.192157
H7    H     H_    0.765946 0.655933 0.221098 0.191791
H8    H     H_    0.234054 0.344067 0.778902 0.191791
H9    H     H_    0.344067 0.234054 0.778902 0.191792
H10   H     H_    0.655933 0.765946 0.221098 0.191791
H11   H     H_    0.234003 0.655984 0.778944 0.192157
H12   H     H_    0.765997 0.344016 0.221056 0.192157
H13   H     H_    0.655933 0.765946 0.778902 0.191791
H14   H     H_    0.344067 0.234054 0.221098 0.191791
H15   H     H_    0.765997 0.344016 0.778944 0.192157
H16   H     H_    0.234003 0.655984 0.221056 0.192157
H17   H     H_    0.844016 0.265997 0.721056 0.192157
H18   H     H_    0.155984 0.734003 0.278944 0.192157
H19   H     H_    0.734054 0.844067 0.721098 0.191791
H20   H     H_    0.265946 0.155933 0.278902 0.191791
H21   H     H_    0.155984 0.734003 0.721056 0.192157
H22   H     H_    0.844016 0.265997 0.278944 0.192157
H23   H     H_    0.265946 0.155933 0.721098 0.191791
H24   H     H_    0.734054 0.844067 0.278902 0.191792
H25   H     H_    0.844067 0.734054 0.278902 0.191792
H26   H     H_    0.155933 0.265946 0.721098 0.191792
H27   H     H_    0.734003 0.155984 0.278944 0.192157
H28   H     H_    0.265997 0.844016 0.721056 0.192157
H29   H     H_    0.155933 0.265946 0.278902 0.191791
H30   H     H_    0.844067 0.734054 0.721098 0.191791
H31   H     H_    0.265997 0.844016 0.278944 0.192157
H32   H     H_    0.734003 0.155984 0.721056 0.192157
H33   H     H_    0.609103 0.050012 0.023661 0.197892
H34   H     H_    0.390897 0.949987 0.976339 0.197891
H35   H     H_    0.049997 0.609110 0.023661 0.197891
H36   H     H_    0.950003 0.390890 0.976339 0.197891
H37   H     H_    0.390897 0.949987 0.023661 0.197891
H38   H     H_    0.609103 0.050012 0.976339 0.197891
H39   H     H_    0.950003 0.390890 0.023661 0.197891
H40   H     H_    0.049997 0.609110 0.976339 0.197891
H41   H     H_    0.109106 0.550007 0.523661 0.197891
H42   H     H_    0.890894 0.449993 0.476339 0.197891
H43   H     H_    0.549998 0.109110 0.523661 0.197891
H44   H     H_    0.450002 0.890890 0.476339 0.197891
H45   H     H_    0.890894 0.449993 0.523661 0.197892
H46   H     H_    0.109106 0.550007 0.476339 0.197892
H47   H     H_    0.450002 0.890890 0.523661 0.197891
H48   H     H_    0.549998 0.109110 0.476339 0.197891
H49   H     H_    0.000208 0.423596 0.400586 0.158487
H50   H     H_    0.000209 0.423596 0.599414 0.158487
H51   H     H_    0.423596 0.000203 0.400586 0.158486
H52   H     H_    0.423596 0.000203 0.599414 0.158486
H53   H     H_    0.999792 0.576404 0.400586 0.158487
H54   H     H_    0.999791 0.576404 0.599414 0.158486
H55   H     H_    0.576404 0.999796 0.400586 0.158486
H56   H     H_    0.576404 0.999796 0.599414 0.158486
H57   H     H_    0.500210 0.923596 0.900586 0.158488
H58   H     H_    0.500213 0.923596 0.099414 0.158487
H59   H     H_    0.923596 0.500203 0.900586 0.158486
H60   H     H_    0.923596 0.500203 0.099414 0.158486
H61   H     H_    0.499790 0.076404 0.900586 0.158488
H62   H     H_    0.499787 0.076404 0.099414 0.158487
H63   H     H_    0.076404 0.499797 0.900586 0.158486
H64   H     H_    0.076404 0.499797 0.099414 0.158486
H65   H     H_    0.000073 0.423267 0.352835 0.191098
H66   H     H_    0.000074 0.423267 0.647164 0.191098
H67   H     H_    0.423267 0.000069 0.352836 0.191098
H68   H     H_    0.423267 0.000069 0.647164 0.191097
H69   H     H_    0.999927 0.576733 0.352836 0.191098
H70   H     H_    0.999926 0.576733 0.647165 0.191098
H71   H     H_    0.576733 0.999931 0.352836 0.191098
H72   H     H_    0.576733 0.999931 0.647164 0.191098
H73   H     H_    0.500075 0.923267 0.852835 0.191098
H74   H     H_    0.500078 0.923267 0.147165 0.191098
H75   H     H_    0.923267 0.500068 0.852835 0.191097
H76   H     H_    0.923267 0.500069 0.147164 0.191098
H77   H     H_    0.499925 0.076733 0.852835 0.191098
H78   H     H_    0.499921 0.076733 0.147165 0.191098
H79   H     H_    0.076733 0.499932 0.852835 0.191098
H80   H     H_    0.076733 0.499931 0.147165 0.191098
N1    N     N_R   0.500000 1.000000 0.068006 -0.356019
N2    N     N_R   0.500000 0.000000 0.931994 -0.356019
N3    N     N_R   1.000000 0.500000 0.068006 -0.356019
N4    N     N_R   1.000000 0.500000 0.931994 -0.356019
N5    N     N_R   0.000000 0.500000 0.568006 -0.356019
N6    N     N_R   1.000000 0.500000 0.431994 -0.356019
N7    N     N_R   0.500000 0.000000 0.568006 -0.356019
N8    N     N_R   0.500000 1.000000 0.431994 -0.356019
O1    O     O_3   0.000000 0.500000 0.250000 -0.542608
O2    O     O_3   0.000000 0.500000 0.750000 -0.542608
O3    O     O_3   0.500000 0.000000 0.250000 -0.542608
O4    O     O_3   0.500000 0.000000 0.750000 -0.542608
O5    O     O_R   0.039230 0.500000 0.192340 -0.630485
O6    O     O_R   0.960770 0.500000 0.807660 -0.630485
O7    O     O_R   0.500000 0.039230 0.192340 -0.630485
O8    O     O_R   0.500000 0.960770 0.807660 -0.630485
O9    O     O_R   0.960770 0.500000 0.192340 -0.630486
O10   O     O_R   0.039230 0.500000 0.807660 -0.630485
O11   O     O_R   0.500000 0.960770 0.192340 -0.630485
O12   O     O_R   0.500000 0.039230 0.807660 -0.630485
O13   O     O_R   0.539230 0.000000 0.692340 -0.630485
O14   O     O_R   0.460770 0.000000 0.307660 -0.630485
O15   O     O_R   0.000000 0.539230 0.692340 -0.630485
O16   O     O_R   0.000000 0.460770 0.307660 -0.630485
O17   O     O_R   0.460770 0.000000 0.692340 -0.630486
O18   O     O_R   0.539230 0.000000 0.307660 -0.630485
O19   O     O_R   0.000000 0.460770 0.692340 -0.630485
O20   O     O_R   0.000000 0.539230 0.307660 -0.630485
O21   O     O_R   0.905530 0.555290 0.235160 -0.577793
O22   O     O_R   0.094470 0.444710 0.764840 -0.577793
O23   O     O_R   0.444710 0.905530 0.235160 -0.577535
O24   O     O_R   0.555290 0.094470 0.764840 -0.577535
O25   O     O_R   0.094470 0.444710 0.235160 -0.577793
O26   O     O_R   0.905530 0.555290 0.764840 -0.577792
O27   O     O_R   0.555290 0.094470 0.235160 -0.577534
O28   O     O_R   0.444710 0.905530 0.764840 -0.577534
O29   O     O_R   0.905530 0.444710 0.764840 -0.577534
O30   O     O_R   0.094470 0.555290 0.235160 -0.577534
O31   O     O_R   0.444710 0.094470 0.764840 -0.577792
O32   O     O_R   0.555290 0.905530 0.235160 -0.577793
O33   O     O_R   0.094470 0.555290 0.764840 -0.577535
O34   O     O_R   0.905530 0.444710 0.235160 -0.577535
O35   O     O_R   0.555290 0.905530 0.764840 -0.577792
O36   O     O_R   0.444710 0.094470 0.235160 -0.577793
O37   O     O_R   0.405530 0.055290 0.735160 -0.577793
O38   O     O_R   0.594470 0.944710 0.264840 -0.577793
O39   O     O_R   0.944710 0.405530 0.735160 -0.577535
O40   O     O_R   0.055290 0.594470 0.264840 -0.577535
O41   O     O_R   0.594470 0.944710 0.735160 -0.577793
O42   O     O_R   0.405530 0.055290 0.264840 -0.577793
O43   O     O_R   0.055290 0.594470 0.735160 -0.577534
O44   O     O_R   0.944710 0.405530 0.264840 -0.577534
O45   O     O_R   0.405530 0.944710 0.264840 -0.577534
O46   O     O_R   0.594470 0.055290 0.735160 -0.577534
O47   O     O_R   0.944710 0.594470 0.264840 -0.577792
O48   O     O_R   0.055290 0.405530 0.735160 -0.577793
O49   O     O_R   0.594470 0.055290 0.264840 -0.577535
O50   O     O_R   0.405530 0.944710 0.735160 -0.577535
O51   O     O_R   0.055290 0.405530 0.264840 -0.577792
O52   O     O_R   0.944710 0.594470 0.735160 -0.577792
O53   O     O_2   0.423704 0.965782 0.068263 -0.542494
O54   O     O_2   0.576296 0.034217 0.931737 -0.542496
O55   O     O_2   0.965793 0.423699 0.068263 -0.542495
O56   O     O_2   0.034207 0.576301 0.931737 -0.542495
O57   O     O_2   0.576296 0.034217 0.068263 -0.542495
O58   O     O_2   0.423703 0.965783 0.931737 -0.542495
O59   O     O_2   0.034207 0.576301 0.068263 -0.542494
O60   O     O_2   0.965793 0.423699 0.931737 -0.542495
O61   O     O_2   0.923702 0.465786 0.568263 -0.542495
O62   O     O_2   0.076298 0.534213 0.431737 -0.542495
O63   O     O_2   0.465793 0.923699 0.568263 -0.542496
O64   O     O_2   0.534207 0.076301 0.431737 -0.542496
O65   O     O_2   0.076298 0.534213 0.568263 -0.542495
O66   O     O_2   0.923702 0.465787 0.431737 -0.542495
O67   O     O_2   0.534207 0.076301 0.568263 -0.542495
O68   O     O_2   0.465793 0.923699 0.431737 -0.542495
Zn1   Zn    Zn3+2 0.000000 0.556130 0.272120 1.060620
Zn2   Zn    Zn3+2 0.000000 0.443870 0.727880 1.060620
Zn3   Zn    Zn3+2 0.443870 0.000000 0.272120 1.060620
Zn4   Zn    Zn3+2 0.556130 0.000000 0.727880 1.060619
Zn5   Zn    Zn3+2 0.000000 0.443870 0.272120 1.060620
Zn6   Zn    Zn3+2 0.000000 0.556130 0.727880 1.060620
Zn7   Zn    Zn3+2 0.556130 0.000000 0.272120 1.060619
Zn8   Zn    Zn3+2 0.443870 0.000000 0.727880 1.060619
Zn9   Zn    Zn3+2 0.500000 0.056130 0.772120 1.060620
Zn10  Zn    Zn3+2 0.500000 0.943870 0.227880 1.060620
Zn11  Zn    Zn3+2 0.943870 0.500000 0.772120 1.060619
Zn12  Zn    Zn3+2 0.056130 0.500000 0.227880 1.060619
Zn13  Zn    Zn3+2 0.500000 0.943870 0.772120 1.060620
Zn14  Zn    Zn3+2 0.500000 0.056130 0.227880 1.060620
Zn15  Zn    Zn3+2 0.056130 0.500000 0.772120 1.060620
Zn16  Zn    Zn3+2 0.943870 0.500000 0.227880 1.060619
F1    F     F_    0.413368 0.825778 0.217522 -0.604153
F2    F     F_    0.586631 0.174222 0.782478 -0.604154
F3    F     F_    0.174281 0.413427 0.217570 -0.605001
F4    F     F_    0.825719 0.586572 0.782430 -0.605001
F5    F     F_    0.586631 0.174222 0.217522 -0.604153
F6    F     F_    0.413368 0.825778 0.782478 -0.604154
F7    F     F_    0.825719 0.586572 0.217570 -0.605001
F8    F     F_    0.174281 0.413427 0.782430 -0.605001
F9    F     F_    0.413427 0.174281 0.782430 -0.605001
F10   F     F_    0.586572 0.825719 0.217570 -0.605001
F11   F     F_    0.174222 0.586631 0.782478 -0.604155
F12   F     F_    0.825778 0.413368 0.217522 -0.604154
F13   F     F_    0.586572 0.825719 0.782430 -0.605001
F14   F     F_    0.413427 0.174281 0.217570 -0.605001
F15   F     F_    0.825778 0.413368 0.782478 -0.604155
F16   F     F_    0.174222 0.586631 0.217522 -0.604155
F17   F     F_    0.913368 0.325778 0.717522 -0.604154
F18   F     F_    0.086632 0.674222 0.282478 -0.604154
F19   F     F_    0.674281 0.913427 0.717570 -0.605001
F20   F     F_    0.325719 0.086572 0.282430 -0.605001
F21   F     F_    0.086632 0.674222 0.717522 -0.604154
F22   F     F_    0.913368 0.325778 0.282478 -0.604154
F23   F     F_    0.325719 0.086572 0.717570 -0.605001
F24   F     F_    0.674281 0.913427 0.282430 -0.605001
F25   F     F_    0.913427 0.674281 0.282430 -0.605001
F26   F     F_    0.086572 0.325719 0.717570 -0.605001
F27   F     F_    0.674222 0.086632 0.282478 -0.604155
F28   F     F_    0.325778 0.913368 0.717522 -0.604154
F29   F     F_    0.086572 0.325719 0.282430 -0.605001
F30   F     F_    0.913427 0.674281 0.717570 -0.605001
F31   F     F_    0.325778 0.913369 0.282478 -0.604153
F32   F     F_    0.674222 0.086632 0.717522 -0.604154

loop_
_geom_bond_atom_site_label_1
_geom_bond_atom_site_label_2
_ccdc_geom_bond_type
C111  C191  A    
C18   C21   A    
C122  C154  A    
C216  N4    A    
C102  H6    S    
C143  C175  A    
C42   C58   A    
C179  C195  S    
C220  O64   S    
C177  C193  S    
C46   C62   A    
C103  C183  A    
C30   C238  A    
C84   O24   A    
C212  C232  A    
C2    O10   A    
C60   C72   A    
C90   C176  S    
C62   C70   A    
C219  C239  A    
C212  N4    A    
C50   C66   A    
C94   C172  S    
C190  C206  S    
C150  C172  A    
C145  C175  A    
C92   C170  S    
C146  C176  A    
C125  C179  A    
C37   H53   S    
C159  C161  A    
C126  C180  A    
C53   H69   S    
C6    O14   A    
C130  F2    S    
C45   C61   A    
O2    Zn2   S    
C101  H5    S    
C193  C208  T    
C214  N2    A    
C113  C191  A    
C4    C69   S    
C108  C188  A    
C116  C148  A    
C211  N3    A    
C86   O26   A    
C120  C152  A    
C216  O60   S    
C102  C182  A    
C106  C186  A    
C121  H25   S    
C58   C70   A    
C13   C237  A    
C24   H40   S    
O3    Zn7   S    
C124  H28   S    
C103  H7    S    
C40   C76   A    
C140  F12   S    
C20   H36   S    
C124  C182  A    
C21   H37   S    
C152  C170  A    
C22   C230  A    
C156  C166  A    
C137  F9    S    
C81   C167  S    
C132  F4    S    
C96   C174  S    
C33   C73   A    
C63   C71   A    
C35   C51   A    
C218  C238  A    
C25   H41   S    
C2    C71   S    
C93   O43   A    
C28   H44   S    
C222  C234  A    
C11   C231  A    
C93   O33   A    
C126  H30   S    
C7    O15   A    
C17   H33   S    
C100  C132  A    
C101  C133  A    
C136  C168  A    
C61   C69   A    
C106  H10   S    
C95   C173  S    
C215  N3    A    
C123  C181  A    
C115  H19   S    
C48   C80   A    
O7    Zn14  S    
C47   C63   A    
C87   C165  S    
C110  H14   S    
C96   O36   A    
C5    O17   A    
C98   H2    S    
C48   C64   A    
O31   Zn9   S    
C209  N1    A    
C115  C189  A    
C87   O49   A    
C220  C240  A    
C117  C149  A    
C209  O53   S    
C23   C231  A    
C123  C155  A    
C7    C66   S    
O17   Zn8   S    
C187  C203  S    
C7    O19   A    
C149  F21   S    
C60   H76   S    
C61   H77   S    
C194  C207  T    
C186  C202  S    
C216  C228  A    
O9    Zn16  S    
C108  H12   S    
O45   Zn3   S    
C153  F25   S    
O46   Zn4   S    
O44   Zn5   S    
C185  C201  S    
C10   C230  A    
O32   Zn10  S    
C19   C227  A    
C94   O34   A    
C17   C225  A    
C35   H51   S    
O51   Zn5   S    
C184  C200  S    
C78   N1    S    
C133  F5    S    
C212  O56   S    
C199  C202  T    
O49   Zn7   S    
C45   H61   S    
C98   C178  A    
C53   C65   A    
C9    C10   A    
C144  F16   S    
C100  H4    S    
C74   N5    S    
C43   C59   A    
O19   Zn2   S    
C37   C53   A    
C130  C162  A    
C143  F15   S    
C8    C65   S    
C127  H31   S    
C13   C14   A    
C128  H32   S    
C95   O41   A    
C15   C239  A    
C129  F1    S    
C1    C72   S    
C91   C169  S    
C3    C70   S    
O48   Zn2   S    
C23   H39   S    
C191  C207  S    
C40   C56   A    
C52   C68   A    
C56   C68   A    
C188  C204  S    
C160  C162  A    
C1    O5    A    
C20   C23   A    
C90   O40   A    
C3    O7    A    
C144  C176  A    
C52   H68   S    
C129  C161  A    
C51   C67   A    
C139  C171  A    
C28   C236  A    
C6    C67   S    
C39   H55   S    
C40   H56   S    
O37   Zn8   S    
C221  O65   S    
O38   Zn7   S    
C100  C180  A    
C217  C237  A    
C219  O63   S    
C122  H26   S    
C13   C233  A    
C38   C74   A    
C224  N8    A    
C29   H45   S    
C104  C136  A    
C221  C233  A    
C149  C171  A    
O21   Zn16  S    
C31   H47   S    
C32   H48   S    
C180  C196  S    
C22   H38   S    
C42   C78   A    
C8    O20   A    
C217  N5    A    
C36   C52   A    
C88   C166  S    
C20   C228  A    
O41   Zn4   S    
C150  F22   S    
O42   Zn3   S    
O50   Zn8   S    
O3    Zn14  S    
C195  C206  T    
O4    Zn9   S    
O25   Zn12  S    
C215  C227  A    
C107  C139  A    
C26   H42   S    
C213  C225  A    
C105  C137  A    
C16   C240  A    
C11   C227  A    
C215  O59   S    
C38   H54   S    
C80   N3    S    
C135  C167  A    
C9    C225  A    
C112  H16   S    
C213  O57   S    
C134  F6    S    
C211  O55   S    
C222  N6    A    
O28   Zn13  S    
C2    O6    A    
O15   Zn6   S    
C81   O21   A    
C57   H73   S    
C83   O23   A    
C141  F13   S    
C101  C181  A    
O8    Zn13  S    
C82   C168  S    
C139  F11   S    
C178  C194  S    
O43   Zn6   S    
C121  C153  A    
C63   H79   S    
C64   H80   S    
C145  F17   S    
C49   H65   S    
C3    O11   A    
C41   C77   A    
C125  C157  A    
C12   C228  A    
C217  O61   S    
C160  F32   S    
O3    Zn10  S    
C33   C49   A    
O27   Zn14  S    
C115  C147  A    
O4    Zn13  S    
C55   C67   A    
C197  C204  T    
C113  C145  A    
C118  C150  A    
C55   H71   S    
C37   C73   A    
C56   H72   S    
O39   Zn2   S    
C41   H57   S    
C39   C55   A    
C189  C205  S    
C104  H8    S    
C4    O12   A    
C134  C166  A    
C58   H74   S    
C89   O39   A    
O11   Zn10  S    
C117  H21   S    
C91   O37   A    
C181  C197  S    
C75   N8    S    
C153  C167  A    
C111  H15   S    
C154  C168  A    
C113  H17   S    
C5    C68   S    
C222  O66   S    
C154  F26   S    
O13   Zn4   S    
C50   H66   S    
O14   Zn3   S    
C85   O51   A    
C210  N2    A    
C85   O25   A    
C92   O32   A    
C127  C177  A    
C44   C80   A    
C223  N7    A    
C14   C238  A    
C210  O54   S    
C42   H58   S    
O52   Zn6   S    
O29   Zn11  S    
O1    Zn5   S    
O40   Zn1   S    
C224  O68   S    
C221  N5    A    
C54   H70   S    
C99   C179  A    
O18   Zn7   S    
C82   O22   A    
C133  C165  A    
C112  C192  A    
C223  O67   S    
C38   C54   A    
C82   O48   A    
C21   C229  A    
C98   C130  A    
C210  C230  A    
C88   O28   A    
C148  F20   S    
O3    Zn3   S    
C34   C74   A    
C54   C66   A    
O10   Zn15  S    
O4    Zn4   S    
O33   Zn15  S    
C157  F29   S    
O34   Zn16  S    
O1    Zn12  S    
C57   C69   A    
C85   C163  S    
C155  F27   S    
O2    Zn11  S    
C86   C164  S    
C89   C175  S    
C84   C162  S    
C46   C78   A    
C25   C30   A    
C31   C239  A    
C93   C171  S    
C109  C141  A    
C27   C32   A    
C28   C31   A    
C79   N4    S    
C24   C232  A    
C151  C169  A    
C33   H49   S    
C147  C173  A    
C99   C131  A    
C17   C22   A    
C107  H11   S    
C142  F14   S    
C219  N7    A    
C19   C24   A    
C224  C236  A    
C41   C57   A    
C86   O52   A    
C96   O42   A    
C44   C60   A    
C105  H9    S    
C110  C190  A    
C95   O35   A    
C99   H3    S    
C218  O62   S    
C148  C174  A    
C97   H1    S    
C123  H27   S    
O36   Zn14  S    
O4    Zn8   S    
C88   O50   A    
C15   C235  A    
C198  C203  T    
C30   H46   S    
C220  N8    A    
C8    O16   A    
C152  F24   S    
C138  C170  A    
C151  F23   S    
C182  C198  S    
C47   C79   A    
C109  H13   S    
C132  C164  A    
C211  C231  A    
C142  C174  A    
O1    Zn1   S    
C131  F3    S    
C35   C75   A    
C49   C65   A    
C27   H43   S    
C106  C138  A    
C16   C236  A    
C43   C79   A    
C15   C16   A    
C107  C187  A    
C9    C229  A    
C136  F8    S    
C105  C185  A    
C196  C205  T    
C110  C142  A    
C103  C135  A    
C214  O58   S    
C36   C76   A    
C89   O29   A    
C135  F7    S    
C119  H23   S    
C91   O31   A    
C200  C201  T    
C120  H24   S    
C77   N2    S    
C218  N6    A    
C131  C163  A    
C18   C226  A    
C81   O47   A    
C87   O27   A    
C116  H20   S    
C27   C235  A    
C138  F10   S    
C73   N6    S    
C83   O45   A    
C122  C184  A    
C83   C161  S    
C25   C233  A    
C140  C172  A    
C97   C177  A    
C141  C173  A    
C192  C208  S    
C92   O38   A    
C146  F18   S    
O5    Zn12  S    
C29   C237  A    
O6    Zn11  S    
C12   C232  A    
O26   Zn11  S    
C126  C158  A    
C119  C151  A    
C155  C165  A    
C19   H35   S    
C111  C143  A    
C34   C50   A    
C114  C192  A    
C114  C146  A    
C84   O46   A    
C117  C187  A    
C109  C189  A    
C108  C140  A    
C118  C188  A    
O22   Zn15  S    
C32   C240  A    
C183  C199  S    
C125  H29   S    
C119  C185  A    
C46   H62   S    
C59   H75   S    
C118  H22   S    
O16   Zn5   S    
C44   H60   S    
C156  F28   S    
O23   Zn10  S    
O35   Zn13  S    
O20   Zn1   S    
C114  H18   S    
C223  C235  A    
C51   H67   S    
C4    O8    A    
C39   C75   A    
C124  C156  A    
C147  F19   S    
C128  C178  A    
C1    O9    A    
C127  C159  A    
C14   C234  A    
C128  C160  A    
C159  F31   S    
C36   H52   S    
C116  C190  A    
C90   O30   A    
C104  C184  A    
C137  C169  A    
O2    Zn6   S    
C47   H63   S    
C157  C163  A    
C48   H64   S    
C120  C186  A    
C45   C77   A    
C11   C12   A    
C158  C164  A    
C121  C183  A    
C5    O13   A    
C112  C144  A    
C97   C129  A    
O12   Zn9   S    
C213  N1    A    
C26   C234  A    
O47   Zn1   S    
O24   Zn9   S    
C158  F30   S    
O1    Zn16  S    
O2    Zn15  S    
C64   C72   A    
C214  C226  A    
C209  C229  A    
C43   H59   S    
C102  C134  A    
C26   C29   A    
C62   H78   S    
C59   C71   A    
C10   C226  A    
C94   O44   A    
C18   H34   S    
C6    O18   A    
O30   Zn12  S    
C34   H50   S    
C76   N7    S    
