data_mof_unit_7698.cif
_audit_creation_date              2012-12-10T18:09:30-0500
_audit_creation_method            fapswitch 2.2
_symmetry_space_group_name_H-M    P1
_symmetry_Int_Tables_number       1
_space_group_crystal_system       triclinic
_cell_length_a                    15.010911
_cell_length_b                    15.599167
_cell_length_c                    9.525735
_cell_angle_alpha                 89.903889
_cell_angle_beta                  89.634422
_cell_angle_gamma                 89.61185
_cell_volume                      2230.42470532

loop_
_atom_site_label
_atom_site_type_symbol
_atom_type_description
_atom_site_fract_x
_atom_site_fract_y
_atom_site_fract_z
_atom_type_partial_charge
C1    C     C_R   0.123093 0.383759 0.499550 0.799317
C2    C     C_R   0.122831 0.616347 0.499827 0.799315
C3    C     C_R   0.622006 0.882379 0.499629 0.784574
C4    C     C_R   0.619175 0.120318 0.498957 0.802488
C5    C     C_3   0.069773 0.560996 0.084935 0.566240
C6    C     C_3   0.065932 0.564819 0.914309 0.571967
C7    C     C_3   0.564440 0.066037 0.085108 0.630575
C8    C     C_3   0.560394 0.070302 0.915119 0.577675
C9    C     C_R   0.879067 0.380441 0.501075 0.817856
C10   C     C_R   0.881211 0.621227 0.499914 0.784191
C11   C     C_R   0.380575 0.878644 0.500562 0.786142
C12   C     C_R   0.380633 0.120926 0.500130 0.765160
C13   C     C_3   0.853329 0.220783 0.516089 0.131311
C14   C     C_3   0.758547 0.310664 0.359062 0.180018
C15   C     C_3   0.842249 0.767992 0.592566 0.162130
C16   C     C_3   0.800235 0.729359 0.347219 0.175529
C17   C     C_3   0.306753 0.761129 0.648590 0.118230
C18   C     C_3   0.338156 0.734284 0.396283 0.168434
C19   C     C_3   0.341341 0.267255 0.596401 0.189037
C20   C     C_3   0.301339 0.230579 0.348532 0.200961
C21   C     C_3   0.232008 0.694014 0.648041 -0.435613
C22   C     C_3   0.269083 0.660804 0.399026 -0.461476
C23   C     C_3   0.268267 0.338246 0.601649 -0.462839
C24   C     C_3   0.233381 0.305350 0.349757 -0.470570
C25   C     C_3   0.779861 0.151557 0.532087 -0.451685
C26   C     C_3   0.693085 0.234331 0.351395 -0.480229
C27   C     C_3   0.766708 0.835864 0.602765 -0.457511
C28   C     C_3   0.732792 0.804570 0.349789 -0.468796
C29   C     C_3   0.736911 0.322180 0.629493 0.319144
C30   C     C_3   0.718197 0.655204 0.552467 0.307727
C31   C     C_3   0.214063 0.844546 0.465981 0.329093
C32   C     C_3   0.216431 0.156656 0.550929 0.287724
C33   C     C_3   0.808453 0.311398 0.504344 0.016619
C34   C     C_3   0.811342 0.690570 0.499329 0.078384
C35   C     C_3   0.310822 0.807988 0.502039 0.081862
C36   C     C_3   0.310797 0.190750 0.500362 0.022124
C37   C     C_3   0.191930 0.683672 0.499791 0.021345
C38   C     C_3   0.192419 0.316143 0.498672 0.000767
C39   C     C_3   0.686694 0.189783 0.496494 0.012083
C40   C     C_3   0.691219 0.814258 0.498686 0.033810
C41   C     C_3   0.148127 0.768359 0.451442 -0.411320
C42   C     C_3   0.148008 0.231696 0.544733 -0.344436
C43   C     C_3   0.658744 0.260137 0.602159 -0.373886
C44   C     C_3   0.647531 0.728745 0.542944 -0.418286
C45   C     C_3   0.913926 0.529292 0.084625 0.242090
C46   C     C_3   0.911222 0.520614 0.918458 0.183742
C47   C     C_3   0.020964 0.412731 0.082894 0.219015
C48   C     C_3   0.031001 0.415343 0.916330 0.265677
C49   C     C_3   0.412037 0.023972 0.084491 0.242479
C50   C     C_3   0.410324 0.017360 0.918307 0.197220
C51   C     C_3   0.528228 0.914604 0.083286 0.222430
C52   C     C_3   0.536987 0.917457 0.917628 0.209711
Cu1   Cu    Cu3+1 0.000100 0.500000 0.642410 1.064405
Cu2   Cu    Cu3+1 0.000100 0.500000 0.357590 1.062894
Cu3   Cu    Cu3+1 0.500100 0.000000 0.642410 1.018452
Cu4   Cu    Cu3+1 0.500100 0.000000 0.357590 1.062533
H1    H     H_    0.891354 0.208089 0.417010 0.106579
H2    H     H_    0.808319 0.300361 0.273626 0.191203
H3    H     H_    0.901069 0.798084 0.540171 0.069973
H4    H     H_    0.865693 0.755834 0.313390 0.134460
H5    H     H_    0.371877 0.727983 0.666529 0.105594
H6    H     H_    0.404193 0.707827 0.428963 0.076920
H7    H     H_    0.401566 0.296044 0.546938 0.106171
H8    H     H_    0.367062 0.257728 0.317631 0.138135
H9    H     H_    0.260300 0.631663 0.683734 0.166206
H10   H     H_    0.301906 0.600121 0.433245 0.134156
H11   H     H_    0.298084 0.401027 0.572497 0.145811
H12   H     H_    0.267335 0.365686 0.317990 0.159252
H13   H     H_    0.795571 0.097320 0.460053 0.141962
H14   H     H_    0.717575 0.187725 0.271449 0.215390
H15   H     H_    0.794183 0.900453 0.579127 0.129537
H16   H     H_    0.767359 0.864976 0.320142 0.154298
H17   H     H_    0.178357 0.713222 0.722967 0.252148
H18   H     H_    0.242858 0.649379 0.291771 0.247963
H19   H     H_    0.240656 0.345840 0.709602 0.199900
H20   H     H_    0.180110 0.294591 0.271309 0.198003
H21   H     H_    0.779104 0.124375 0.640017 0.213226
H22   H     H_    0.626022 0.256910 0.318361 0.197199
H23   H     H_    0.739421 0.838099 0.711693 0.210273
H24   H     H_    0.679936 0.794892 0.270252 0.206164
H25   H     H_    0.085764 0.780233 0.512629 0.150066
H26   H     H_    0.125670 0.761072 0.341067 0.175605
H27   H     H_    0.115256 0.241067 0.648922 0.182982
H28   H     H_    0.093278 0.216738 0.470278 0.164674
H29   H     H_    0.635885 0.231930 0.702070 0.213173
H30   H     H_    0.599375 0.295161 0.561143 0.151253
H31   H     H_    0.611860 0.736845 0.644957 0.185425
H32   H     H_    0.595132 0.712660 0.465116 0.162882
H33   H     H_    0.904146 0.598481 0.108946 0.156067
H34   H     H_    0.887123 0.582658 0.875027 0.141290
H35   H     H_    0.085312 0.389095 0.124125 0.108877
H36   H     H_    0.103092 0.405357 0.891748 0.085051
H37   H     H_    0.397608 0.092227 0.109940 0.186409
H38   H     H_    0.385648 0.080239 0.878254 0.171006
H39   H     H_    0.594595 0.896667 0.124343 0.122147
H40   H     H_    0.609536 0.912572 0.898583 0.079938
N1    N     N_3   0.001260 0.500000 0.143650 -0.198405
N2    N     N_3   0.001260 0.500000 0.856350 -0.181785
N3    N     N_3   0.501260 0.000000 0.143650 -0.221497
N4    N     N_3   0.501260 0.000000 0.856350 -0.229589
O1    O     O_R   0.091250 0.408820 0.620260 -0.555836
O2    O     O_R   0.091250 0.408820 0.379740 -0.580523
O3    O     O_R   0.091250 0.591180 0.620260 -0.506749
O4    O     O_R   0.091250 0.591180 0.379740 -0.514756
O5    O     O_R   0.591250 0.908820 0.620260 -0.580507
O6    O     O_R   0.591250 0.908820 0.379740 -0.576090
O7    O     O_R   0.591250 0.091180 0.620260 -0.556544
O8    O     O_R   0.591250 0.091180 0.379740 -0.511738
O9    O     O_R   0.908940 0.408800 0.620260 -0.503318
O10   O     O_R   0.908940 0.408800 0.379740 -0.486905
O11   O     O_R   0.908940 0.591200 0.620260 -0.524930
O12   O     O_R   0.908940 0.591200 0.379740 -0.529375
O13   O     O_R   0.408940 0.908800 0.620260 -0.503385
O14   O     O_R   0.408940 0.908800 0.379740 -0.438484
O15   O     O_R   0.408940 0.091200 0.620260 -0.531785
O16   O     O_R   0.408940 0.091200 0.379740 -0.524383
O17   O     O_3   0.913651 0.216297 0.628074 -0.737178
H41   H     H_    0.947957 0.162094 0.616477 0.319156
O18   O     O_3   0.716428 0.389622 0.329809 -0.690162
H42   H     H_    0.658457 0.391872 0.380002 0.343151
O19   O     O_3   0.868359 0.742007 0.727617 -0.721421
H43   H     H_    0.900695 0.790848 0.769816 0.327423
O20   O     O_3   0.777764 0.667536 0.245749 -0.727181
H44   H     H_    0.712224 0.660896 0.242029 0.356745
O21   O     O_3   0.291874 0.817490 0.760606 -0.697860
H45   H     H_    0.297437 0.783482 0.848486 0.334343
O22   O     O_3   0.346464 0.764417 0.258794 -0.688051
H46   H     H_    0.374984 0.717668 0.203365 0.337272
O23   O     O_3   0.368010 0.241314 0.731762 -0.670768
H47   H     H_    0.314874 0.235807 0.793122 0.355930
O24   O     O_3   0.280882 0.169293 0.244992 -0.729169
H48   H     H_    0.215520 0.162258 0.238205 0.350065
N5    N     N_3   0.772826 0.301624 0.770005 -0.539952
H49   H     H_    0.773033 0.235887 0.790928 0.250252
H50   H     H_    0.838246 0.320224 0.779276 0.358059
N6    N     N_3   0.700905 0.409741 0.633241 -0.630212
H51   H     H_    0.652747 0.414098 0.712919 0.231128
H52   H     H_    0.751173 0.451954 0.661048 0.258310
N7    N     N_3   0.724604 0.623602 0.698255 -0.582116
H53   H     H_    0.727144 0.674829 0.768524 0.266658
H54   H     H_    0.666323 0.590825 0.724894 0.192829
N8    N     N_3   0.689203 0.584358 0.462052 -0.581941
H55   H     H_    0.736568 0.535204 0.462637 0.269544
H56   H     H_    0.629207 0.559070 0.499585 0.216513
N9    N     N_3   0.180523 0.902067 0.577531 -0.616957
H57   H     H_    0.153028 0.868355 0.662058 0.262842
H58   H     H_    0.232192 0.938917 0.616816 0.245730
N10   N     N_3   0.215573 0.894091 0.334385 -0.531404
H59   H     H_    0.221041 0.854105 0.247046 0.278666
H60   H     H_    0.154187 0.925465 0.322985 0.211067
N11   N     N_3   0.219998 0.124226 0.696066 -0.623556
H61   H     H_    0.258634 0.068746 0.699474 0.231880
H62   H     H_    0.156237 0.105913 0.728941 0.206199
N12   N     N_3   0.185277 0.088335 0.457766 -0.614757
H63   H     H_    0.234265 0.041103 0.448667 0.252153
H64   H     H_    0.127671 0.060466 0.499421 0.225368
O25   O     O_3   0.843297 0.485480 0.149688 -0.602809
H65   H     H_    0.787741 0.517953 0.129657 0.346302
O26   O     O_3   0.849085 0.458847 0.879146 -0.662732
H66   H     H_    0.788880 0.484631 0.891438 0.316875
O27   O     O_3   0.959360 0.351083 0.130008 -0.681777
H67   H     H_    0.906346 0.352198 0.068800 0.402775
O28   O     O_3   0.986630 0.347297 0.852039 -0.639805
H68   H     H_    0.018901 0.293787 0.877768 0.314108
O29   O     O_3   0.343880 0.976023 0.147689 -0.638558
H69   H     H_    0.287142 0.007911 0.133690 0.324659
O30   O     O_3   0.348920 0.956217 0.874535 -0.669556
H70   H     H_    0.288291 0.980004 0.891371 0.317044
O31   O     O_3   0.473532 0.848402 0.131277 -0.638372
H71   H     H_    0.416984 0.850833 0.079255 0.397290
O32   O     O_3   0.505991 0.843859 0.848715 -0.683552
H72   H     H_    0.441687 0.838188 0.863493 0.391827
O33   O     O_3   0.052449 0.643800 0.138216 -0.733654
H73   H     H_    0.104178 0.680303 0.113106 0.335361
O34   O     O_3   0.042623 0.647964 0.865813 -0.710533
H74   H     H_    0.991057 0.670939 0.919127 0.310201
O35   O     O_3   0.155419 0.536901 0.134126 -0.737559
H75   H     H_    0.179081 0.487401 0.080587 0.287023
O36   O     O_3   0.151520 0.546926 0.859828 -0.740879
H76   H     H_    0.191608 0.592812 0.893442 0.327616
O37   O     O_3   0.539701 0.146890 0.139460 -0.711223
H77   H     H_    0.589142 0.186949 0.119342 0.328455
O38   O     O_3   0.524445 0.150030 0.872400 -0.673358
H78   H     H_    0.568182 0.195315 0.893890 0.338007
O39   O     O_3   0.652099 0.048639 0.133029 -0.716214
H79   H     H_    0.679846 0.001678 0.078119 0.287117
O40   O     O_3   0.649410 0.066450 0.863581 -0.769012
H80   H     H_    0.658851 0.018071 0.798504 0.329720

loop_
_geom_bond_atom_site_label_1
_geom_bond_atom_site_label_2
_ccdc_geom_bond_type
C16   C28   S    
C29   N5    S    
O32   H72   S    
C19   O23   S    
O29   H69   S    
C29   C33   S    
C6    O36   S    
O31   H71   S    
O28   H68   S    
C45   O25   S    
Cu3   Cu4   S    
C13   C25   S    
C20   H8    S    
C14   C33   S    
O27   H67   S    
O20   H44   S    
C48   O28   S    
C45   C46   S    
C3    O5    A    
C13   C33   S    
C4    O8    A    
C26   H22   S    
C7    N3    S    
Cu3   O5    S    
C37   C41   S    
C25   H21   S    
C32   C36   S    
Cu2   O4    S    
C16   O20   S    
N10   H60   S    
C38   C42   S    
C27   H23   S    
C19   C36   S    
C5    C6    S    
C26   C39   S    
C13   H1    S    
C6    O34   S    
C28   C40   S    
C21   H17   S    
Cu2   O10   S    
C16   H4    S    
C23   H11   S    
C49   C50   S    
C11   O14   A    
Cu4   O8    S    
C16   C34   S    
O25   H65   S    
C22   H10   S    
O26   H66   S    
C19   H7    S    
Cu3   N4    S    
C24   C38   S    
N11   H61   S    
Cu2   N1    S    
C10   O12   A    
C12   C36   S    
C44   H31   S    
C45   H33   S    
C18   C35   S    
C15   C34   S    
N12   H64   S    
C12   O15   A    
C17   H5    S    
Cu1   O11   S    
C46   N2    S    
C3    O6    A    
C29   C43   S    
C9    C33   S    
C30   C44   S    
C28   H16   S    
C5    O33   S    
C11   O13   A    
C52   O32   S    
N9    H58   S    
Cu2   O2    S    
N9    H57   S    
C8    O40   S    
C51   N3    S    
C14   H2    S    
C4    O7    A    
O19   H43   S    
C7    O37   S    
C51   C52   S    
C43   H29   S    
C20   C24   S    
C7    C8    S    
C42   H28   S    
N10   H59   S    
N6    H52   S    
Cu1   O1    S    
O30   H70   S    
C30   C34   S    
C50   H38   S    
C20   C36   S    
C39   C43   S    
Cu3   O13   S    
O33   H73   S    
C22   C37   S    
C52   N4    S    
C17   C21   S    
Cu3   O7    S    
C9    O9    A    
C47   O27   S    
Cu4   O6    S    
O37   H77   S    
C19   C23   S    
O38   H78   S    
C49   O29   S    
C18   O22   S    
C49   N3    S    
C15   C27   S    
C47   C48   S    
C4    C39   S    
C2    O4    A    
C27   C40   S    
O18   H42   S    
C41   H25   S    
Cu4   O16   S    
Cu2   O12   S    
C10   O11   A    
C10   C34   S    
C14   C26   S    
C5    O35   S    
N12   H63   S    
C1    C38   S    
C32   N12   S    
C31   N10   S    
C8    O38   S    
C5    N1    S    
C3    C40   S    
C14   O18   S    
C1    O1    A    
N5    H49   S    
C26   H14   S    
C31   C35   S    
C25   H13   S    
C22   H18   S    
C20   O24   S    
O22   H46   S    
C6    N2    S    
C27   H15   S    
O23   H47   S    
Cu1   O9    S    
C9    O10   A    
C15   H3    S    
C30   N7    S    
C31   C41   S    
C21   H9    S    
C18   C22   S    
C43   H30   S    
C47   H35   S    
C7    O39   S    
C24   H20   S    
C42   H27   S    
C23   H19   S    
N6    H51   S    
C30   N8    S    
C13   O17   S    
N7    H53   S    
Cu1   Cu2   S    
C46   H34   S    
Cu1   N2    S    
C23   C38   S    
C48   N2    S    
C50   N4    S    
C47   N1    S    
C11   C35   S    
C8    N4    S    
C41   H26   S    
O40   H80   S    
O34   H74   S    
C45   N1    S    
O17   H41   S    
C25   C39   S    
N7    H54   S    
C2    C37   S    
C17   O21   S    
O39   H79   S    
O21   H45   S    
C32   N11   S    
Cu3   O15   S    
C2    O3    A    
Cu1   O3    S    
C32   C42   S    
C46   O26   S    
C52   H40   S    
N8    H56   S    
N11   H62   S    
C15   O19   S    
C28   H24   S    
C24   H12   S    
O36   H76   S    
C31   N9    S    
C40   C44   S    
C29   N6    S    
C21   C37   S    
O35   H75   S    
C48   H36   S    
C50   O30   S    
N5    H50   S    
Cu4   O14   S    
N8    H55   S    
C18   H6    S    
C17   C35   S    
Cu4   N3    S    
C49   H37   S    
C44   H32   S    
C1    O2    A    
O24   H48   S    
C51   O31   S    
C51   H39   S    
C12   O16   A    
