data_mof_unit_50993.cif
_audit_creation_date              2012-12-11T15:49:12-0500
_audit_creation_method            fapswitch 2.2
_symmetry_space_group_name_H-M    P1
_symmetry_Int_Tables_number       1
_space_group_crystal_system       triclinic
_cell_length_a                    21.746283
_cell_length_b                    7.216882
_cell_length_c                    14.776187
_cell_angle_alpha                 89.999752
_cell_angle_beta                  106.435241
_cell_angle_gamma                 89.999698
_cell_volume                      2224.22686479

loop_
_atom_site_label
_atom_site_type_symbol
_atom_type_description
_atom_site_fract_x
_atom_site_fract_y
_atom_site_fract_z
_atom_type_partial_charge
O1    O     O_R   0.335860 0.638190 0.002110 -0.515228
O2    O     O_R   0.664140 0.361810 0.997890 -0.515625
O3    O     O_R   0.164140 0.138190 0.997890 -0.515227
O4    O     O_R   0.835860 0.861810 0.002110 -0.515621
O5    O     O_R   0.217530 0.305920 0.861960 -0.556151
O6    O     O_R   0.782470 0.694080 0.138040 -0.539413
O7    O     O_R   0.282470 0.805920 0.138040 -0.556161
O8    O     O_R   0.717530 0.194080 0.861960 -0.539422
C1    C     C_R   0.206532 0.476264 0.825176 0.799106
C2    C     C_R   0.794794 0.523817 0.174444 0.830178
C3    C     C_R   0.293466 0.976262 0.174823 0.799096
C4    C     C_R   0.705205 0.023819 0.825556 0.830166
O9    O     O_R   0.338690 0.308320 0.993240 -0.529134
O10   O     O_R   0.661310 0.691680 0.006760 -0.531847
O11   O     O_R   0.161310 0.808320 0.006760 -0.529136
O12   O     O_R   0.838690 0.191680 0.993240 -0.531842
O13   O     O_R   0.286170 0.140430 0.130100 -0.529008
O14   O     O_R   0.713830 0.859570 0.869900 -0.551224
O15   O     O_R   0.213830 0.640430 0.869900 -0.529013
O16   O     O_R   0.786170 0.359570 0.130100 -0.551227
C5    C     C_R   0.364666 0.477105 0.996450 0.771258
C6    C     C_R   0.634810 0.522929 0.000444 0.748472
C7    C     C_R   0.135335 0.977106 0.003551 0.771256
C8    C     C_R   0.865190 0.022928 0.999555 0.748489
O17   O     O_3   0.232630 0.472410 0.044750 -0.381290
O18   O     O_3   0.767370 0.527590 0.955250 -0.383041
O19   O     O_3   0.267370 0.972410 0.955250 -0.381283
O20   O     O_3   0.732630 0.027590 0.044750 -0.383044
V1    V     V_3+5 0.253220 0.196620 0.991700 1.491058
V2    V     V_3+5 0.746780 0.803380 0.008300 1.497234
V3    V     V_3+5 0.246780 0.696620 0.008300 1.491040
V4    V     V_3+5 0.753220 0.303380 0.991700 1.497227
C9    C     C_R   0.030931 0.827862 0.013661 0.251659
C10   C     C_R   0.973724 0.171271 0.012519 0.248534
C11   C     C_R   0.469070 0.327861 0.986342 0.251658
C12   C     C_R   0.526275 0.671271 0.987480 0.248536
C13   C     C_R   0.964205 0.838901 0.996705 0.398188
C14   C     C_R   0.034481 0.160006 0.997447 0.427408
C15   C     C_R   0.535796 0.338900 0.003293 0.398184
C16   C     C_R   0.465519 0.660005 0.002556 0.427402
C17   C     C_R   0.934758 0.011502 0.002696 -0.418160
C18   C     C_R   0.066608 0.987891 0.005463 -0.401569
C19   C     C_R   0.565241 0.511502 0.997302 -0.418147
C20   C     C_R   0.433393 0.487889 0.994540 -0.401556
C21   C     C_R   0.675695 0.019042 0.722860 -0.246772
C22   C     C_R   0.318526 0.977194 0.278606 -0.241671
C23   C     C_R   0.824301 0.519030 0.277141 -0.246784
C24   C     C_R   0.181470 0.477205 0.721393 -0.241682
C25   C     C_R   0.684043 0.059881 0.563346 0.277319
C26   C     C_R   0.310009 0.877461 0.432117 0.338458
C27   C     C_R   0.815949 0.559852 0.436654 0.277327
C28   C     C_R   0.189989 0.377504 0.567876 0.338485
C29   C     C_R   0.713578 0.045661 0.661553 0.282474
C30   C     C_R   0.283171 0.892279 0.333311 0.268057
C31   C     C_R   0.786416 0.545641 0.338446 0.282470
C32   C     C_R   0.216827 0.392311 0.666684 0.268047
C33   C     C_R   0.608687 0.008757 0.687643 0.326973
C34   C     C_R   0.381114 0.039007 0.321404 0.310737
C35   C     C_R   0.891309 0.508738 0.312362 0.326972
C36   C     C_R   0.118880 0.539003 0.678598 0.310747
C37   C     C_R   0.579043 0.991660 0.588539 -0.100259
C38   C     C_R   0.413971 0.978736 0.414521 -0.135323
C39   C     C_R   0.920950 0.491630 0.411467 -0.100266
C40   C     C_R   0.086023 0.478733 0.585480 -0.135325
C41   C     C_R   0.617870 0.018119 0.526193 -0.102997
C42   C     C_R   0.376845 0.905755 0.471806 -0.060334
C43   C     C_R   0.882122 0.518089 0.473811 -0.102998
C44   C     C_R   0.123151 0.405772 0.528192 -0.060324
C45   C     C_R   0.511655 0.957958 0.549353 0.051116
C46   C     C_R   0.482259 0.987614 0.451717 0.022630
C47   C     C_R   0.988337 0.457923 0.450655 0.051125
C48   C     C_R   0.017733 0.487592 0.548288 0.022630
C49   C     C_R   0.522393 0.003187 0.392331 -0.167614
C50   C     C_R   0.473795 0.882577 0.603292 -0.257196
C51   C     C_R   0.977599 0.503164 0.607674 -0.167629
C52   C     C_R   0.026197 0.382529 0.396719 -0.257235
C53   C     C_R   0.588700 0.009649 0.427479 0.358163
C54   C     C_R   0.407523 0.856874 0.566492 0.399679
C55   C     C_R   0.911291 0.509620 0.572525 0.358164
C56   C     C_R   0.092471 0.356851 0.433514 0.399649
H1    H     H_    0.503666 0.991731 0.316765 0.172831
H2    H     H_    0.495734 0.828134 0.672822 0.175134
H3    H     H_    0.996326 0.491713 0.683240 0.172835
H4    H     H_    0.004257 0.328095 0.327189 0.175102
O21   O     O_3   0.059266 0.659055 0.039630 -0.561907
H5    H     H_    0.096903 0.680458 0.094830 0.312444
O22   O     O_3   0.955376 0.339342 0.039534 -0.559689
H6    H     H_    0.935330 0.316042 0.090924 0.328001
O23   O     O_3   0.440735 0.159054 0.960378 -0.561912
H7    H     H_    0.403099 0.180457 0.905177 0.312430
O24   O     O_3   0.544620 0.839342 0.960460 -0.559701
H8    H     H_    0.564671 0.816041 0.909076 0.328004
O25   O     O_3   0.929564 0.676450 0.983492 -0.492471
C57   C     C_3   0.905577 0.644471 0.885599 0.015882
H9    H     H_    0.943517 0.655126 0.848551 0.089189
H10   H     H_    0.865988 0.741943 0.853926 0.078021
H11   H     H_    0.885513 0.502264 0.874220 0.167675
O26   O     O_3   0.063897 0.321425 0.982626 -0.491508
C58   C     C_3   0.047387 0.353896 0.884494 -0.032373
H12   H     H_    0.069486 0.248791 0.848300 0.057091
H13   H     H_    0.994529 0.356171 0.852166 0.093057
H14   H     H_    0.066273 0.491494 0.872606 0.187717
O27   O     O_3   0.570436 0.176447 0.016502 -0.492475
C59   C     C_3   0.594421 0.144450 0.114395 0.015905
H15   H     H_    0.556480 0.155100 0.151440 0.089200
H16   H     H_    0.634011 0.241917 0.146072 0.078016
H17   H     H_    0.614484 0.002241 0.125769 0.167668
O28   O     O_3   0.436104 0.821423 0.017380 -0.491511
C60   C     C_3   0.452612 0.853875 0.115514 -0.032403
H18   H     H_    0.430513 0.748760 0.151703 0.057095
H19   H     H_    0.505470 0.856150 0.147843 0.093055
H20   H     H_    0.433724 0.991469 0.127407 0.187707
O29   O     O_3   0.623129 0.002689 0.362288 -0.648702
H21   H     H_    0.659467 0.916519 0.386993 0.326063
O30   O     O_3   0.372662 0.777810 0.621709 -0.606707
H22   H     H_    0.400884 0.755703 0.686393 0.289333
O31   O     O_3   0.876862 0.502660 0.637716 -0.648700
H23   H     H_    0.840523 0.416495 0.613012 0.326072
O32   O     O_3   0.127336 0.277800 0.378298 -0.606703
H24   H     H_    0.099073 0.255273 0.313693 0.289334
O33   O     O_3   0.409699 0.153603 0.270032 -0.571911
C61   C     C_3   0.406440 0.337651 0.300401 -0.208132
H25   H     H_    0.434945 0.355996 0.375297 0.143971
H26   H     H_    0.355904 0.381768 0.290594 0.132660
H27   H     H_    0.427191 0.430345 0.256786 0.134330
O34   O     O_3   0.573211 0.025506 0.751669 -0.564691
C62   C     C_3   0.553131 0.211327 0.752521 -0.188731
H28   H     H_    0.521917 0.255015 0.682310 0.131550
H29   H     H_    0.594788 0.306782 0.776038 0.127107
H30   H     H_    0.524468 0.223672 0.803509 0.186232
O35   O     O_3   0.090292 0.653579 0.729974 -0.571916
C63   C     C_3   0.093542 0.837636 0.699606 -0.208156
H31   H     H_    0.065028 0.855986 0.624713 0.143966
H32   H     H_    0.144075 0.881769 0.709402 0.132655
H33   H     H_    0.072792 0.930313 0.743229 0.134335
O36   O     O_3   0.926789 0.525509 0.248338 -0.564670
C64   C     C_3   0.946872 0.711335 0.247506 -0.188700
H34   H     H_    0.978127 0.754939 0.317702 0.131569
H35   H     H_    0.905220 0.806825 0.224069 0.127037
H36   H     H_    0.975496 0.723732 0.196467 0.186222
O37   O     O_3   0.220627 0.837028 0.290338 -0.560978
C65   C     C_3   0.217690 0.641344 0.289437 -0.187739
H37   H     H_    0.227410 0.583041 0.361664 0.192624
H38   H     H_    0.251306 0.579644 0.253377 0.134339
H39   H     H_    0.168506 0.598294 0.249866 0.164036
O38   O     O_3   0.778669 0.077237 0.699466 -0.571810
C66   C     C_3   0.812975 0.923866 0.679709 -0.222785
H40   H     H_    0.794697 0.790378 0.699845 0.159107
H41   H     H_    0.863931 0.938263 0.721191 0.148717
H42   H     H_    0.812008 0.920464 0.604278 0.200114
O39   O     O_3   0.279370 0.337051 0.709657 -0.560962
C67   C     C_3   0.282304 0.141367 0.710551 -0.187654
H43   H     H_    0.272643 0.083109 0.638322 0.192625
H44   H     H_    0.248642 0.079657 0.746532 0.134280
H45   H     H_    0.331479 0.098290 0.750195 0.163921
O40   O     O_3   0.721325 0.577225 0.300529 -0.571812
C68   C     C_3   0.687016 0.423857 0.320284 -0.222768
H46   H     H_    0.705297 0.290365 0.300155 0.159108
H47   H     H_    0.636062 0.438256 0.278795 0.148712
H48   H     H_    0.687977 0.420460 0.395713 0.200123
O41   O     O_3   0.717991 0.123931 0.503431 -0.651298
H49   H     H_    0.757313 0.188145 0.540319 0.313858
O42   O     O_3   0.272252 0.830320 0.489840 -0.606086
H50   H     H_    0.226527 0.851081 0.455715 0.331716
O43   O     O_3   0.781999 0.623896 0.496568 -0.651294
H51   H     H_    0.742676 0.688117 0.459679 0.313849
O44   O     O_3   0.227747 0.330392 0.510149 -0.606075
H52   H     H_    0.273472 0.351162 0.544276 0.331716

loop_
_geom_bond_atom_site_label_1
_geom_bond_atom_site_label_2
_ccdc_geom_bond_type
C34   C38   A    
O22   H6    S    
O1    C5    A    
O25   C57   S    
O19   V1    S    
O13   V1    S    
O3    C7    A    
C66   H40   S    
C14   O26   S    
O15   V3    S    
C52   H4    S    
C59   H16   S    
O41   H49   S    
O21   H5    S    
O7    C3    A    
C64   H35   S    
C21   C33   A    
O43   H51   S    
C7    C18   S    
C25   C41   A    
C33   O34   S    
C9    C18   A    
C40   C44   A    
O9    V1    S    
O40   C68   S    
C66   H41   S    
C50   H2    S    
C14   C18   A    
C60   H19   S    
C28   O44   S    
C47   C52   A    
O4    C8    A    
O30   H22   S    
C35   O36   S    
O1    V3    S    
O28   C60   S    
C38   C46   A    
O2    V4    S    
C33   C37   A    
O3    V1    S    
C9    O21   S    
O27   C59   S    
C1    O15   A    
C68   H46   S    
C54   O30   S    
C2    O16   A    
C63   H31   S    
O2    C6    A    
O39   C67   S    
O14   V2    S    
C25   O41   S    
C28   C44   A    
C16   O28   S    
O11   C7    A    
C56   O32   S    
C21   C29   A    
O12   C8    A    
C22   C34   A    
C8    C17   S    
C65   H39   S    
C45   C46   A    
C10   C17   A    
O10   V2    S    
C48   C51   A    
C53   O29   S    
C36   O35   S    
C49   H1    S    
C59   H15   S    
C24   C36   A    
O5    V1    S    
C31   O40   S    
C42   C54   A    
C64   H36   S    
C39   C43   A    
C41   C53   A    
C38   C42   A    
C13   O25   S    
O8    V4    S    
C63   H33   S    
C12   C16   A    
C66   H42   S    
O7    V3    S    
C60   H18   S    
C60   H20   S    
O44   H52   S    
O18   V4    S    
C4    C21   S    
C15   C19   A    
C57   H11   S    
O11   V3    S    
C9    C13   A    
C68   H47   S    
C11   C15   A    
C62   H29   S    
O5    C1    A    
C5    C20   S    
C6    C19   S    
C67   H45   S    
O8    C4    A    
C22   C30   A    
C46   C49   A    
O9    C5    A    
C45   C50   A    
C27   C43   A    
C59   H17   S    
C32   O39   S    
C57   H10   S    
C11   C20   A    
C26   C42   A    
O33   C61   S    
O38   C66   S    
C11   O23   S    
C12   O24   S    
C58   H13   S    
C67   H44   S    
C68   H48   S    
C65   H38   S    
C27   O43   S    
C61   H26   S    
O35   C63   S    
O24   H8    S    
C23   C31   A    
O29   H21   S    
O16   V4    S    
C37   C45   A    
C24   C32   A    
C3    O13   A    
C34   O33   S    
O6    V2    S    
C26   O42   S    
C10   C14   A    
O17   V3    S    
C52   C56   A    
C39   C47   A    
O36   C64   S    
C3    C22   S    
O6    C2    A    
O32   H24   S    
C15   O27   S    
O12   V4    S    
C64   H34   S    
C35   C39   A    
C58   H12   S    
C36   C40   A    
O10   C6    A    
C61   H27   S    
O20   V2    S    
C30   O37   S    
O23   H7    S    
C62   H30   S    
C47   C48   A    
C26   C30   A    
O31   H23   S    
C44   C56   A    
C51   H3    S    
C28   C32   A    
O34   C62   S    
C25   C29   A    
C55   O31   S    
C29   O38   S    
C27   C31   A    
C10   O22   S    
C40   C48   A    
C13   C17   A    
C57   H9    S    
O42   H50   S    
C23   C35   A    
C37   C41   A    
C16   C20   A    
C58   H14   S    
C67   H43   S    
C1    C24   S    
C63   H32   S    
O26   C58   S    
C50   C54   A    
C4    O14   A    
C2    C23   S    
C49   C53   A    
C65   H37   S    
C12   C19   A    
C61   H25   S    
O37   C65   S    
C51   C55   A    
C43   C55   A    
O4    V2    S    
C62   H28   S    
