data_mof_unit_60173.cif
_audit_creation_date              2013-03-05T16:42:55-0500
_audit_creation_method            fapswitch 2.2
_symmetry_space_group_name_H-M    P1
_symmetry_Int_Tables_number       1
_space_group_crystal_system       triclinic
_cell_length_a                    17.770584
_cell_length_b                    16.419841
_cell_length_c                    27.84431
_cell_angle_alpha                 89.820004
_cell_angle_beta                  90.195077
_cell_angle_gamma                 90.012811
_cell_volume                      8124.60840714

loop_
_atom_site_label
_atom_site_type_symbol
_atom_site_description
_atom_site_fract_x
_atom_site_fract_y
_atom_site_fract_z
_atom_type_partial_charge
O1    O     O_R   0.391260 0.567930 0.500000 -0.534040
O2    O     O_R   0.608740 0.432070 0.500000 -0.534529
O3    O     O_R   0.608740 0.567930 0.500000 -0.545161
O4    O     O_R   0.391260 0.432070 0.500000 -0.544991
C1    C     C_R   0.355111 0.499993 0.499938 0.946429
C2    C     C_R   0.644881 0.500003 0.500054 0.946888
O5    O     O_R   0.500010 0.567900 0.430260 -0.545817
O6    O     O_R   0.499990 0.432100 0.569740 -0.544235
O7    O     O_R   0.499990 0.567900 0.569740 -0.540811
O8    O     O_R   0.500010 0.432100 0.430260 -0.539802
C3    C     C_R   0.499804 0.500141 0.407165 0.888598
C4    C     C_R   0.500202 0.499858 0.592835 0.888916
Cu1   Cu    Cu3+1 0.500000 0.580420 0.500000 1.082777
Cu2   Cu    Cu3+1 0.500000 0.419580 0.500000 1.085841
C5    C     C_R   0.434849 0.475860 0.177469 0.663054
C6    C     C_R   0.565211 0.524119 0.822529 0.662993
O9    O     O_2   0.376052 0.446044 0.202517 -0.407425
O10   O     O_2   0.624003 0.553944 0.797480 -0.406727
N1    N     N_R   0.496414 0.504807 0.201549 -0.459809
N2    N     N_R   0.503646 0.495170 0.798449 -0.459960
C7    C     C_R   0.556006 0.538242 0.177710 0.625973
C8    C     C_R   0.444059 0.461726 0.822289 0.625879
C9    C     C_R   0.515010 0.430117 0.277792 -0.131200
C10   C     C_R   0.485024 0.569866 0.722212 -0.130124
C11   C     C_R   0.515715 0.429209 0.328101 0.523979
C12   C     C_R   0.484307 0.570781 0.671903 0.523184
C13   C     C_R   0.481769 0.572740 0.328678 0.557987
C14   C     C_R   0.518278 0.427257 0.671316 0.557973
C15   C     C_R   0.481048 0.573217 0.278676 -0.131105
C16   C     C_R   0.519015 0.426774 0.721319 -0.130890
C17   C     C_R   0.497491 0.502440 0.253062 0.097969
C18   C     C_R   0.502563 0.497545 0.746938 0.098021
C19   C     C_R   0.495852 0.506671 0.101604 -0.141418
C20   C     C_R   0.504215 0.493296 0.898394 -0.141375
C21   C     C_R   0.432838 0.477196 0.126905 -0.247713
C22   C     C_R   0.567225 0.522777 0.873092 -0.247804
C23   C     C_R   0.368324 0.454541 0.101133 0.607427
C24   C     C_R   0.631740 0.545432 0.898864 0.607470
C25   C     C_R   0.556488 0.540490 0.127367 -0.076259
C26   C     C_R   0.443580 0.459474 0.872632 -0.076394
C27   C     C_R   0.499109 0.500656 0.354066 -0.309260
C28   C     C_R   0.500915 0.499340 0.645934 -0.307218
H1    H     H_    0.467393 0.628882 0.259583 0.205197
H2    H     H_    0.532687 0.371111 0.740407 0.205008
C29   C     C_R   0.439421 0.463341 0.974285 0.015352
C30   C     C_R   0.560649 0.536622 0.025714 0.015378
C31   C     C_R   0.565137 0.527694 0.974982 -0.137320
C32   C     C_R   0.434931 0.472271 0.025016 -0.137319
C33   C     C_R   0.502498 0.495796 0.949409 -0.055367
C34   C     C_R   0.497571 0.504169 0.050589 -0.055366
C35   C     C_R   0.385966 0.417992 0.947389 0.692898
C36   C     C_R   0.614105 0.581968 0.052610 0.692907
C37   C     C_R   0.386075 0.420009 0.897510 -0.183103
C38   C     C_R   0.613995 0.579950 0.102489 -0.183196
O11   O     O_2   0.385382 0.431067 0.797298 -0.484018
O12   O     O_2   0.614683 0.568897 0.202701 -0.484749
C39   C     C_R   0.368099 0.456320 0.051170 0.610549
C40   C     C_R   0.631967 0.543648 0.948827 0.610545
H3    H     H_    0.342621 0.386875 0.878405 0.231355
H4    H     H_    0.657450 0.613082 0.121594 0.231232
C41   C     C_R   0.846807 0.573166 0.505681 0.564546
C42   C     C_R   0.153220 0.426508 0.504258 0.563433
C43   C     C_R   0.153198 0.573424 0.495387 0.562741
C44   C     C_R   0.846704 0.426790 0.494570 0.561655
C45   C     C_R   0.768347 0.573458 0.505723 0.503180
C46   C     C_R   0.231679 0.426216 0.504273 0.503118
C47   C     C_R   0.231657 0.573718 0.495361 0.510835
C48   C     C_R   0.768246 0.426506 0.494564 0.510280
C49   C     C_R   0.728004 0.499993 0.500117 -0.499683
C50   C     C_R   0.271972 0.499975 0.499854 -0.499714
C51   C     C_R   0.885859 0.499980 0.500095 -0.400978
C52   C     C_R   0.114107 0.499969 0.499848 -0.401004
C53   C     C_1   0.966263 0.499984 0.500009 0.293552
C54   C     C_1   0.033702 0.499979 0.499930 0.293600
C55   C     C_R   0.547889 0.828706 0.530704 0.538180
C56   C     C_R   0.451593 0.171293 0.469629 0.537758
C57   C     C_R   0.452059 0.829004 0.469323 0.538127
C58   C     C_R   0.548447 0.170998 0.530350 0.537659
C59   C     C_R   0.546982 0.742828 0.530123 0.062772
C60   C     C_R   0.452509 0.257172 0.470203 0.065589
C61   C     C_R   0.452973 0.743120 0.469905 0.068336
C62   C     C_R   0.547527 0.256883 0.529773 0.070520
H5    H     H_    0.584088 0.709399 0.553925 0.213121
H6    H     H_    0.414997 0.290602 0.446662 0.202042
H7    H     H_    0.415810 0.709921 0.446145 0.230223
H8    H     H_    0.585085 0.290086 0.553280 0.219645
N3    N     N_R   0.500000 0.701220 0.500000 -0.271586
N4    N     N_R   0.500000 0.298780 0.500000 -0.266278
C63   C     C_R   0.499981 0.873054 0.500008 -0.209666
C64   C     C_R   0.500013 0.126947 0.499994 -0.205689
C65   C     C_1   0.499991 0.962708 0.500004 0.253529
C66   C     C_1   0.500003 0.037293 0.499999 0.253551
F1    F     F_    0.464414 0.642750 0.351964 -0.605583
F2    F     F_    0.535641 0.357255 0.648025 -0.606643
F3    F     F_    0.732333 0.645658 0.511598 -0.559713
F4    F     F_    0.267734 0.353692 0.508912 -0.555434
F5    F     F_    0.267684 0.646235 0.490661 -0.553746
F6    F     F_    0.732130 0.354293 0.488754 -0.549136
F7    F     F_    0.595301 0.868074 0.561087 -0.554226
F8    F     F_    0.403671 0.131922 0.439573 -0.557235
F9    F     F_    0.404619 0.868666 0.438955 -0.550102
F10   F     F_    0.596390 0.131337 0.560395 -0.553098
F11   F     F_    0.303193 0.435434 0.123962 -0.513621
F12   F     F_    0.696869 0.564544 0.876034 -0.513456
F13   F     F_    0.466289 0.641045 0.648592 -0.605060
F14   F     F_    0.533718 0.358946 0.351416 -0.602021
C67   C     C_1   0.466898 0.643104 0.748275 0.456429
N5    N     N_1   0.452380 0.701768 0.769223 -0.174876
C68   C     C_1   0.533124 0.356870 0.251733 0.457015
N6    N     N_1   0.547631 0.298200 0.230790 -0.174459
F15   F     F_    0.338907 0.363376 0.968203 -0.557123
F16   F     F_    0.661166 0.636583 0.031797 -0.557147
F17   F     F_    0.299776 0.452308 0.029436 -0.520068
F18   F     F_    0.700292 0.547659 0.970560 -0.520057
F19   F     F_    0.884763 0.644370 0.511152 -0.520366
F20   F     F_    0.115322 0.355028 0.508627 -0.520779
F21   F     F_    0.115280 0.644899 0.491014 -0.519878
F22   F     F_    0.884559 0.355580 0.489090 -0.520283

loop_
_geom_bond_atom_site_label_1
_geom_bond_atom_site_label_2
_geom_bond_distance
_ccdc_geom_bond_type
C2    C49   1.477150 S    
C16   C18   1.396940 A    
C58   C62   1.410354 A    
C13   C15   1.392281 A    
C53   C54   1.198429 T    
C57   F9    1.357114 S    
C24   F12   1.358568 S    
C60   H6    1.081786 S    
O3    C2    1.287162 A    
N1    C17   1.434786 S    
C59   N3    1.365976 A    
C37   H3    1.083562 S    
C32   C39   1.419139 A    
C31   C33   1.420250 A    
C38   H4    1.083560 S    
C58   C64   1.406075 A    
O5    C3    1.286807 A    
C57   C63   1.406077 A    
C19   C25   1.407484 A    
O1    C1    1.287140 A    
C44   C48   1.394253 A    
N1    C7    1.365905 A    
C10   C12   1.400864 A    
C43   F21   1.358365 S    
C45   C49   1.411912 A    
C25   C38   1.394897 A    
C58   F10   1.357114 S    
C29   C35   1.419872 A    
C30   C36   1.419876 A    
C44   F22   1.358362 S    
C14   F2    1.357653 S    
C44   C51   1.397176 A    
O7    Cu1   1.952072 S    
C4    C28   1.478511 S    
C24   C40   1.391405 A    
C48   C49   1.411952 A    
C41   F19   1.358369 S    
C35   F15   1.356135 S    
C67   N5    1.157273 T    
C29   C33   1.422276 A    
C63   C65   1.472097 S    
O3    Cu1   1.943270 S    
C6    N2    1.367192 A    
C41   C51   1.397196 A    
C32   C34   1.420249 A    
Cu1   Cu2   2.640969 S    
C15   H1    1.083083 S    
C16   H2    1.083089 S    
O2    C2    1.287008 A    
C12   F13   1.359756 S    
C5    C21   1.408340 A    
C36   C38   1.389140 A    
C11   F14   1.359752 S    
C9    C68   1.443548 S    
C43   C47   1.394263 A    
C42   C46   1.394275 A    
C45   F3    1.357951 S    
C52   C54   1.428853 S    
O8    Cu2   1.952075 S    
C11   C27   1.411735 A    
C65   C66   1.224685 T    
C51   C53   1.428850 S    
C47   F5    1.357971 S    
C39   F17   1.356442 S    
C19   C34   1.421630 A    
C62   H8    1.081749 S    
C35   C37   1.389140 A    
C9    C17   1.405303 A    
C5    N1    1.367184 A    
C10   C18   1.405306 A    
C42   F20   1.358375 S    
C1    C50   1.477421 S    
C13   C27   1.410331 A    
C64   C66   1.472097 S    
C7    C25   1.402197 A    
C57   C61   1.410345 A    
O6    C4    1.286800 A    
C8    C26   1.402187 A    
Cu1   N3    1.983515 S    
C55   F7    1.357137 S    
C42   C52   1.397141 A    
C10   C67   1.443537 S    
C61   N3    1.365934 A    
C6    O10   1.349225 S    
N2    C8    1.365912 A    
C20   C26   1.407484 A    
C13   F1    1.357636 S    
O1    Cu1   1.943180 S    
C22   C24   1.401279 A    
C12   C28   1.411726 A    
C46   F4    1.357986 S    
N2    C18   1.434768 S    
C29   C32   1.423142 A    
C5    O9    1.349221 S    
C30   C31   1.423148 A    
C20   C33   1.421631 A    
O6    Cu2   1.953356 S    
C21   C23   1.401279 A    
C56   C60   1.410342 A    
O4    C1    1.287171 A    
C7    O12   1.349780 S    
C23   F11   1.358568 S    
C23   C39   1.391401 A    
C8    O11   1.349784 S    
C56   F8    1.357138 S    
C30   C34   1.422279 A    
C47   C50   1.412055 A    
C14   C16   1.392289 A    
Cu2   N4    1.983515 S    
C15   C17   1.396941 A    
C68   N6    1.157252 T    
C6    C22   1.408331 A    
C31   C40   1.419138 A    
C59   H5    1.081769 S    
C46   C50   1.412058 A    
C62   N4    1.365929 A    
C14   C28   1.410328 A    
C19   C21   1.409776 A    
C3    C27   1.478521 S    
C20   C22   1.409775 A    
C9    C11   1.400860 A    
O4    Cu2   1.943271 S    
O2    Cu2   1.943178 S    
O7    C4    1.287326 A    
C48   F6    1.358016 S    
O8    C3    1.287324 A    
C55   C63   1.406039 A    
C41   C45   1.394294 A    
O5    Cu1   1.953359 S    
C43   C52   1.397138 A    
C60   N4    1.365975 A    
C26   C37   1.394894 A    
C40   F18   1.356444 S    
C36   F16   1.356133 S    
C55   C59   1.410334 A    
C61   H7    1.081721 S    
C56   C64   1.406035 A    
