data_mof_unit_67068.cif
_audit_creation_date              2012-12-11T17:41:21-0500
_audit_creation_method            fapswitch 2.2
_symmetry_space_group_name_H-M    P1
_symmetry_Int_Tables_number       1
_space_group_crystal_system       triclinic
_cell_length_a                    8.16064
_cell_length_b                    12.760513
_cell_length_c                    14.196266
_cell_angle_alpha                 92.916259
_cell_angle_beta                  90.617488
_cell_angle_gamma                 98.307225
_cell_volume                      1460.66200909

loop_
_atom_site_label
_atom_site_type_symbol
_atom_type_description
_atom_site_fract_x
_atom_site_fract_y
_atom_site_fract_z
_atom_type_partial_charge
Ba1   Ba    Ba6+2 0.855630 0.555280 0.454520 1.635169
Ba2   Ba    Ba6+2 0.334200 0.444810 0.545490 1.633309
C1    C     C_3   0.608197 0.947660 0.182395 -0.408496
C2    C     C_R   0.184024 0.497526 0.195824 0.041662
C3    C     C_R   0.339527 0.549020 0.225928 -0.294468
C4    C     C_3   0.145771 0.804028 0.195939 0.357542
C5    C     C_R   0.452100 0.596315 0.162304 0.020629
C6    C     C_R   0.406732 0.599747 0.067602 -0.147991
C7    C     C_R   0.249502 0.551289 0.034770 -0.003439
C8    C     C_R   0.138227 0.496135 0.097990 -0.021774
C9    C     C_R   0.053494 0.501554 0.901848 -0.023686
C10   C     C_R   0.942458 0.446018 0.965019 -0.003047
C11   C     C_R   0.008324 0.499463 0.803838 0.042551
C12   C     C_3   0.650942 0.854947 0.236274 0.338327
C13   C     C_R   0.855367 0.444282 0.773178 -0.291612
C14   C     C_R   0.742050 0.397793 0.836876 0.011947
C15   C     C_R   0.785991 0.396402 0.931978 -0.150770
C16   C     C_3   0.131204 0.841074 0.096414 -0.364283
C17   C     C_R   0.204894 0.555931 0.939002 -0.035139
C18   C     C_R   0.766643 0.177962 0.537210 -0.291065
C19   C     C_R   0.431888 0.815651 0.463373 -0.299079
C20   C     C_R   0.407056 0.995628 0.430947 -0.097942
C21   C     C_R   0.342317 0.888724 0.425811 -0.006726
C22   C     C_R   0.577326 0.848499 0.516254 0.082820
C23   C     C_3   0.475795 0.308235 0.258378 0.304335
C24   C     C_R   0.641740 0.959256 0.528197 -0.034938
C25   C     C_R   0.556696 0.032665 0.480805 -0.086013
C26   C     C_R   0.620732 0.142006 0.486627 0.042388
C27   C     C_R   0.854195 0.107940 0.580866 -0.018733
C28   C     C_3   0.231487 0.761615 0.658907 0.303676
C29   C     C_R   0.787748 0.000681 0.583125 0.092007
C30   C     C_3   0.295955 0.876502 0.688410 -0.427265
C31   C     C_3   0.971337 0.238167 0.344588 0.279790
C32   C     C_3   0.963179 0.119575 0.323943 -0.350841
C33   C     C_3   0.714172 0.669098 0.736831 0.316275
C34   C     C_3   0.456012 0.285509 0.152296 -0.390198
C35   C     C_3   0.729848 0.691021 0.843210 -0.393751
C36   C     C_3   0.045786 0.200073 0.807869 0.367497
C37   C     C_3   0.054337 0.162611 0.907601 -0.368506
C38   C     C_3   0.535779 0.143142 0.775130 0.351450
C39   C     C_3   0.577678 0.060198 0.841055 -0.412534
C40   C     C_R   0.986297 0.442373 0.061009 -0.035817
H1    H     H_    0.744947 0.884936 0.292079 0.081648
H2    H     H_    0.832489 0.648782 0.709721 0.006744
H3    H     H_    0.613754 0.601738 0.721683 0.065378
H4    H     H_    0.562983 0.006951 0.231821 0.102443
H5    H     H_    0.836869 0.753551 0.860541 0.126079
H6    H     H_    0.748507 0.618314 0.878774 0.064935
H7    H     H_    0.615084 0.718175 0.870360 0.118516
H8    H     H_    0.536398 0.819063 0.270875 -0.049628
H9    H     H_    0.509909 0.919015 0.128736 0.114439
H10   H     H_    0.357551 0.329264 0.286053 0.017859
H11   H     H_    0.576116 0.376234 0.271658 0.058582
H12   H     H_    0.415280 0.880387 0.727309 0.123204
H13   H     H_    0.351824 0.220506 0.136587 0.128631
H14   H     H_    0.429874 0.357481 0.117646 0.063290
H15   H     H_    0.571737 0.261670 0.123193 0.118169
H16   H     H_    0.718981 0.985752 0.145788 0.129384
H17   H     H_    0.168538 0.781095 0.044675 0.068864
H18   H     H_    0.124314 0.278530 0.805191 0.091867
H19   H     H_    0.915335 0.208531 0.791730 -0.075617
H20   H     H_    0.184298 0.156316 0.927596 0.153424
H21   H     H_    0.006856 0.219881 0.958067 0.067938
H22   H     H_    0.977712 0.083730 0.912023 0.106731
H23   H     H_    0.315081 0.924775 0.625772 0.082636
H24   H     H_    0.651266 0.176773 0.740158 -0.063765
H25   H     H_    0.448179 0.104248 0.719236 0.083724
H26   H     H_    0.663531 0.098499 0.898058 0.113350
H27   H     H_    0.638015 0.999608 0.801560 0.083777
H28   H     H_    0.060866 0.728357 0.200862 0.095268
H29   H     H_    0.462990 0.020676 0.873145 0.131383
H30   H     H_    0.376080 0.548635 0.299394 0.072612
H31   H     H_    0.494643 0.639290 0.019663 0.071512
H32   H     H_    0.697251 0.358066 0.980145 0.068956
H33   H     H_    0.819633 0.443345 0.699485 0.068421
H34   H     H_    0.206249 0.910481 0.734944 0.151912
H35   H     H_    0.900097 0.397105 0.106064 0.096201
H36   H     H_    0.290853 0.601521 0.894051 0.100052
H37   H     H_    0.336357 0.048806 0.397209 0.103103
H38   H     H_    0.816889 0.261304 0.538820 0.067419
H39   H     H_    0.275092 0.790018 0.208175 -0.066777
H40   H     H_    0.382374 0.732220 0.456029 0.067799
H41   H     H_    0.001359 0.851889 0.080615 0.152632
H42   H     H_    0.212791 0.917675 0.089218 0.109290
H43   H     H_    0.332797 0.724449 0.626354 0.012997
H44   H     H_    0.128642 0.759281 0.607021 0.070009
H45   H     H_    0.848669 0.256192 0.365493 0.002673
H46   H     H_    0.988784 0.936769 0.623749 0.197948
H47   H     H_    0.867128 0.970131 0.713506 0.167721
H48   H     H_    0.061787 0.261884 0.403255 0.084726
H49   H     H_    0.873323 0.093253 0.265594 0.114826
H50   H     H_    0.923388 0.075965 0.387146 0.082416
H51   H     H_    0.087066 0.100978 0.303260 0.140356
N1    N     N_3   0.866628 0.937286 0.644611 -0.442358
O1    O     O_2   0.887370 0.460630 0.272300 -0.466651
O2    O     O_2   0.197227 0.113602 0.569868 -0.484215
O3    O     O_3   0.103553 0.125907 0.744691 -0.603722
O4    O     O_3   0.129410 0.451380 0.388510 -0.496086
O5    O     O_3   0.575400 0.626570 0.547370 -0.497876
O6    O     O_2   0.344320 0.238700 0.455090 -0.466609
O7    O     O_3   0.515688 0.217542 0.299968 -0.649518
O8    O     O_2   0.406911 0.414333 0.835009 -0.492294
O9    O     O_3   0.458742 0.218191 0.827683 -0.588258
O10   O     O_3   0.670210 0.653170 0.329170 -0.481427
O11   O     O_2   0.793070 0.592345 0.165186 -0.492965
O12   O     O_3   0.677648 0.760734 0.696385 -0.621096
O13   O     O_3   0.016870 0.289959 0.262446 -0.640644
O14   O     O_3   0.717335 0.784123 0.173184 -0.596089
O15   O     O_2   0.845380 0.761330 0.544970 -0.453159
O16   O     O_3   0.088930 0.704860 0.376040 -0.489666
O17   O     O_2   0.001070 0.888626 0.434342 -0.488347
O18   O     O_3   0.102407 0.881773 0.260921 -0.602624
O19   O     O_2   0.302330 0.539400 0.727760 -0.466643
O20   O     O_3   0.060300 0.548700 0.611500 -0.497715
O21   O     O_3   0.519500 0.346920 0.670840 -0.468976
O22   O     O_3   0.175622 0.709609 0.739206 -0.638427
O23   O     O_3   0.614310 0.373510 0.452640 -0.480641
O24   O     O_3   0.100780 0.295230 0.623970 -0.483472
P1    P     P_3+3 0.054400 0.427280 0.286870 0.968721
P2    P     P_3+3 0.668300 0.742890 0.573060 1.000804
P3    P     P_3+3 0.134374 0.842433 0.375302 0.942987
P4    P     P_3+3 0.135310 0.572810 0.713130 0.968922
P5    P     P_3+3 0.063310 0.158741 0.629243 0.944940
P6    P     P_3+3 0.658668 0.654124 0.206435 0.956901
P7    P     P_3+3 0.527776 0.241515 0.422546 0.935495
P8    P     P_3+3 0.532415 0.345811 0.793539 0.961390

loop_
_geom_bond_atom_site_label_1
_geom_bond_atom_site_label_2
_ccdc_geom_bond_type
C13   H33   S    
O17   P3    D    
Ba2   O20   S    
C31   O13   S    
C32   H51   S    
C5    P6    S    
Ba1   O5    S    
Ba2   O24   S    
C5    C6    A    
C21   P3    S    
C28   O22   S    
C37   H22   S    
C9    C17   A    
C24   C25   A    
O21   P8    S    
O22   P4    S    
C33   C35   S    
C23   H11   S    
C20   H37   S    
C3    H30   S    
O16   P3    S    
C36   C37   S    
Ba2   O19   S    
C8    C40   A    
C13   C14   A    
Ba1   Ba2   S    
Ba1   P1    S    
C30   H12   S    
H47   N1    S    
O9    P8    S    
C32   H49   S    
C10   C40   A    
Ba1   O15   S    
O5    P2    S    
C7    C17   A    
O19   P4    D    
C14   C15   A    
C38   H25   S    
C10   C15   A    
C16   H42   S    
C2    P1    S    
C35   H5    S    
C7    C8    A    
C39   H29   S    
C36   H19   S    
C12   O14   S    
Ba2   O6    S    
C24   C29   A    
C4    H39   S    
C38   H24   S    
O14   P6    S    
C36   O3    S    
O13   P1    S    
Ba2   O23   S    
C31   C32   S    
C39   H26   S    
C18   C27   A    
Ba2   P4    S    
C4    C16   S    
H46   N1    S    
C22   P2    S    
C18   H38   S    
O6    P7    D    
O4    P1    S    
C34   H15   S    
C3    C5    A    
C1    H9    S    
C6    C7    A    
C18   C26   A    
O1    P1    D    
O11   P6    D    
C35   H6    S    
Ba1   P2    S    
C17   H36   S    
C34   H14   S    
Ba1   O16   S    
C35   H7    S    
Ba2   O21   S    
O7    P7    S    
Ba1   O1    S    
C16   H41   S    
Ba1   O23   S    
C28   H43   S    
C33   H2    S    
Ba1   O10   S    
C1    C12   S    
C36   H18   S    
C38   C39   S    
Ba2   O5    S    
C20   C25   A    
C11   C13   A    
C15   H32   S    
C28   H44   S    
Ba1   O20   S    
C2    C8    A    
C33   H3    S    
C26   P7    S    
C39   H27   S    
C4    H28   S    
C37   H20   S    
O2    P5    D    
O12   P2    S    
C4    O18   S    
C22   C24   A    
C2    C3    A    
O8    P8    D    
Ba1   O4    S    
C30   H34   S    
C9    C10   A    
O10   P6    S    
C29   N1    S    
C37   H21   S    
C1    H4    S    
C19   C21   A    
C31   H45   S    
C23   H10   S    
O18   P3    S    
O3    P5    S    
C34   H13   S    
C31   H48   S    
C38   O9    S    
C28   C30   S    
C11   P4    S    
C9    C11   A    
C23   O7    S    
C12   H8    S    
O23   P7    S    
C27   P5    S    
C6    H31   S    
O24   P5    S    
C32   H50   S    
C23   C34   S    
O20   P4    S    
C1    H16   S    
C16   H17   S    
C19   H40   S    
Ba2   O4    S    
C40   H35   S    
C27   C29   A    
C19   C22   A    
C25   C26   A    
C33   O12   S    
C20   C21   A    
C12   H1    S    
C14   P8    S    
O15   P2    D    
C30   H23   S    
