data_mof_unit_53945.cif
_audit_creation_date              2012-10-26T21:00:41-0400
_audit_creation_method            fapswitch 2.2
_symmetry_space_group_name_H-M    P1
_symmetry_Int_Tables_number       1
_space_group_crystal_system       triclinic
_cell_length_a                    10.813057
_cell_length_b                    9.620082
_cell_length_c                    10.817527
_cell_angle_alpha                 89.668031
_cell_angle_beta                  92.847525
_cell_angle_gamma                 89.956029
_cell_volume                      1123.85726203

loop_
_atom_site_label
_atom_site_type_symbol
_atom_type_description
_atom_site_fract_x
_atom_site_fract_y
_atom_site_fract_z
_atom_type_partial_charge
C1    C     C_R   0.262450 0.499755 0.500614 0.535677
C2    C     C_R   0.485119 0.499608 0.735892 0.536824
C3    C     C_R   0.509969 0.764483 0.109238 -0.101159
C4    C     C_R   0.393160 0.740919 0.876177 -0.093893
C5    C     C_R   0.459364 0.881109 0.049536 -0.137496
C6    C     C_R   0.394420 0.867544 0.936435 -0.148788
C7    C     C_R   0.450673 0.623751 0.932873 0.006588
C8    C     C_R   0.491792 0.630355 0.058120 0.001000
C9    C     C_R   0.514604 0.503894 0.125145 -0.023772
C10   C     C_R   0.462702 0.498856 0.868988 -0.023339
C11   C     C_R   0.516653 0.376344 0.059133 -0.019830
C12   C     C_R   0.737660 0.499726 0.500378 0.540120
C13   C     C_R   0.468518 0.373837 0.936105 -0.015962
C14   C     C_R   0.063020 0.376024 0.475366 -0.144891
C15   C     C_R   0.934952 0.375922 0.475502 -0.150200
C16   C     C_R   0.871767 0.498785 0.501306 0.018710
C17   C     C_R   0.128639 0.498630 0.502600 0.017312
C18   C     C_3   0.580201 0.245464 0.111587 -0.240348
C19   C     C_3   0.714379 0.272610 0.159100 -0.276977
C20   C     C_3   0.773706 0.140575 0.214127 -0.451865
C21   C     C_3   0.398101 0.246399 0.887445 -0.243993
C22   C     C_3   0.266930 0.284771 0.834902 -0.279200
C23   C     C_R   0.937706 0.620470 0.529433 -0.143661
C24   C     C_3   0.192945 0.157668 0.791534 -0.456846
C25   C     C_3   0.302295 0.859698 0.359585 -0.235742
C26   C     C_3   0.228933 0.949181 0.262325 -0.350437
C27   C     C_3   0.141464 0.860181 0.180726 -0.449853
C28   C     C_3   0.684474 0.863994 0.659968 -0.237311
C29   C     C_3   0.684284 0.924299 0.791588 -0.326789
C30   C     C_3   0.752662 0.829727 0.886132 -0.443382
C31   C     C_R   0.065487 0.619942 0.532073 -0.150170
C32   C     C_R   0.412710 0.077204 0.432631 0.010518
C33   C     C_R   0.587682 0.075931 0.566501 0.009576
C34   C     C_R   0.411046 0.928981 0.430118 0.090876
C35   C     C_R   0.586339 0.928446 0.572099 0.108716
C36   C     C_R   0.508713 0.500931 0.261926 0.540072
Cu1   Cu    Cu3+1 0.500000 0.640660 0.500000 0.885532
Cu2   Cu    Cu3+1 0.500000 0.359340 0.500000 0.897097
H1    H     H_    0.566319 0.783137 0.192518 0.149170
H2    H     H_    0.658017 0.134399 0.618093 0.118493
H3    H     H_    0.723324 0.105412 0.295734 0.164039
H4    H     H_    0.772070 0.056514 0.144191 0.141177
H5    H     H_    0.871572 0.161654 0.244057 0.133151
H6    H     H_    0.769273 0.309175 0.081004 0.150229
H7    H     H_    0.718722 0.354105 0.231252 0.181432
H8    H     H_    0.525160 0.196792 0.183915 0.166146
H9    H     H_    0.586937 0.166981 0.037297 0.124227
H10   H     H_    0.172390 0.090495 0.871753 0.140402
H11   H     H_    0.103578 0.191778 0.746040 0.144794
H12   H     H_    0.344103 0.734643 0.786702 0.136954
H13   H     H_    0.244842 0.097716 0.723475 0.155393
H14   H     H_    0.215598 0.338606 0.907292 0.152693
H15   H     H_    0.271910 0.356494 0.754736 0.183754
H16   H     H_    0.451344 0.191211 0.817586 0.165528
H17   H     H_    0.385016 0.173139 0.965097 0.122478
H18   H     H_    0.194823 0.783852 0.127991 0.168661
H19   H     H_    0.075467 0.803689 0.238394 0.155706
H20   H     H_    0.088069 0.927829 0.113796 0.140598
H21   H     H_    0.171877 0.026924 0.309631 0.142501
H22   H     H_    0.292609 0.005294 0.202336 0.157443
H23   H     H_    0.469296 0.981284 0.092407 0.088144
H24   H     H_    0.334409 0.767286 0.311479 0.216266
H25   H     H_    0.234914 0.829231 0.428084 0.154299
H26   H     H_    0.706956 0.726529 0.889581 0.168691
H27   H     H_    0.850388 0.815813 0.861472 0.143571
H28   H     H_    0.751493 0.877074 0.979360 0.141646
H29   H     H_    0.730406 0.027449 0.794482 0.139922
H30   H     H_    0.588052 0.939168 0.818725 0.180395
H31   H     H_    0.674405 0.751887 0.668697 0.229002
H32   H     H_    0.776300 0.885540 0.622862 0.097406
H33   H     H_    0.351465 0.955986 0.891187 0.106342
H34   H     H_    0.110310 0.280692 0.453208 0.117916
H35   H     H_    0.885631 0.280406 0.454266 0.122862
H36   H     H_    0.891062 0.715695 0.550624 0.114848
H37   H     H_    0.114325 0.714022 0.558526 0.109956
H38   H     H_    0.343574 0.138572 0.382092 0.119859
N1    N     N_R   0.500000 0.852070 0.500000 -0.224851
N2    N     N_R   0.500000 0.147940 0.500000 -0.253803
O1    O     O_R   0.319640 0.618740 0.499990 -0.529489
O2    O     O_R   0.680360 0.618740 0.500010 -0.525068
O3    O     O_R   0.319620 0.381170 0.499990 -0.511350
O4    O     O_R   0.680380 0.381170 0.500010 -0.509464
O5    O     O_R   0.500000 0.618810 0.319650 -0.525896
O6    O     O_R   0.500000 0.618810 0.680350 -0.519915
O7    O     O_R   0.499970 0.381240 0.319640 -0.499489
O8    O     O_R   0.500030 0.381240 0.680360 -0.499477

loop_
_geom_bond_atom_site_label_1
_geom_bond_atom_site_label_2
_ccdc_geom_bond_type
C7    C10   A    
C11   C18   S    
C30   H26   S    
C2    O6    A    
C19   C20   S    
C18   H9    S    
C20   H3    S    
C7    C8    A    
Cu1   O1    S    
C26   C27   S    
C29   C30   S    
Cu2   O8    S    
C28   C29   S    
C34   N1    A    
C21   H16   S    
C33   N2    A    
C36   O5    A    
C1    O3    A    
C15   C16   A    
C18   C19   S    
C25   H25   S    
C29   H29   S    
C28   H31   S    
C28   C35   S    
C8    C9    A    
C9    C36   S    
C10   C13   A    
Cu1   O6    S    
C26   H21   S    
C25   C34   S    
C24   H13   S    
C3    H1    S    
C21   C22   S    
Cu2   O4    S    
C14   C17   A    
C4    C7    A    
C18   H8    S    
C22   H15   S    
C6    H33   S    
Cu1   O2    S    
C33   H2    S    
Cu2   O7    S    
C13   C21   S    
C24   H10   S    
C12   C16   S    
C4    C6    A    
C3    C8    A    
C27   H19   S    
C21   H17   S    
C27   H18   S    
Cu2   N2    S    
C25   C26   S    
Cu1   N1    S    
C35   N1    A    
C4    H12   S    
C23   C31   A    
Cu1   Cu2   S    
C29   H30   S    
C31   H37   S    
C12   O4    A    
C9    C11   A    
C30   H28   S    
C15   H35   S    
C16   C23   A    
Cu2   O3    S    
C17   C31   A    
C22   C24   S    
C23   H36   S    
C2    C10   S    
C20   H5    S    
C19   H6    S    
C22   H14   S    
C24   H11   S    
C14   H34   S    
C28   H32   S    
C3    C5    A    
C27   H20   S    
C32   H38   S    
C20   H4    S    
C19   H7    S    
C36   O7    A    
C1    C17   S    
C11   C13   A    
C5    C6    A    
C1    O1    A    
C12   O2    A    
C33   C35   A    
C2    O8    A    
C25   H24   S    
C30   H27   S    
C32   N2    A    
C14   C15   A    
Cu1   O5    S    
C26   H22   S    
C5    H23   S    
C32   C34   A    
