data_mof_unit_8358.cif
_audit_creation_date              2012-12-10T19:01:18-0500
_audit_creation_method            fapswitch 2.2
_symmetry_space_group_name_H-M    P1
_symmetry_Int_Tables_number       1
_space_group_crystal_system       triclinic
_cell_length_a                    9.545465
_cell_length_b                    10.841329
_cell_length_c                    15.443302
_cell_angle_alpha                 89.764592
_cell_angle_beta                  73.88888
_cell_angle_gamma                 90.479689
_cell_volume                      1535.30285684

loop_
_atom_site_label
_atom_site_type_symbol
_atom_type_description
_atom_site_fract_x
_atom_site_fract_y
_atom_site_fract_z
_atom_type_partial_charge
C1    C     C_R   0.998496 0.262392 0.502090 0.817791
C2    C     C_R   0.659475 0.548050 0.901794 0.087400
C3    C     C_R   0.752954 0.605735 0.946771 0.087427
C4    C     C_R   0.507139 0.539547 0.944775 0.024814
C5    C     C_R   0.453134 0.578000 0.035790 0.003697
C6    C     C_R   0.544829 0.652285 0.072854 0.334570
C7    C     C_R   0.693934 0.660394 0.030432 -0.216299
C8    C     C_R   0.405912 0.497995 0.899239 -0.174641
C9    C     C_R   0.259664 0.481396 0.944639 -0.197966
C10   C     C_R   0.211788 0.496970 0.037617 0.083961
C11   C     C_R   0.308876 0.542270 0.084781 0.127027
C12   C     C_R   0.917477 0.501882 0.672426 0.791064
C13   C     C_R   0.069791 0.461330 0.084221 -0.227446
C14   C     C_R   0.024682 0.461022 0.178115 0.374532
C15   C     C_R   0.263852 0.537530 0.179615 -0.229065
C16   C     C_R   0.115142 0.065213 0.518975 0.114751
C17   C     C_R   0.992860 0.129458 0.511763 -0.158198
C18   C     C_R   0.863291 0.063320 0.517424 -0.158293
C19   C     C_R   0.864167 0.934642 0.516968 -0.186656
C20   C     C_R   0.994653 0.871072 0.510691 -0.093978
C21   C     C_R   0.116188 0.938129 0.518217 0.059722
C22   C     C_3   0.271212 0.935073 0.462252 -0.496197
C23   C     C_R   0.999565 0.737832 0.501557 0.812189
C24   C     C_3   0.269973 0.074991 0.463230 0.245349
C25   C     C_R   0.608644 0.530383 0.423928 0.351185
C26   C     C_R   0.541215 0.457962 0.572413 -0.045540
C27   C     C_R   0.392441 0.458592 0.572592 -0.006724
C28   C     C_R   0.461386 0.529384 0.423696 0.265903
C29   C     C_3   0.480358 0.648618 0.373933 -0.482147
C30   C     C_3   0.638626 0.650077 0.374621 -0.465432
C31   C     C_R   0.081674 0.498216 0.327163 0.846693
C32   C     C_R   0.869209 0.520778 0.770394 -0.048703
C33   C     C_R   0.122915 0.498540 0.227219 -0.157934
C34   C     C_R   0.903456 0.615600 0.904719 -0.171315
C35   C     C_R   0.961150 0.574482 0.816562 -0.194883
C36   C     C_R   0.721799 0.501393 0.815009 -0.205416
Cu1   Cu    Cu3+1 0.140670 0.499980 0.500000 0.978008
Cu2   Cu    Cu3+1 0.859330 0.500020 0.500000 0.989258
H1    H     H_    0.762859 0.715431 0.060806 0.186097
H2    H     H_    0.995351 0.428066 0.047540 0.179783
H3    H     H_    0.763567 0.110287 0.517447 0.208965
H4    H     H_    0.764742 0.885805 0.516941 0.172872
H5    H     H_    0.343272 0.894254 0.500039 0.227127
H6    H     H_    0.282598 0.896644 0.394006 0.197858
H7    H     H_    0.282668 0.118041 0.395959 0.134595
H8    H     H_    0.569146 0.424775 0.631486 0.138518
H9    H     H_    0.310182 0.426396 0.631781 0.149575
H10   H     H_    0.466935 0.636833 0.305952 0.247771
H11   H     H_    0.340788 0.557195 0.217130 0.194520
H12   H     H_    0.415395 0.722560 0.414331 0.212972
H13   H     H_    0.715773 0.640792 0.306378 0.244410
H14   H     H_    0.665289 0.725593 0.416052 0.203766
H15   H     H_    0.185562 0.448786 0.907550 0.148255
H16   H     H_    0.975498 0.659930 0.938644 0.149851
H17   H     H_    0.075724 0.590067 0.783253 0.151112
H18   H     H_    0.657282 0.451709 0.779289 0.134969
H19   H     H_    0.435386 0.480289 0.827885 0.129336
N1    N     N_R   0.648210 0.500930 0.499430 -0.201495
N2    N     N_R   0.352300 0.500890 0.499430 -0.195382
O1    O     O_R   0.118810 0.319640 0.500000 -0.550788
O2    O     O_R   0.881230 0.319680 0.499990 -0.562004
O3    O     O_R   0.055580 0.499970 0.629840 -0.592269
O4    O     O_R   0.818000 0.500010 0.629830 -0.595558
O5    O     O_R   0.118770 0.680320 0.500010 -0.580220
O6    O     O_R   0.881190 0.680360 0.500000 -0.594709
O7    O     O_R   0.182000 0.499990 0.370170 -0.586860
O8    O     O_R   0.944420 0.500030 0.370160 -0.531157
Cl1   Cl    Cl    0.384985 0.139446 0.525273 -0.622672
Cl2   Cl    Cl    0.848677 0.400828 0.229021 -0.620257
Cl3   Cl    Cl    0.474503 0.763746 0.156110 -0.657488

loop_
_geom_bond_atom_site_label_1
_geom_bond_atom_site_label_2
_ccdc_geom_bond_type
C31   O7    A    
C2    C4    A    
C30   H13   S    
C31   C33   S    
C34   H16   S    
C16   C21   A    
C36   H18   S    
C2    C36   A    
C8    H19   S    
C12   O3    A    
C9    C10   A    
C1    C17   S    
C19   C20   A    
C20   C23   S    
C4    C8    A    
Cu2   O2    S    
Cu1   O7    S    
C23   O6    A    
C14   C33   A    
Cu2   O4    S    
C2    C3    A    
C16   C24   S    
C27   N2    A    
C13   C14   A    
C12   C32   S    
C25   C28   A    
C31   O8    A    
C26   N1    A    
C19   H4    S    
C26   C27   A    
C29   C30   S    
C30   H14   S    
Cu2   O6    S    
C24   H7    S    
C32   C36   A    
C28   C29   S    
Cu1   Cu2   S    
C5    C11   A    
C6    C7    A    
C3    C7    A    
C29   H12   S    
C15   H11   S    
C5    C6    A    
C14   Cl2   S    
C22   C24   S    
C28   N2    A    
Cu1   O1    S    
C9    H15   S    
C25   N1    A    
C24   Cl1   S    
C29   H10   S    
C35   H17   S    
C32   C35   A    
C4    C5    A    
Cu1   O5    S    
C18   C19   A    
Cu2   O8    S    
C17   C18   A    
C34   C35   A    
C10   C11   A    
C1    O1    A    
C27   H9    S    
C25   C30   S    
C6    Cl3   S    
C12   O4    A    
Cu1   O3    S    
C23   O5    A    
C13   H2    S    
C7    H1    S    
C3    C34   A    
C20   C21   A    
C21   C22   S    
C26   H8    S    
C11   C15   A    
Cu2   N1    S    
C15   C33   A    
C22   H5    S    
C22   H6    S    
Cu1   N2    S    
C18   H3    S    
C16   C17   A    
C8    C9    A    
C10   C13   A    
C1    O2    A    
