data_mof_unit_36140.cif
_audit_creation_date              2012-12-10T18:22:27-0500
_audit_creation_method            fapswitch 2.2
_symmetry_space_group_name_H-M    P1
_symmetry_Int_Tables_number       1
_space_group_crystal_system       triclinic
_cell_length_a                    23.528156
_cell_length_b                    10.685
_cell_length_c                    9.549556
_cell_angle_alpha                 88.822237
_cell_angle_beta                  90.823963
_cell_angle_gamma                 88.898841
_cell_volume                      2399.52996121

loop_
_atom_site_label
_atom_site_type_symbol
_atom_type_description
_atom_site_fract_x
_atom_site_fract_y
_atom_site_fract_z
_atom_type_partial_charge
C1    C     C_R   0.500179 0.259863 0.501681 0.802493
C2    C     C_R   0.499819 0.740138 0.498315 0.802656
C3    C     C_R   0.237505 0.590752 0.413970 -0.075634
C4    C     C_R   0.762371 0.409566 0.587812 -0.078204
C5    C     C_R   0.296945 0.595063 0.412517 0.125242
C6    C     C_R   0.702938 0.404986 0.588417 0.126618
C7    C     C_R   0.329088 0.510325 0.499590 0.007502
C8    C     C_R   0.670919 0.489265 0.500524 0.006358
C9    C     C_R   0.300937 0.431392 0.593855 -0.171128
C10   C     C_R   0.699219 0.567612 0.405919 -0.171864
C11   C     C_R   0.241904 0.433603 0.600040 -0.069276
C12   C     C_R   0.758277 0.565476 0.400441 -0.064766
C13   C     C_R   0.209576 0.511340 0.508124 0.262915
C14   C     C_R   0.790462 0.488555 0.493523 0.262848
C15   C     C_3   0.501895 0.033338 0.633006 0.193702
C16   C     C_3   0.498100 0.966666 0.366971 0.193744
C17   C     C_3   0.547551 0.952413 0.562158 -0.180242
C18   C     C_3   0.452445 0.047594 0.437816 -0.180763
C19   C     C_3   0.499781 0.877142 0.494606 -0.031227
C20   C     C_3   0.500214 0.122862 0.505374 -0.031320
C21   C     C_3   0.454139 0.956835 0.566663 -0.184700
C22   C     C_3   0.545856 0.043173 0.433311 -0.184416
C23   C     C_R   0.391450 0.504229 0.499308 0.796211
C24   C     C_R   0.608552 0.495673 0.500698 0.796583
C25   C     C_3   0.500128 0.612849 0.048691 -0.303284
C26   C     C_3   0.499867 0.387144 0.951309 -0.303502
C27   C     C_3   0.456031 0.558252 0.947962 0.431949
C28   C     C_3   0.543971 0.441738 0.052046 0.431558
C29   C     C_3   0.544166 0.553702 0.951679 0.424445
C30   C     C_3   0.455836 0.446293 0.048326 0.424272
C31   C     C_R   0.877958 0.605267 0.502202 0.584644
C32   C     C_R   0.121885 0.395386 0.500815 0.600142
C33   C     C_R   0.882967 0.382696 0.488964 0.588389
C34   C     C_R   0.117222 0.617801 0.515581 0.577942
C35   C     C_R   0.942359 0.384158 0.500243 -0.088153
C36   C     C_R   0.057758 0.616653 0.505609 -0.053354
C37   C     C_R   0.970003 0.499679 0.500033 -0.049337
C38   C     C_R   0.030022 0.501324 0.505862 -0.055247
C39   C     C_R   0.937719 0.613089 0.492892 -0.113329
C40   C     C_R   0.062263 0.387950 0.512821 -0.144514
C41   C     C_R   0.974188 0.272372 0.515663 -0.152577
C42   C     C_R   0.025964 0.728526 0.491808 -0.209101
C43   C     C_R   0.033445 0.272812 0.528439 0.426499
C44   C     C_R   0.966638 0.728503 0.479521 0.324421
Cu1   Cu    Cu3+1 0.500010 0.499990 0.643150 1.078006
Cu2   Cu    Cu3+1 0.499990 0.500010 0.356850 1.078105
H1    H     H_    0.952571 0.184057 0.523620 0.264552
H2    H     H_    0.047718 0.816688 0.484802 0.244460
H3    H     H_    0.500362 0.707833 0.090833 0.201974
H4    H     H_    0.499620 0.292162 0.909165 0.202071
H5    H     H_    0.212775 0.651259 0.342813 0.175646
H6    H     H_    0.786975 0.349611 0.659808 0.174887
H7    H     H_    0.324819 0.367667 0.663263 0.193558
H8    H     H_    0.675445 0.630933 0.335833 0.194295
H9    H     H_    0.221217 0.373186 0.675258 0.186278
H10   H     H_    0.779087 0.625480 0.325029 0.185633
H11   H     H_    0.587341 0.914510 0.611594 0.199523
H12   H     H_    0.412660 0.085507 0.388364 0.199329
H13   H     H_    0.415684 0.923377 0.620284 0.201734
H14   H     H_    0.584302 0.076650 0.379664 0.202048
N1    N     N_R   0.851777 0.492051 0.493589 -0.467404
N2    N     N_R   0.148271 0.508335 0.509328 -0.467731
N3    N     N_3   0.500040 0.499970 0.858290 -0.291595
N4    N     N_3   0.499960 0.500030 0.141710 -0.291578
O1    O     O_R   0.500030 0.316850 0.620870 -0.605445
O2    O     O_R   0.499970 0.683150 0.379130 -0.605325
O3    O     O_R   0.500000 0.316860 0.379090 -0.498489
O4    O     O_R   0.500000 0.683140 0.620910 -0.498408
O5    O     O_R   0.417890 0.499960 0.620920 -0.526957
O6    O     O_R   0.582110 0.500040 0.379080 -0.527001
O7    O     O_R   0.417870 0.499970 0.379140 -0.530120
O8    O     O_R   0.582130 0.500030 0.620860 -0.530244
O9    O     O_2   0.846184 0.708440 0.526817 -0.451488
O10   O     O_2   0.153191 0.292164 0.473160 -0.441589
O11   O     O_2   0.856625 0.272594 0.473584 -0.482807
O12   O     O_2   0.143750 0.727656 0.531123 -0.502910
S1    S     S_3+6 0.394733 0.648111 0.890494 0.052910
O13   O     O_2   0.407041 0.724326 0.761575 -0.314023
O14   O     O_2   0.346084 0.563106 0.861164 -0.238135
O15   O     O_3   0.376764 0.746222 0.018342 -0.572076
H15   H     H_    0.344378 0.796912 0.979225 0.378401
S2    S     S_3+6 0.605240 0.351739 0.109490 0.052991
O16   O     O_2   0.654026 0.436586 0.138002 -0.238027
O17   O     O_2   0.593032 0.276084 0.238879 -0.313417
O18   O     O_3   0.622922 0.252989 0.982018 -0.572748
H16   H     H_    0.655308 0.202290 0.021119 0.378972
S3    S     S_3+6 0.605411 0.638659 0.900563 0.060084
O19   O     O_2   0.650534 0.550953 0.848177 -0.250927
O20   O     O_2   0.589819 0.734495 0.789107 -0.313518
O21   O     O_3   0.630735 0.712001 0.041822 -0.540873
H17   H     H_    0.665171 0.754933 0.008970 0.380707
S4    S     S_3+6 0.394530 0.361574 0.099509 0.060595
O22   O     O_2   0.410042 0.265829 0.211128 -0.313604
O23   O     O_2   0.349459 0.449515 0.151720 -0.249912
O24   O     O_3   0.369178 0.288139 0.958345 -0.540740
H18   H     H_    0.334667 0.245491 0.991184 0.381001
S5    S     S_3+6 0.067686 0.130085 0.583472 0.081372
O25   O     O_2   0.093054 0.067314 0.458901 -0.195018
O26   O     O_2   0.113772 0.155367 0.689335 -0.246321
O27   O     O_3   0.020518 0.034086 0.658012 -0.536440
H19   H     H_    0.043438 0.961595 0.694730 0.376424
S6    S     S_3+6 0.932248 0.872954 0.429930 0.099223
O28   O     O_2   0.974614 0.964832 0.375574 -0.232033
O29   O     O_2   0.889102 0.850846 0.315917 -0.203325
O30   O     O_3   0.899139 0.934903 0.568101 -0.419898
H20   H     H_    0.921850 0.906142 0.651154 0.353981
C45   C     C_3   0.322974 0.695655 0.322674 -0.706097
H21   H     H_    0.369819 0.699387 0.332449 0.235631
H22   H     H_    0.310903 0.680813 0.211781 0.285744
H23   H     H_    0.305881 0.788525 0.353543 0.222567
C46   C     C_3   0.676802 0.304606 0.678355 -0.704277
H24   H     H_    0.629987 0.300530 0.667844 0.235012
H25   H     H_    0.694098 0.211698 0.648232 0.223310
H26   H     H_    0.688576 0.319969 0.789322 0.286232
C47   C     C_3   0.504013 0.063158 0.787389 -0.752459
H27   H     H_    0.506603 0.974689 0.850406 0.260016
H28   H     H_    0.542225 0.118929 0.809913 0.248452
H29   H     H_    0.464653 0.115180 0.815066 0.243102
C48   C     C_3   0.495979 0.936843 0.212586 -0.752533
H30   H     H_    0.493392 0.025313 0.149570 0.259932
H31   H     H_    0.535338 0.884817 0.184908 0.243279
H32   H     H_    0.457765 0.881078 0.190060 0.248257

loop_
_geom_bond_atom_site_label_1
_geom_bond_atom_site_label_2
_ccdc_geom_bond_type
C38   C40   A    
S3    O19   D    
C29   N3    S    
C30   N4    S    
C18   C21   S    
C41   C43   A    
C6    C46   S    
C23   O5    A    
C36   C42   A    
C46   H24   S    
S5    O25   D    
C24   O6    A    
Cu1   Cu2   S    
C4    H6    S    
C28   C29   S    
C35   C37   A    
C21   H13   S    
C2    O4    A    
C26   H4    S    
C32   O10   S    
C31   O9    S    
C47   H27   S    
C34   N2    A    
S6    O30   S    
C15   C17   S    
C31   N1    A    
O27   H19   S    
C33   C35   A    
C33   O11   S    
C40   C43   A    
C13   N2    S    
O24   H18   S    
C47   H28   S    
C1    O1    A    
C45   H21   S    
C18   C20   S    
C3    C13   A    
S1    O13   D    
S1    O14   D    
Cu1   O8    S    
C45   H22   S    
C42   C44   A    
C35   C41   A    
C10   C12   A    
S5    O26   D    
C18   H12   S    
C48   H31   S    
C25   C29   S    
C15   C20   S    
Cu2   O6    S    
C28   S2    S    
C23   O7    A    
C30   S4    S    
C16   C48   S    
C5    C7    A    
C3    H5    S    
C17   C19   S    
C6    C8    A    
C27   S1    S    
O18   H16   S    
C14   N1    S    
Cu1   O5    S    
Cu1   N3    S    
S4    O24   S    
Cu2   N4    S    
C25   N4    S    
C26   N3    S    
C37   C38   A    
C47   H29   S    
Cu1   O4    S    
S4    O23   D    
C41   H1    S    
C46   H25   S    
C16   C18   S    
C42   H2    S    
S6    O29   D    
C9    C11   A    
Cu2   O7    S    
C12   H10   S    
C27   N3    S    
C28   N4    S    
C4    C6    A    
C12   C14   A    
C26   C30   S    
S2    O17   D    
S3    O20   D    
Cu1   O1    S    
C45   H23   S    
C15   C47   S    
C9    H7    S    
C3    C5    A    
S5    O27   S    
C11   H9    S    
C24   O8    A    
C5    C45   S    
S1    O15   S    
C7    C9    A    
C1    C20   S    
C16   C22   S    
C19   C21   S    
C2    C19   S    
C48   H32   S    
C8    C10   A    
C43   S5    S    
C20   C22   S    
O15   H15   S    
C2    O2    A    
C48   H30   S    
Cu2   O2    S    
C39   C44   A    
C1    O3    A    
C25   C27   S    
S2    O18   S    
O30   H20   S    
C26   C28   S    
C17   C22   S    
C36   C38   A    
C32   N2    A    
Cu2   O3    S    
C37   C39   A    
C22   H14   S    
C11   C13   A    
O21   H17   S    
C16   C19   S    
C7    C23   S    
S4    O22   D    
C8    C24   S    
C31   C39   A    
C46   H26   S    
C34   C36   A    
C32   C40   A    
C4    C14   A    
S6    O28   D    
C10   H8    S    
C25   H3    S    
C29   S3    S    
C15   C21   S    
C33   N1    A    
S2    O16   D    
S3    O21   S    
C17   H11   S    
C34   O12   S    
C27   C30   S    
C44   S6    S    
