data_mof_unit_26880.cif
_audit_creation_date              2012-10-26T19:35:16-0400
_audit_creation_method            fapswitch 2.2
_symmetry_space_group_name_H-M    P1
_symmetry_Int_Tables_number       1
_space_group_crystal_system       triclinic
_cell_length_a                    10.749053
_cell_length_b                    10.869255
_cell_length_c                    9.582154
_cell_angle_alpha                 89.6893
_cell_angle_beta                  91.110868
_cell_angle_gamma                 90.554178
_cell_volume                      1119.24516512

loop_
_atom_site_label
_atom_site_type_symbol
_atom_type_description
_atom_site_fract_x
_atom_site_fract_y
_atom_site_fract_z
_atom_type_partial_charge
C1    C     C_R   0.502999 0.262767 0.500479 0.532269
C2    C     C_R   0.489935 0.941031 0.366463 -0.032037
C3    C     C_R   0.496462 0.871848 0.493955 0.010128
C4    C     C_R   0.262713 0.499027 0.499062 0.538545
C5    C     C_R   0.517873 0.935047 0.619049 0.001830
C6    C     C_3   0.447171 0.929383 0.752013 -0.272985
C7    C     C_3   0.454300 0.068914 0.755080 -0.269174
C8    C     C_R   0.608354 0.515031 0.075559 0.151893
C9    C     C_R   0.396427 0.464737 0.069210 0.067392
C10   C     C_R   0.397100 0.467463 0.921523 -0.027420
C11   C     C_R   0.608057 0.515612 0.928919 0.157116
C12   C     C_R   0.066579 0.390011 0.558259 0.024798
C13   C     C_3   0.696669 0.621531 0.924183 -0.279625
C14   C     C_3   0.699888 0.618832 0.082926 -0.278371
C15   C     C_R   0.495272 0.737698 0.498528 0.537583
C16   C     C_R   0.737330 0.497459 0.501089 0.533158
C17   C     C_R   0.131766 0.287019 0.610864 -0.128980
C18   C     C_R   0.068254 0.186676 0.666645 -0.121477
C19   C     C_R   0.938357 0.185723 0.670637 0.011605
C20   C     C_R   0.872173 0.287119 0.618240 -0.105257
C21   C     C_R   0.935317 0.390054 0.561457 0.004625
C22   C     C_R   0.282672 0.411090 0.128943 0.072550
C23   C     C_R   0.129004 0.491620 0.498128 0.022832
C24   C     C_R   0.169170 0.473790 0.116753 -0.100379
C25   C     C_R   0.058677 0.417080 0.158985 -0.103702
C26   C     C_R   0.060449 0.297644 0.213480 -0.099248
C27   C     C_R   0.172311 0.233528 0.222269 -0.123599
C28   C     C_R   0.282366 0.289098 0.177120 -0.061877
C29   C     C_3   0.871460 0.075455 0.729935 -0.256288
C30   C     C_3   0.871885 0.967700 0.627128 -0.296623
C31   C     C_3   0.825603 0.849526 0.695951 -0.443970
C32   C     C_3   0.449404 0.889873 0.224916 -0.233214
C33   C     C_3   0.311383 0.852337 0.222894 -0.280766
C34   C     C_R   0.063465 0.589284 0.438566 -0.154314
C35   C     C_3   0.266535 0.819331 0.075606 -0.459362
C36   C     C_R   0.935161 0.588824 0.440052 -0.169289
C37   C     C_R   0.871188 0.491657 0.503024 -0.002367
C38   C     C_R   0.523724 0.061627 0.622182 0.005438
C39   C     C_R   0.512328 0.130077 0.499646 -0.011433
C40   C     C_R   0.508005 0.068297 0.372148 -0.157060
Cu1   Cu    Cu3+1 0.499990 0.499980 0.640670 0.912415
Cu2   Cu    Cu3+1 0.500010 0.500020 0.359330 0.924256
H1    H     H_    0.111921 0.666467 0.391674 0.101510
H2    H     H_    0.232040 0.281866 0.607231 0.129337
H3    H     H_    0.120582 0.108751 0.706032 0.100074
H4    H     H_    0.771617 0.283504 0.619783 0.129584
H5    H     H_    0.885339 0.665429 0.393352 0.108494
H6    H     H_    0.508565 0.120173 0.275847 0.122348
H7    H     H_    0.350850 0.892915 0.736713 0.134189
H8    H     H_    0.166076 0.565616 0.073043 0.088776
H9    H     H_    0.971759 0.465835 0.149903 0.108395
H10   H     H_    0.975029 0.254418 0.247502 0.114280
H11   H     H_    0.173286 0.140059 0.261499 0.097997
H12   H     H_    0.501423 0.885319 0.838311 0.127858
H13   H     H_    0.366408 0.236200 0.175122 0.103774
H14   H     H_    0.813268 0.776387 0.616412 0.153763
H15   H     H_    0.893819 0.817975 0.776694 0.143133
H16   H     H_    0.735126 0.865361 0.745836 0.157874
H17   H     H_    0.810552 0.989787 0.535766 0.165866
H18   H     H_    0.967441 0.951908 0.589008 0.157840
H19   H     H_    0.917796 0.048585 0.830205 0.139747
H20   H     H_    0.773583 0.098612 0.753640 0.140065
H21   H     H_    0.275632 0.900180 0.005013 0.146762
H22   H     H_    0.321755 0.742127 0.034435 0.160966
H23   H     H_    0.362200 0.113544 0.741695 0.130592
H24   H     H_    0.166969 0.791410 0.077589 0.129245
H25   H     H_    0.295935 0.772059 0.292600 0.182184
H26   H     H_    0.254658 0.929694 0.261049 0.145200
H27   H     H_    0.462628 0.960381 0.141703 0.115022
H28   H     H_    0.508124 0.813298 0.192825 0.167334
H29   H     H_    0.513420 0.105022 0.842390 0.130226
H30   H     H_    0.314495 0.439894 0.863093 0.132186
H31   H     H_    0.786837 0.596445 0.877650 0.133234
H32   H     H_    0.652296 0.705341 0.880192 0.136614
H33   H     H_    0.791049 0.589364 0.127236 0.121484
H34   H     H_    0.663347 0.702996 0.130502 0.127211
N1    N     N_R   0.500790 0.500930 0.147930 -0.237734
N2    N     N_R   0.500790 0.500890 0.852020 -0.242024
O1    O     O_R   0.500000 0.319640 0.618810 -0.507913
O2    O     O_R   0.500010 0.319680 0.381230 -0.512013
O3    O     O_R   0.319640 0.499980 0.618820 -0.521068
O4    O     O_R   0.319650 0.500020 0.381230 -0.489098
O5    O     O_R   0.499990 0.680320 0.618770 -0.495161
O6    O     O_R   0.500000 0.680360 0.381190 -0.513298
O7    O     O_R   0.680350 0.499980 0.618770 -0.504434
O8    O     O_R   0.680360 0.500020 0.381180 -0.500032

loop_
_geom_bond_atom_site_label_1
_geom_bond_atom_site_label_2
_ccdc_geom_bond_type
Cu2   O2    S    
Cu1   Cu2   S    
C19   C20   A    
Cu2   O4    S    
C10   N2    A    
C12   C23   A    
C26   C27   A    
C31   H16   S    
C36   C37   A    
C7    H29   S    
C30   C31   S    
C9    C22   S    
Cu1   O5    S    
C36   H5    S    
C2    C32   S    
C18   C19   A    
C4    O3    A    
C30   H18   S    
C12   C17   A    
C35   H22   S    
Cu2   O8    S    
C31   H14   S    
C9    C10   A    
C16   C37   S    
C22   C28   A    
C5    C38   A    
C16   O8    A    
C6    H12   S    
C28   H13   S    
C24   H8    S    
C38   C39   A    
C29   H19   S    
Cu2   O6    S    
C24   C25   A    
Cu1   N2    S    
C4    C23   S    
C32   H28   S    
C8    N1    A    
C35   H24   S    
C25   C26   A    
C12   C21   A    
C14   H34   S    
C25   H9    S    
C29   C30   S    
C11   N2    A    
C26   H10   S    
C7    H23   S    
C23   C34   A    
Cu1   O3    S    
C30   H17   S    
C17   C18   A    
C4    O4    A    
C9    N1    A    
C13   H32   S    
C6    C7    S    
C13   H31   S    
C16   O7    A    
C1    O1    A    
C22   C24   A    
C19   C29   S    
C18   H3    S    
C39   C40   A    
C3    C15   S    
C33   H25   S    
C40   H6    S    
C29   H20   S    
C8    C14   S    
C32   H27   S    
C34   H1    S    
C3    C5    A    
Cu1   O1    S    
C15   O5    A    
C27   H11   S    
C15   O6    A    
Cu1   O7    S    
C32   C33   S    
C31   H15   S    
C2    C3    A    
C17   H2    S    
C14   H33   S    
C11   C13   S    
C5    C6    S    
C8    C11   A    
C33   C35   S    
C7    C38   S    
C34   C36   A    
C6    H7    S    
C1    C39   S    
C2    C40   A    
C21   C37   A    
C20   C21   A    
Cu2   N1    S    
C27   C28   A    
C1    O2    A    
C35   H21   S    
C13   C14   S    
C20   H4    S    
C33   H26   S    
C10   H30   S    
