data_mof_unit_49151.cif
_audit_creation_date              2012-12-11T15:08:42-0500
_audit_creation_method            fapswitch 2.2
_symmetry_space_group_name_H-M    P1
_symmetry_Int_Tables_number       1
_space_group_crystal_system       triclinic
_cell_length_a                    19.396296
_cell_length_b                    11.341561
_cell_length_c                    18.704835
_cell_angle_alpha                 90.050848
_cell_angle_beta                  89.974588
_cell_angle_gamma                 89.984466
_cell_volume                      4114.76737582

loop_
_atom_site_label
_atom_site_type_symbol
_atom_type_description
_atom_site_fract_x
_atom_site_fract_y
_atom_site_fract_z
_atom_type_partial_charge
C1    C     C_R   0.272695 0.042085 0.854912 0.529960
C2    C     C_R   0.728539 0.044908 0.146622 0.530044
C3    C     C_R   0.772695 0.542085 0.854912 0.529960
C4    C     C_R   0.228538 0.544907 0.146621 0.530044
C5    C     C_3   0.522702 0.732567 0.961713 -0.108918
C6    C     C_3   0.484103 0.719190 0.032930 -0.110054
C7    C     C_3   0.022701 0.232563 0.961711 -0.108915
C8    C     C_3   0.984103 0.219193 0.032930 -0.110053
C9    C     C_3   0.316872 0.539678 0.045672 -0.237262
C10   C     C_3   0.690779 0.514972 0.959611 -0.233646
C11   C     C_3   0.816874 0.039681 0.045673 -0.237262
C12   C     C_3   0.190778 0.014972 0.959611 -0.233646
C13   C     C_3   0.324177 0.558775 0.964176 -0.232059
C14   C     C_3   0.686528 0.523415 0.041950 -0.239512
C15   C     C_3   0.824178 0.058780 0.964177 -0.232057
C16   C     C_3   0.186527 0.023416 0.041950 -0.239512
C17   C     C_3   0.186802 0.513027 0.026482 -0.213587
C18   C     C_3   0.823331 0.530034 0.974073 -0.210481
C19   C     C_3   0.686804 0.013026 0.026482 -0.213592
C20   C     C_3   0.323330 0.030034 0.974073 -0.210481
C21   C     C_3   0.235570 0.707263 0.056168 -0.254077
C22   C     C_3   0.752430 0.703128 0.944900 -0.251931
C23   C     C_3   0.735570 0.207265 0.056169 -0.254075
C24   C     C_3   0.252429 0.203128 0.944900 -0.251930
C25   C     C_3   0.243429 0.575803 0.071002 0.064687
C26   C     C_3   0.758814 0.571350 0.931175 0.062081
C27   C     C_3   0.743430 0.075805 0.071003 0.064686
C28   C     C_3   0.258814 0.071350 0.931175 0.062080
C29   C     C_3   0.256391 0.610647 0.932624 0.054010
C30   C     C_3   0.745246 0.604415 0.069620 0.057878
C31   C     C_3   0.756392 0.110649 0.932625 0.054010
C32   C     C_3   0.245245 0.104416 0.069620 0.057878
C33   C     C_3   0.199490 0.520528 0.945332 -0.255769
C34   C     C_3   0.814315 0.544379 0.054962 -0.246542
C35   C     C_3   0.699491 0.020529 0.945332 -0.255771
C36   C     C_3   0.314314 0.044379 0.054962 -0.246542
C37   C     C_3   0.236071 0.724191 0.974472 -0.225747
C38   C     C_3   0.740849 0.720082 0.026002 -0.224186
C39   C     C_3   0.736071 0.224192 0.974472 -0.225747
C40   C     C_3   0.240849 0.220082 0.026002 -0.224187
C41   C     C_3   0.503607 0.697727 0.460070 -0.218900
C42   C     C_3   0.496427 0.697675 0.539841 -0.219152
C43   C     C_3   0.003607 0.197727 0.460070 -0.218900
C44   C     C_3   0.996427 0.197675 0.539841 -0.219152
C45   C     C_R   0.442738 0.817265 0.862224 0.530501
C46   C     C_R   0.554588 0.817478 0.137480 0.532111
C47   C     C_R   0.942736 0.317265 0.862224 0.530500
C48   C     C_R   0.054593 0.317477 0.137478 0.532096
C49   C     C_3   0.563559 0.900343 0.472337 -0.224386
C50   C     C_3   0.436444 0.900270 0.527815 -0.224222
C51   C     C_3   0.063559 0.400343 0.472337 -0.224387
C52   C     C_3   0.936444 0.400270 0.527815 -0.224222
C53   C     C_3   0.439721 0.882572 0.445748 -0.272813
C54   C     C_3   0.560296 0.882491 0.554374 -0.272682
C55   C     C_3   0.939721 0.382572 0.445748 -0.272813
C56   C     C_3   0.060296 0.382491 0.554374 -0.272682
C57   C     C_3   0.509484 0.825726 0.430572 0.057141
C58   C     C_3   0.490543 0.825624 0.569476 0.056912
C59   C     C_3   0.009484 0.325726 0.430572 0.057141
C60   C     C_3   0.990544 0.325624 0.569476 0.056912
C61   C     C_3   0.174209 0.641182 0.461275 0.105412
C62   C     C_3   0.825763 0.641095 0.538748 0.105416
C63   C     C_3   0.674209 0.141182 0.461275 0.105412
C64   C     C_3   0.325763 0.141094 0.538748 0.105416
C65   C     C_3   0.183976 0.667579 0.538999 -0.184472
C66   C     C_3   0.815986 0.667601 0.461058 -0.184525
C67   C     C_3   0.683976 0.167579 0.538999 -0.184472
C68   C     C_3   0.315986 0.167601 0.461058 -0.184525
C69   C     C_3   0.253241 0.461812 0.471916 -0.256757
C70   C     C_3   0.746753 0.461761 0.527876 -0.256856
C71   C     C_3   0.753241 0.961812 0.471916 -0.256757
C72   C     C_3   0.246753 0.961761 0.527876 -0.256856
C73   C     C_3   0.300466 0.658820 0.441814 -0.265736
C74   C     C_3   0.699529 0.658763 0.558283 -0.265608
C75   C     C_3   0.800466 0.158820 0.441814 -0.265736
C76   C     C_3   0.199529 0.158763 0.558283 -0.265608
C77   C     C_3   0.239027 0.578137 0.429084 0.054446
C78   C     C_3   0.760965 0.578026 0.570890 0.053816
C79   C     C_3   0.739027 0.078137 0.429084 0.054446
C80   C     C_3   0.260965 0.078026 0.570890 0.053816
C81   C     C_3   0.251681 0.611290 0.566930 0.014117
C82   C     C_3   0.748309 0.611373 0.433065 0.014439
C83   C     C_3   0.751681 0.111289 0.566930 0.014117
C84   C     C_3   0.248309 0.111373 0.433065 0.014439
C85   C     C_3   0.244344 0.480286 0.553272 -0.277968
C86   C     C_3   0.755666 0.480347 0.446538 -0.277619
C87   C     C_3   0.744344 0.980286 0.553272 -0.277968
C88   C     C_3   0.255666 0.980347 0.446538 -0.277619
C89   C     C_R   0.262448 0.642534 0.855280 0.535474
C90   C     C_R   0.738671 0.638308 0.146371 0.533950
C91   C     C_R   0.762449 0.142536 0.855281 0.535475
C92   C     C_R   0.238670 0.138308 0.146371 0.533949
C93   C     C_3   0.315387 0.654805 0.523057 -0.238212
C94   C     C_3   0.684612 0.654883 0.477029 -0.238196
C95   C     C_3   0.815387 0.154805 0.523057 -0.238212
C96   C     C_3   0.184612 0.154883 0.477029 -0.238196
C97   C     C_R   0.272921 0.045264 0.646487 0.555766
C98   C     C_R   0.727099 0.045378 0.353480 0.554515
C99   C     C_R   0.772921 0.545264 0.646487 0.555766
C100  C     C_R   0.227099 0.545378 0.353480 0.554515
C101  C     C_R   0.469671 0.822497 0.645947 0.538136
C102  C     C_R   0.530346 0.822560 0.354076 0.537469
C103  C     C_R   0.969671 0.322497 0.645947 0.538136
C104  C     C_R   0.030346 0.322560 0.354076 0.537471
C105  C     C_R   0.261023 0.641879 0.643200 0.545294
C106  C     C_R   0.738959 0.642001 0.356819 0.543813
C107  C     C_R   0.761023 0.141879 0.643200 0.545294
C108  C     C_R   0.238959 0.142001 0.356819 0.543813
C109  C     C_3   0.471912 0.910365 0.039243 -0.110265
C110  C     C_3   0.510791 0.923868 0.967297 -0.112214
C111  C     C_3   0.971918 0.410370 0.039242 -0.110256
C112  C     C_3   0.010795 0.423866 0.967294 -0.112213
C113  C     C_3   0.429326 0.807587 0.007506 -0.160997
C114  C     C_3   0.565419 0.834424 0.992370 -0.162888
C115  C     C_3   0.929327 0.307593 0.007507 -0.160997
C116  C     C_3   0.065422 0.334420 0.992365 -0.162891
C117  C     C_3   0.468779 0.821823 0.936533 0.053461
C118  C     C_3   0.526392 0.821719 0.063771 0.059039
C119  C     C_3   0.968779 0.321823 0.936533 0.053461
C120  C     C_3   0.026396 0.321721 0.063769 0.059035
Cr1   Cr    Cr6+3 0.229620 0.836040 0.749110 1.005001
Cr2   Cr    Cr6+3 0.770380 0.836040 0.250890 1.004839
Cr3   Cr    Cr6+3 0.729620 0.336040 0.749110 1.005002
Cr4   Cr    Cr6+3 0.270380 0.336040 0.250890 1.004839
Cr5   Cr    Cr6+3 0.387630 0.990680 0.750730 1.045120
Cr6   Cr    Cr6+3 0.612370 0.990680 0.249270 1.045347
Cr7   Cr    Cr6+3 0.887630 0.490680 0.750730 1.045119
Cr8   Cr    Cr6+3 0.112370 0.490680 0.249270 1.045347
Cr9   Cr    Cr6+3 0.386020 0.676590 0.749210 1.027103
Cr10  Cr    Cr6+3 0.613980 0.676590 0.250790 1.026306
Cr11  Cr    Cr6+3 0.886020 0.176590 0.749210 1.027103
Cr12  Cr    Cr6+3 0.113980 0.176590 0.250790 1.026307
H1    H     H_    0.374426 0.791028 0.017679 0.092269
H2    H     H_    0.617580 0.838847 0.971105 0.097368
H3    H     H_    0.874426 0.291037 0.017685 0.092267
H4    H     H_    0.117583 0.338839 0.971092 0.097369
H5    H     H_    0.185854 0.739932 0.078216 0.134185
H6    H     H_    0.799759 0.750797 0.927676 0.129567
H7    H     H_    0.685853 0.239932 0.078216 0.134186
H8    H     H_    0.299758 0.250796 0.927676 0.129567
H9    H     H_    0.277355 0.758107 0.082406 0.105130
H10   H     H_    0.708411 0.738719 0.913718 0.102967
H11   H     H_    0.777353 0.258110 0.082407 0.105129
H12   H     H_    0.208411 0.238719 0.913718 0.102965
H13   H     H_    0.270427 0.796313 0.959485 0.108078
H14   H     H_    0.687781 0.748235 0.035057 0.101579
H15   H     H_    0.770427 0.296315 0.959486 0.108078
H16   H     H_    0.187780 0.248234 0.035057 0.101579
H17   H     H_    0.182316 0.745723 0.958821 0.133164
H18   H     H_    0.777485 0.786054 0.046247 0.137302
H19   H     H_    0.682316 0.245724 0.958821 0.133164
H20   H     H_    0.277484 0.286055 0.046248 0.137301
H21   H     H_    0.635343 0.052630 0.037849 0.141412
H22   H     H_    0.369485 0.082319 0.958158 0.140446
H23   H     H_    0.135342 0.552633 0.037848 0.141410
H24   H     H_    0.869485 0.582320 0.958158 0.140446
H25   H     H_    0.151069 0.546878 0.917713 0.126819
H26   H     H_    0.857008 0.599607 0.076260 0.132356
H27   H     H_    0.651070 0.046878 0.917714 0.126822
H28   H     H_    0.357007 0.099607 0.076260 0.132356
H29   H     H_    0.547278 0.642103 0.445503 0.153577
H30   H     H_    0.452747 0.642103 0.554337 0.153409
H31   H     H_    0.047278 0.142103 0.445503 0.153577
H32   H     H_    0.952747 0.142102 0.554337 0.153409
H33   H     H_    0.458724 0.652192 0.435727 0.125292
H34   H     H_    0.541311 0.652093 0.564126 0.125361
H35   H     H_    0.958724 0.152192 0.435727 0.125292
H36   H     H_    0.041311 0.152093 0.564126 0.125361
H37   H     H_    0.615152 0.892765 0.450535 0.098304
H38   H     H_    0.384843 0.892644 0.549584 0.098319
H39   H     H_    0.115152 0.392765 0.450535 0.098303
H40   H     H_    0.884844 0.392643 0.549584 0.098319
H41   H     H_    0.602514 0.825450 0.573345 0.111770
H42   H     H_    0.397519 0.825557 0.426678 0.111609
H43   H     H_    0.102514 0.325450 0.573345 0.111770
H44   H     H_    0.897519 0.325557 0.426678 0.111609
H45   H     H_    0.453483 0.984122 0.072934 0.117060
H46   H     H_    0.521496 0.009082 0.940353 0.116472
H47   H     H_    0.953490 0.484132 0.072931 0.117059
H48   H     H_    0.021501 0.509079 0.940348 0.116472
H49   H     H_    0.434952 0.968609 0.417752 0.120867
H50   H     H_    0.565053 0.968480 0.582517 0.121196
H51   H     H_    0.934952 0.468609 0.417752 0.120867
H52   H     H_    0.065053 0.468480 0.582517 0.121196
H53   H     H_    0.453182 0.992102 0.537829 0.147030
H54   H     H_    0.546799 0.992203 0.462513 0.146734
H55   H     H_    0.953182 0.492102 0.537829 0.147030
H56   H     H_    0.046799 0.492203 0.462513 0.146734
H57   H     H_    0.133976 0.578892 0.458097 0.148462
H58   H     H_    0.865974 0.578754 0.541757 0.148180
H59   H     H_    0.633976 0.078892 0.458097 0.148462
H60   H     H_    0.365974 0.078754 0.541757 0.148180
H61   H     H_    0.184276 0.761991 0.547575 0.176148
H62   H     H_    0.815650 0.762001 0.452645 0.175997
H63   H     H_    0.684276 0.261991 0.547575 0.176148
H64   H     H_    0.315650 0.262001 0.452645 0.175997
H65   H     H_    0.138590 0.634567 0.569586 0.121590
H66   H     H_    0.861376 0.634649 0.430403 0.121507
H67   H     H_    0.638590 0.134567 0.569586 0.121590
H68   H     H_    0.361376 0.134649 0.430403 0.121507
H69   H     H_    0.722952 0.887846 0.452593 0.111232
H70   H     H_    0.277051 0.887760 0.547068 0.110999
H71   H     H_    0.222952 0.387846 0.452593 0.111232
H72   H     H_    0.777051 0.387760 0.547068 0.110999
H73   H     H_    0.693610 0.948449 0.571708 0.102537
H74   H     H_    0.306411 0.948525 0.428061 0.102203
H75   H     H_    0.193610 0.448449 0.571708 0.102536
H76   H     H_    0.806411 0.448525 0.428061 0.102203
H77   H     H_    0.345768 0.627618 0.410844 0.110133
H78   H     H_    0.654229 0.627549 0.589202 0.110392
H79   H     H_    0.845768 0.127618 0.410844 0.110133
H80   H     H_    0.154229 0.127549 0.589202 0.110392
H81   H     H_    0.288000 0.749213 0.424167 0.154598
H82   H     H_    0.711993 0.749124 0.576083 0.154743
H83   H     H_    0.788000 0.249213 0.424167 0.154599
H84   H     H_    0.211993 0.249124 0.576083 0.154743
H85   H     H_    0.543093 0.657956 0.929820 0.125554
H86   H     H_    0.474225 0.633151 0.059170 0.122626
H87   H     H_    0.043087 0.157946 0.929818 0.125555
H88   H     H_    0.974224 0.133155 0.059172 0.122626
H89   H     H_    0.336266 0.735980 0.543397 0.113139
H90   H     H_    0.663753 0.736133 0.456860 0.113185
H91   H     H_    0.836266 0.235980 0.543397 0.113139
H92   H     H_    0.163753 0.236133 0.456860 0.113185
H93   H     H_    0.355956 0.587906 0.530911 0.150514
H94   H     H_    0.644043 0.588039 0.469074 0.150633
H95   H     H_    0.855956 0.087906 0.530911 0.150514
H96   H     H_    0.144043 0.088039 0.469074 0.150633
H97   H     H_    0.308049 0.439585 0.462209 0.165651
H98   H     H_    0.691950 0.439526 0.537522 0.165975
H99   H     H_    0.808049 0.939585 0.462209 0.165651
H100  H     H_    0.191950 0.939526 0.537522 0.165975
H101  H     H_    0.283483 0.434005 0.584375 0.216718
H102  H     H_    0.716559 0.434110 0.415328 0.216596
H103  H     H_    0.783483 0.934005 0.584375 0.216718
H104  H     H_    0.216559 0.934110 0.415328 0.216596
H105  H     H_    0.329498 0.447541 0.059039 0.129161
H106  H     H_    0.683717 0.424875 0.941371 0.133609
H107  H     H_    0.829499 0.947545 0.059039 0.129161
H108  H     H_    0.183717 0.924875 0.941371 0.133609
H109  H     H_    0.355607 0.593832 0.074487 0.114082
H110  H     H_    0.646250 0.562411 0.936000 0.109745
H111  H     H_    0.855608 0.093836 0.074488 0.114082
H112  H     H_    0.146249 0.062411 0.936000 0.109746
H113  H     H_    0.368261 0.617672 0.952841 0.136977
H114  H     H_    0.634977 0.559044 0.056775 0.140092
H115  H     H_    0.868262 0.117680 0.952842 0.136974
H116  H     H_    0.134976 0.059044 0.056775 0.140091
H117  H     H_    0.336286 0.473121 0.937955 0.120987
H118  H     H_    0.690950 0.435371 0.066577 0.115725
H119  H     H_    0.836289 0.973126 0.937956 0.120988
H120  H     H_    0.190949 0.935371 0.066577 0.115725
H121  H     H_    0.683741 0.923530 0.045456 0.098933
H122  H     H_    0.335941 0.939886 0.959155 0.099386
H123  H     H_    0.183735 0.423530 0.045457 0.098931
H124  H     H_    0.835943 0.439888 0.959155 0.099386
H125  H     H_    0.715339 0.934310 0.923318 0.110885
H126  H     H_    0.316595 0.957390 0.082047 0.107667
H127  H     H_    0.215337 0.434309 0.923317 0.110883
H128  H     H_    0.816597 0.457390 0.082046 0.107666
O1    O     O_R   0.214130 0.708570 0.829890 -0.526336
O2    O     O_R   0.785870 0.708570 0.170110 -0.527726
O3    O     O_R   0.714130 0.208570 0.829890 -0.526336
O4    O     O_R   0.285870 0.208570 0.170110 -0.527726
O5    O     O_R   0.446360 0.919990 0.675230 -0.498221
O6    O     O_R   0.553640 0.919990 0.324770 -0.498542
O7    O     O_R   0.946360 0.419990 0.675230 -0.498221
O8    O     O_R   0.053640 0.419990 0.324770 -0.498541
O9    O     O_R   0.457170 0.717300 0.668380 -0.523273
O10   O     O_R   0.542830 0.717300 0.331620 -0.523505
O11   O     O_R   0.957170 0.217300 0.668380 -0.523273
O12   O     O_R   0.042830 0.217300 0.331620 -0.523504
O13   O     O_R   0.320870 0.624890 0.673130 -0.488320
O14   O     O_R   0.679130 0.624890 0.326870 -0.489273
O15   O     O_R   0.820870 0.124890 0.673130 -0.488320
O16   O     O_R   0.179130 0.124890 0.326870 -0.489273
O17   O     O_3   0.334430 0.834430 0.749680 -0.301741
O18   O     O_3   0.665570 0.834430 0.250320 -0.297539
O19   O     O_3   0.834430 0.334430 0.749680 -0.301742
O20   O     O_3   0.165570 0.334430 0.250320 -0.297541
O21   O     O_R   0.236050 0.959150 0.825270 -0.516763
O22   O     O_R   0.763950 0.959150 0.174730 -0.515463
O23   O     O_R   0.736050 0.459150 0.825270 -0.516763
O24   O     O_R   0.263950 0.459150 0.174730 -0.515463
O25   O     O_R   0.332100 0.076650 0.832310 -0.525751
O26   O     O_R   0.667900 0.076650 0.167690 -0.526492
O27   O     O_R   0.832100 0.576650 0.832310 -0.525751
O28   O     O_R   0.167900 0.576650 0.167690 -0.526493
O29   O     O_R   0.446500 0.918620 0.826240 -0.505292
O30   O     O_R   0.553500 0.918620 0.173760 -0.505357
O31   O     O_R   0.946500 0.418620 0.826240 -0.505292
O32   O     O_R   0.053500 0.418620 0.173760 -0.505350
O33   O     O_R   0.457310 0.715830 0.831280 -0.522796
O34   O     O_R   0.542690 0.715830 0.168720 -0.522682
O35   O     O_R   0.957310 0.215830 0.831280 -0.522798
O36   O     O_R   0.042690 0.215830 0.168720 -0.522674
O37   O     O_R   0.321000 0.623520 0.824130 -0.515124
O38   O     O_R   0.679000 0.623520 0.175870 -0.515378
O39   O     O_R   0.821000 0.123520 0.824130 -0.515125
O40   O     O_R   0.179000 0.123520 0.175870 -0.515380
O41   O     O_R   0.213990 0.710040 0.667000 -0.531150
O42   O     O_R   0.786010 0.710040 0.333000 -0.531927
O43   O     O_R   0.713990 0.210040 0.667000 -0.531150
O44   O     O_R   0.286010 0.210040 0.333000 -0.531927
O45   O     O_R   0.235920 0.960520 0.674260 -0.520733
O46   O     O_R   0.764080 0.960520 0.325740 -0.521559
O47   O     O_R   0.735920 0.460520 0.674260 -0.520732
O48   O     O_R   0.264080 0.460520 0.325740 -0.521558
O49   O     O_R   0.331960 0.078120 0.669410 -0.453059
O50   O     O_R   0.668040 0.078120 0.330590 -0.454025
O51   O     O_R   0.831960 0.578120 0.669410 -0.453059
O52   O     O_R   0.168040 0.578120 0.330590 -0.454025
Cl1   Cl    Cl    0.136858 0.764911 0.415842 -0.672305
Cl2   Cl    Cl    0.863163 0.764723 0.584353 -0.671228
Cl3   Cl    Cl    0.636858 0.264912 0.415842 -0.672305
Cl4   Cl    Cl    0.363163 0.264724 0.584353 -0.671228

loop_
_geom_bond_atom_site_label_1
_geom_bond_atom_site_label_2
_ccdc_geom_bond_type
C82   C94   S    
C55   C59   S    
C35   H125  S    
C83   C87   S    
C73   C93   S    
C47   O31   A    
C42   C58   S    
C29   C89   S    
C16   H120  S    
C75   C95   S    
C48   C120  S    
C24   H8    S    
C57   C102  S    
Cr6   O18   S    
Cr7   O7    S    
C85   H101  S    
C59   C104  S    
Cr1   O17   S    
C5    C6    S    
Cr10  O10   S    
Cr3   O19   S    
Cr4   O4    S    
Cr12  O16   S    
C29   C33   S    
C87   H103  S    
C30   C38   S    
C77   C100  S    
C44   H36   S    
C9    C13   S    
C87   H73   S    
C11   C15   S    
C5    H85   S    
C49   H54   S    
C12   C16   S    
C98   O50   A    
C99   O47   A    
C52   H55   S    
C21   H5    S    
C60   C103  S    
C107  O15   A    
C83   C107  S    
C113  H1    S    
C74   H82   S    
C111  H47   S    
C23   H11   S    
C66   H62   S    
C11   C27   S    
C16   H116  S    
C70   H72   S    
Cr5   O25   S    
C50   C53   S    
C89   O37   A    
C7    C119  S    
Cr8   O28   S    
C62   H58   S    
C62   C66   S    
Cr2   O2    S    
C20   C28   S    
C18   H124  S    
Cr12  O36   S    
C43   C44   S    
C66   C82   S    
Cr9   O33   S    
C62   Cl2   S    
C58   C101  S    
C105  O41   A    
C92   O4    A    
C107  O43   A    
C116  H4    S    
C108  O44   A    
C19   H21   S    
C89   O1    A    
Cr5   O49   S    
C17   H23   S    
C91   O3    A    
Cr1   O45   S    
Cr5   O5    S    
Cr2   O42   S    
C3    C26   S    
C84   C88   S    
Cr12  O12   S    
C110  H46   S    
C13   H117  S    
Cr10  O34   S    
C17   C25   S    
C19   C35   S    
C76   C96   S    
C1    O21   A    
C32   C92   S    
C75   H83   S    
C63   Cl3   S    
C95   H95   S    
C21   H9    S    
C61   C65   S    
C12   H108  S    
C78   C99   S    
C45   O29   A    
C75   C79   S    
Cr5   O29   S    
C22   C38   S    
C67   C83   S    
C80   C97   S    
C11   H111  S    
C69   C77   S    
C111  C112  S    
C9    H109  S    
C52   H40   S    
C71   C79   S    
C4    C25   S    
Cr4   O20   S    
C7    C8    S    
Cr10  O38   S    
Cr4   O44   S    
C96   H96   S    
C73   H77   S    
C24   H12   S    
C100  O52   A    
C39   H19   S    
C49   C57   S    
C40   H20   S    
Cr11  O11   S    
Cr9   O37   S    
C38   H14   S    
C51   H56   S    
C52   C60   S    
C19   H121  S    
C61   C77   S    
C12   H112  S    
C93   H93   S    
C36   H126  S    
C47   O35   A    
C110  C114  S    
C48   O36   A    
C43   C59   S    
C112  H48   S    
C76   H80   S    
C10   H106  S    
C6    H86   S    
C88   H74   S    
C22   H10   S    
Cr1   O21   S    
Cr2   O18   S    
Cr4   O24   S    
Cr12  O20   S    
C81   C105  S    
C30   C34   S    
C10   C14   S    
C101  O9    A    
C95   H91   S    
C116  C120  S    
C103  O11   A    
C7    C116  S    
C69   H97   S    
C33   H127  S    
C114  H2    S    
C34   H128  S    
C66   H66   S    
C113  C117  S    
C31   C91   S    
Cr6   O26   S    
C9    H105  S    
Cr4   O48   S    
C112  C116  S    
C69   C85   S    
C85   H75   S    
C72   H70   S    
C45   C117  S    
C21   C25   S    
C71   H99   S    
Cr12  O40   S    
C62   C78   S    
C76   C80   S    
C32   C36   S    
C15   C31   S    
C43   H35   S    
C16   C32   S    
C97   O45   A    
C105  O13   A    
C106  O42   A    
C72   C80   S    
C115  H3    S    
C4    O24   A    
C82   C106  S    
C90   O2    A    
C55   H44   S    
Cr6   O50   S    
Cr8   O32   S    
C94   H90   S    
Cr6   O6    S    
C46   O34   A    
Cr7   O19   S    
Cr8   O20   S    
C81   C85   S    
C13   H113  S    
C41   H29   S    
C41   C42   S    
C74   C94   S    
Cr9   O13   S    
C18   C26   S    
C30   C90   S    
Cr11  O39   S    
C1    O25   A    
C9    C25   S    
C2    O22   A    
C3    O27   A    
C75   H79   S    
C86   H102  S    
C12   C28   S    
C13   C29   S    
C67   H67   S    
C98   O46   A    
C46   C118  S    
C73   C77   S    
C64   H60   S    
Cr6   O30   S    
C106  O14   A    
C109  C118  S    
C1    C28   S    
C2    C27   S    
Cr10  O14   S    
C72   H100  S    
Cr11  O19   S    
C61   H57   S    
C52   C55   S    
C61   Cl1   S    
C64   C80   S    
C73   H81   S    
C17   C33   S    
C110  C117  S    
C38   H18   S    
C33   H25   S    
C65   H61   S    
C40   H16   S    
C68   C84   S    
C24   C28   S    
C86   H76   S    
C53   C57   S    
C82   C86   S    
C56   C60   S    
C115  C119  S    
C50   C58   S    
C104  O12   A    
C48   O32   A    
Cr7   O27   S    
C76   H84   S    
C65   C81   S    
C91   O39   A    
C42   H30   S    
Cr8   O8    S    
C50   H38   S    
C20   H122  S    
Cr2   O22   S    
C71   C87   S    
C92   O40   A    
C31   C35   S    
C64   C68   S    
C101  O5    A    
C102  O10   A    
C37   H17   S    
C108  O16   A    
C112  C119  S    
C14   H118  S    
C56   H52   S    
C22   H6    S    
C41   C57   S    
C109  C110  S    
C49   H37   S    
Cr5   O17   S    
C44   C60   S    
C63   H59   S    
C84   C108  S    
C94   H94   S    
C20   C36   S    
C109  H45   S    
C21   C37   S    
C22   C26   S    
C29   C37   S    
C55   H51   S    
C44   H32   S    
C42   H34   S    
C43   H31   S    
C97   O49   A    
C5    C114  S    
C70   C78   S    
C79   C98   S    
C99   O51   A    
C10   H110  S    
C63   C79   S    
C4    O28   A    
C20   H22   S    
C74   H78   S    
C54   H41   S    
C23   H7    S    
C46   O30   A    
C11   H107  S    
C49   C54   S    
Cr3   O47   S    
C51   C56   S    
C84   C96   S    
C8    C115  S    
Cr1   O1    S    
Cr3   O3    S    
C96   H92   S    
C41   H33   S    
C54   H50   S    
Cr9   O17   S    
C23   C27   S    
C19   C27   S    
C74   C78   S    
C109  C113  S    
C2    O26   A    
C7    H87   S    
C10   C26   S    
C47   C119  S    
C64   Cl4   S    
C14   C30   S    
C67   H63   S    
C72   C88   S    
C53   H42   S    
C88   H104  S    
C63   C67   S    
C56   H43   S    
C68   H64   S    
Cr7   O31   S    
Cr1   O41   S    
C5    C117  S    
C111  C120  S    
Cr10  O18   S    
Cr3   O43   S    
C70   H98   S    
C6    C113  S    
Cr11  O15   S    
C8    H88   S    
C53   H49   S    
C81   C93   S    
C83   C95   S    
Cr11  O35   S    
C18   C34   S    
C114  C118  S    
C65   H65   S    
C34   H26   S    
C69   H71   S    
C51   C59   S    
C70   C86   S    
C8    C120  S    
Cr2   O46   S    
C54   C58   S    
C71   H69   S    
C17   H123  S    
C45   O33   A    
C104  O8    A    
C18   H24   S    
C15   H115  S    
C111  C115  S    
Cr7   O51   S    
Cr8   O52   S    
C68   H68   S    
C51   H39   S    
Cr3   O23   S    
C90   O38   A    
C15   H119  S    
C23   C39   S    
C3    O23   A    
C24   C40   S    
C31   C39   S    
C32   C40   S    
C35   H27   S    
Cr9   O9    S    
C36   H28   S    
C103  O7    A    
C100  O48   A    
C102  O6    A    
C39   H15   S    
C93   H89   S    
C37   H13   S    
C50   H53   S    
C6    C118  S    
C14   H114  S    
