data_mof_unit_20135.cif
_audit_creation_date              2012-12-11T14:44:26-0500
_audit_creation_method            fapswitch 2.2
_symmetry_space_group_name_H-M    P1
_symmetry_Int_Tables_number       1
_space_group_crystal_system       triclinic
_cell_length_a                    24.86332
_cell_length_b                    16.816056
_cell_length_c                    15.821379
_cell_angle_alpha                 89.999714
_cell_angle_beta                  50.346508
_cell_angle_gamma                 90.0
_cell_volume                      5092.97986692

loop_
_atom_site_label
_atom_site_type_symbol
_atom_type_description
_atom_site_fract_x
_atom_site_fract_y
_atom_site_fract_z
_atom_type_partial_charge
C1    C     C_R   0.361193 0.153338 0.739815 0.166639
C2    C     C_3   0.695704 0.686734 0.603478 -0.167388
C3    C     C_3   0.235880 0.959941 0.857888 -0.886171
C4    C     C_3   0.803329 0.747967 0.703822 -0.763157
C5    C     C_3   0.264074 0.459919 0.141863 -0.886466
C6    C     C_3   0.196194 0.748006 0.297012 -0.760866
C7    C     C_3   0.735918 0.459828 0.858049 -0.885418
C8    C     C_2   0.355254 0.741560 0.957637 1.023187
C9    C     C_2   0.592450 0.340171 0.197675 1.021017
C10   C     C_2   0.644589 0.740099 0.044168 1.023391
C11   C     C_2   0.407572 0.340160 0.802323 1.021032
C12   C     C_2   0.855431 0.240010 0.955725 1.023373
C13   C     C_3   0.749421 0.213699 0.605261 -0.168701
C14   C     C_2   0.091998 0.840099 0.197922 1.021287
C15   C     C_2   0.144580 0.240060 0.044232 1.023384
C16   C     C_2   0.907582 0.840175 0.802260 1.021058
C17   C     C_3   0.304316 0.686669 0.396538 -0.167427
C18   C     C_3   0.750552 0.713683 0.394756 -0.168710
C19   C     C_3   0.195721 0.186747 0.603454 -0.167449
C20   C     C_3   0.249400 0.713721 0.605273 -0.168651
C21   C     C_3   0.804284 0.186736 0.396535 -0.167453
C22   C     C_2   0.634347 0.266111 0.161783 -0.140143
C23   C     C_2   0.320595 0.811818 0.953553 -0.133905
C24   C     C_2   0.365662 0.266111 0.838214 -0.140146
C25   C     C_R   0.662928 0.880976 0.204280 0.185411
C26   C     C_2   0.679186 0.810897 0.047269 -0.134239
C27   C     C_2   0.134226 0.766308 0.162076 -0.139956
C28   C     C_2   0.820832 0.310837 0.952679 -0.134268
C29   C     C_2   0.865665 0.766128 0.838187 -0.140103
C30   C     C_2   0.179184 0.310873 0.047293 -0.134267
C31   C     C_2   0.703106 0.260566 0.077370 -0.163232
C32   C     C_2   0.252163 0.827446 0.029087 -0.199047
C33   C     C_2   0.296901 0.260579 0.922622 -0.163199
C34   C     C_2   0.747566 0.826682 0.971444 -0.199161
C35   C     C_2   0.203064 0.761137 0.077928 -0.163358
C36   C     C_R   0.638806 0.153338 0.260192 0.166627
C37   C     C_2   0.752455 0.326629 0.028521 -0.199195
C38   C     C_2   0.796903 0.760606 0.922596 -0.163270
C39   C     C_2   0.247564 0.326652 0.971461 -0.199199
C40   C     C_R   0.616095 0.102339 0.592248 -0.139666
C41   C     C_R   0.408903 0.853506 0.408147 -0.119474
C42   C     C_R   0.383909 0.102347 0.407748 -0.139664
C43   C     C_R   0.591057 0.853487 0.591871 -0.119883
C44   C     C_R   0.116100 0.602324 0.592247 -0.139813
C45   C     C_R   0.908906 0.353508 0.408141 -0.119541
C46   C     C_R   0.883904 0.602348 0.407755 -0.139502
C47   C     C_R   0.337010 0.881177 0.795918 0.185436
C48   C     C_R   0.091092 0.353504 0.591855 -0.119522
C49   C     C_R   0.691260 0.094325 0.411608 -0.127710
C50   C     C_R   0.334099 0.854823 0.591660 -0.123914
C51   C     C_R   0.308742 0.094338 0.588388 -0.127757
C52   C     C_R   0.665897 0.854820 0.408358 -0.123752
C53   C     C_R   0.191266 0.594287 0.411613 -0.127296
C54   C     C_R   0.834084 0.354836 0.591651 -0.123852
C55   C     C_R   0.808740 0.594332 0.588395 -0.127696
C56   C     C_R   0.165909 0.354831 0.408344 -0.123792
C57   C     C_R   0.552875 0.146371 0.252872 -0.159684
C58   C     C_R   0.861191 0.653337 0.739816 0.166568
C59   C     C_R   0.427123 0.883503 0.793936 -0.105336
C60   C     C_R   0.447126 0.146368 0.747130 -0.159646
C61   C     C_R   0.572807 0.883241 0.206260 -0.105187
C62   C     C_R   0.052876 0.646374 0.252862 -0.159093
C63   C     C_R   0.927198 0.383227 0.793728 -0.105139
C64   C     C_R   0.947126 0.646372 0.747126 -0.159720
C65   C     C_R   0.072809 0.383241 0.206259 -0.105150
C66   C     C_R   0.394943 0.195235 0.769049 0.063137
C67   C     C_R   0.640112 0.855987 0.148411 0.000476
C68   C     C_R   0.605058 0.195239 0.230957 0.063169
C69   C     C_R   0.162932 0.380988 0.204278 0.185586
C70   C     C_R   0.359760 0.856411 0.851972 0.000276
C71   C     C_R   0.894941 0.695238 0.769046 0.063133
C72   C     C_R   0.140117 0.355992 0.148410 0.000436
C73   C     C_R   0.105072 0.695241 0.230915 0.062842
C74   C     C_R   0.859897 0.355961 0.851565 0.000506
C75   C     C_R   0.684444 0.111408 0.502123 0.034902
C76   C     C_R   0.357217 0.811400 0.500414 0.031179
C77   C     C_R   0.315561 0.111425 0.497872 0.034933
C78   C     C_R   0.642749 0.811381 0.499609 0.031177
C79   C     C_R   0.184454 0.611370 0.502125 0.034795
C80   C     C_R   0.138810 0.653335 0.260158 0.165624
C81   C     C_R   0.857215 0.311407 0.500405 0.031297
C82   C     C_R   0.815555 0.611425 0.497883 0.034871
C83   C     C_R   0.142779 0.311401 0.499589 0.031256
C84   C     C_3   0.285959 0.234135 0.443691 -0.135270
C85   C     C_3   0.659521 0.666765 0.554876 -0.127397
C86   C     C_3   0.714042 0.234127 0.556291 -0.135253
C87   C     C_3   0.340457 0.666749 0.445221 -0.127397
C88   C     C_3   0.785934 0.734131 0.443715 -0.135263
C89   C     C_3   0.159540 0.166787 0.554849 -0.127364
C90   C     C_3   0.214059 0.734120 0.556233 -0.135293
C91   C     C_R   0.837076 0.380964 0.795709 0.185433
C92   C     C_3   0.840463 0.166788 0.445148 -0.127331
C93   C     C_3   0.717793 0.768529 0.547239 -0.146944
C94   C     C_3   0.228997 0.131079 0.450742 -0.150955
C95   C     C_3   0.282219 0.768488 0.452711 -0.146999
C96   C     C_3   0.771005 0.131079 0.549255 -0.150951
C97   C     C_3   0.217822 0.268539 0.547213 -0.147050
C98   C     C_3   0.728982 0.631064 0.450767 -0.150952
C99   C     C_3   0.782180 0.268532 0.452769 -0.147059
C100  C     C_3   0.270978 0.631077 0.549328 -0.150989
C101  C     C_3   0.682498 0.748151 0.498547 0.176768
C102  C     C_3   0.250577 0.213697 0.394729 -0.168671
C103  C     C_3   0.263929 0.152565 0.499623 0.172549
C104  C     C_3   0.317472 0.748159 0.501484 0.176816
C105  C     C_3   0.736076 0.152554 0.500367 0.172552
C106  C     C_3   0.182527 0.248171 0.498518 0.176788
C107  C     C_3   0.763915 0.652560 0.499643 0.172490
C108  C     C_3   0.817470 0.248174 0.501472 0.176779
C109  C     C_3   0.236086 0.652523 0.500369 0.172458
C110  C     C_3   0.303318 0.247971 0.703850 -0.763370
C111  C     C_3   0.764085 0.959833 0.141966 -0.885374
C112  C     C_3   0.696696 0.247966 0.296135 -0.763396
H1    H     H_    0.594433 0.103391 0.677098 0.093709
H2    H     H_    0.290236 0.840486 0.674689 0.125989
H3    H     H_    0.259581 0.082375 0.668247 0.095618
H4    H     H_    0.709796 0.840504 0.325349 0.125901
H5    H     H_    0.240417 0.582302 0.331744 0.095494
H6    H     H_    0.790183 0.340525 0.674662 0.125915
H7    H     H_    0.759583 0.582352 0.668255 0.095599
H8    H     H_    0.209801 0.340516 0.325328 0.125867
H9    H     H_    0.517045 0.159671 0.238033 0.115598
H10   H     H_    0.457286 0.882928 0.821437 0.101111
H11   H     H_    0.482958 0.159666 0.761965 0.115597
H12   H     H_    0.434477 0.838476 0.323852 0.112134
H13   H     H_    0.542640 0.882511 0.178770 0.100985
H14   H     H_    0.017010 0.659699 0.238105 0.115605
H15   H     H_    0.957364 0.382489 0.821218 0.100907
H16   H     H_    0.982962 0.659675 0.761952 0.115609
H17   H     H_    0.042643 0.382502 0.178770 0.100913
H18   H     H_    0.712901 0.825819 0.586593 0.119574
H19   H     H_    0.234868 0.073316 0.411664 0.120820
H20   H     H_    0.287131 0.825757 0.413301 0.119622
H21   H     H_    0.765135 0.073320 0.588340 0.120801
H22   H     H_    0.212934 0.325829 0.586564 0.119535
H23   H     H_    0.405572 0.103396 0.322898 0.093726
H24   H     H_    0.734858 0.573301 0.411686 0.120776
H25   H     H_    0.787067 0.325818 0.413411 0.119534
H26   H     H_    0.265082 0.573336 0.588466 0.120767
H27   H     H_    0.338439 0.261503 0.398273 0.130592
H28   H     H_    0.606541 0.640985 0.600138 0.135543
H29   H     H_    0.661562 0.261492 0.601703 0.130607
H30   H     H_    0.393432 0.640969 0.400020 0.135561
H31   H     H_    0.838412 0.761507 0.398295 0.130799
H32   H     H_    0.106556 0.141017 0.600110 0.135561
H33   H     H_    0.161589 0.761498 0.601590 0.130618
H34   H     H_    0.565436 0.838443 0.676182 0.112337
H35   H     H_    0.893447 0.141022 0.399894 0.135559
H36   H     H_    0.272797 0.224894 0.308758 0.114077
H37   H     H_    0.673669 0.675045 0.689271 0.129955
H38   H     H_    0.727196 0.224902 0.691233 0.114075
H39   H     H_    0.326377 0.674936 0.310741 0.130267
H40   H     H_    0.772771 0.724876 0.308784 0.114078
H41   H     H_    0.173683 0.175057 0.689249 0.129961
H42   H     H_    0.227150 0.724960 0.691249 0.114069
H43   H     H_    0.826325 0.175039 0.310741 0.129954
H44   H     H_    0.233142 0.886141 0.032040 0.199686
H45   H     H_    0.094434 0.603382 0.677099 0.093756
H46   H     H_    0.726015 0.201278 0.051760 0.151114
H47   H     H_    0.766456 0.885573 0.968052 0.199355
H48   H     H_    0.273983 0.201295 0.948235 0.151118
H49   H     H_    0.733571 0.385533 0.031942 0.199308
H50   H     H_    0.226244 0.701972 0.052297 0.150508
H51   H     H_    0.266456 0.385550 0.968035 0.199317
H52   H     H_    0.773980 0.701325 0.948220 0.151071
H53   H     H_    0.262354 0.135474 0.785425 0.187197
H54   H     H_    0.252206 0.258280 0.723822 0.241210
H55   H     H_    0.344082 0.240194 0.613764 0.240969
H56   H     H_    0.934483 0.338478 0.323846 0.112056
H57   H     H_    0.316250 0.301378 0.728855 0.246728
H58   H     H_    0.765905 0.837901 0.110329 0.190399
H59   H     H_    0.818373 0.953673 0.111329 0.265763
H60   H     H_    0.734101 0.995118 0.218503 0.232332
H61   H     H_    0.765103 0.991328 0.079229 0.258640
H62   H     H_    0.737644 0.135461 0.214581 0.187152
H63   H     H_    0.747814 0.258274 0.276146 0.241200
H64   H     H_    0.655939 0.240190 0.386223 0.240976
H65   H     H_    0.683760 0.301373 0.271137 0.246728
H66   H     H_    0.234050 0.838072 0.889846 0.190300
H67   H     H_    0.905563 0.603397 0.322906 0.093659
H68   H     H_    0.181612 0.953723 0.888471 0.265803
H69   H     H_    0.265890 0.995117 0.781266 0.232521
H70   H     H_    0.234819 0.991583 0.920576 0.258552
H71   H     H_    0.762349 0.635481 0.785429 0.187105
H72   H     H_    0.752226 0.758265 0.723761 0.241214
H73   H     H_    0.844108 0.740190 0.613740 0.241009
H74   H     H_    0.816244 0.801380 0.728841 0.246713
H75   H     H_    0.265920 0.337961 0.110326 0.190505
H76   H     H_    0.318356 0.453804 0.111268 0.265756
H77   H     H_    0.234070 0.495270 0.218346 0.232481
H78   H     H_    0.065518 0.338472 0.676149 0.112053
H79   H     H_    0.265108 0.491329 0.079061 0.258470
H80   H     H_    0.237660 0.635777 0.214692 0.186373
H81   H     H_    0.247139 0.758321 0.277600 0.241675
H82   H     H_    0.155202 0.740087 0.387024 0.240553
H83   H     H_    0.183395 0.801467 0.271894 0.246632
H84   H     H_    0.734098 0.337891 0.889663 0.190443
H85   H     H_    0.681627 0.453672 0.888692 0.265768
H86   H     H_    0.765898 0.495123 0.781520 0.232329
H87   H     H_    0.734903 0.491312 0.920790 0.258633
H88   H     H_    0.431560 0.659040 0.873246 0.318552
H89   H     H_    0.740417 0.082345 0.331750 0.095614
H90   H     H_    0.578049 0.447109 0.156900 0.324803
H91   H     H_    0.568292 0.657676 0.129742 0.318585
H92   H     H_    0.421989 0.447087 0.843100 0.324897
H93   H     H_    0.931741 0.157619 0.870090 0.318573
H94   H     H_    0.077341 0.946905 0.157214 0.324799
H95   H     H_    0.068257 0.157671 0.129846 0.318608
H96   H     H_    0.921994 0.947132 0.842967 0.324821
N1    N     N_R   0.389620 0.081040 0.705440 -0.081412
N2    N     N_R   0.417680 0.920160 0.443370 -0.041593
N3    N     N_R   0.417680 0.079840 0.443370 -0.032481
N4    N     N_R   0.582320 0.920160 0.556630 -0.041568
N5    N     N_R   0.082320 0.579840 0.556630 -0.032526
N6    N     N_R   0.917680 0.420160 0.443370 -0.041604
N7    N     N_R   0.917680 0.579840 0.443370 -0.032497
N8    N     N_R   0.082320 0.420160 0.556630 -0.041591
N9    N     N_R   0.627920 0.078930 0.443400 -0.041431
N10   N     N_R   0.372080 0.921070 0.556600 -0.039445
N11   N     N_R   0.372080 0.078930 0.556600 -0.041430
N12   N     N_R   0.610380 0.918960 0.294560 -0.057017
N13   N     N_R   0.627920 0.921070 0.443400 -0.039445
N14   N     N_R   0.127920 0.578930 0.443400 -0.041402
N15   N     N_R   0.872080 0.421070 0.556600 -0.039454
N16   N     N_R   0.872080 0.578930 0.556600 -0.041423
N17   N     N_R   0.127920 0.421070 0.443400 -0.039429
N18   N     N_R   0.555090 0.077730 0.294590 -0.056273
N19   N     N_R   0.444910 0.922270 0.705410 -0.056086
N20   N     N_R   0.444910 0.077730 0.705410 -0.056269
N21   N     N_R   0.555090 0.922270 0.294590 -0.056057
N22   N     N_R   0.055090 0.577730 0.294590 -0.056290
N23   N     N_R   0.610380 0.081040 0.294560 -0.081457
N24   N     N_R   0.944910 0.422270 0.705410 -0.056043
N25   N     N_R   0.944910 0.577730 0.705410 -0.056269
N26   N     N_R   0.055090 0.422270 0.294590 -0.056059
N27   N     N_2   0.299014 0.178148 0.761642 -0.102266
N28   N     N_2   0.732939 0.882140 0.163941 -0.134427
N29   N     N_2   0.700990 0.178142 0.238354 -0.102256
N30   N     N_2   0.267024 0.882273 0.836147 -0.134404
N31   N     N_2   0.799016 0.678149 0.761629 -0.102294
N32   N     N_2   0.232947 0.382203 0.163922 -0.134235
N33   N     N_2   0.200820 0.678288 0.238776 -0.102692
N34   N     N_R   0.389620 0.918960 0.705440 -0.057024
N35   N     N_2   0.767063 0.382133 0.836058 -0.134411
N36   N     N_R   0.889620 0.581040 0.705440 -0.081440
N37   N     N_R   0.110380 0.418960 0.294560 -0.057002
N38   N     N_R   0.110380 0.581040 0.294560 -0.081262
N39   N     N_R   0.889620 0.418960 0.705440 -0.057002
N40   N     N_R   0.582320 0.079840 0.556630 -0.032478
Ni1   Ni    Ni4+2 0.382970 0.000000 0.629840 0.209536
Ni2   Ni    Ni4+2 0.617030 0.000000 0.370160 0.209521
Ni3   Ni    Ni4+2 0.882970 0.500000 0.629840 0.209536
Ni4   Ni    Ni4+2 0.117030 0.500000 0.370160 0.209531
Ni5   Ni    Ni4+2 0.514540 0.000000 0.629840 0.207226
Ni6   Ni    Ni4+2 0.485460 0.000000 0.370160 0.207263
Ni7   Ni    Ni4+2 0.014540 0.500000 0.629840 0.207226
Ni8   Ni    Ni4+2 0.985460 0.500000 0.370160 0.207242
O1    O     O_2   0.336237 0.717043 0.045568 -0.666692
O2    O     O_R   0.911991 0.204589 0.857587 -0.811168
O3    O     O_2   0.038741 0.846885 0.293422 -0.637896
O4    O     O_R   0.110898 0.900270 0.122490 -0.827733
O5    O     O_2   0.163725 0.214490 0.956658 -0.666870
O6    O     O_R   0.088012 0.204627 0.142362 -0.811140
O7    O     O_2   0.960605 0.847232 0.706618 -0.637776
O8    O     O_R   0.888670 0.900292 0.877759 -0.827743
O9    O     O_R   0.411734 0.705492 0.860045 -0.811313
O10   O     O_2   0.539441 0.347266 0.293324 -0.637651
O11   O     O_R   0.611362 0.400256 0.122133 -0.827756
O12   O     O_2   0.663720 0.714581 0.956580 -0.666856
O13   O     O_R   0.588045 0.704617 0.142281 -0.811170
O14   O     O_2   0.460587 0.347246 0.706679 -0.637640
O15   O     O_R   0.388665 0.400244 0.877863 -0.827792
O16   O     O_2   0.836294 0.214423 0.043290 -0.666867

loop_
_geom_bond_atom_site_label_1
_geom_bond_atom_site_label_2
_ccdc_geom_bond_type
C3    N30   S    
C4    H73   S    
C96   C105  S    
C48   N8    A    
C76   C104  S    
N2    N10   A    
C5    N32   S    
N12   Ni2   S    
C69   C72   A    
C84   C102  S    
C11   C24   S    
C25   C67   A    
N9    N40   A    
C92   C96   S    
C28   C74   S    
N7    N16   A    
N19   N34   A    
H75   N32   S    
C19   C97   S    
C90   C95   S    
N19   Ni5   S    
C55   H7    S    
C95   C104  S    
C43   C78   A    
C99   C108  S    
C9    O11   S    
C41   N2    A    
C33   C39   S    
C20   H42   S    
N12   N21   A    
C15   C30   S    
C15   O5    D    
C26   C67   S    
C41   H12   S    
N3    Ni6   S    
N36   Ni3   S    
C1    N27   S    
C13   H38   S    
C90   H33   S    
N22   Ni8   S    
C14   O3    D    
N26   N37   A    
C21   C99   S    
C53   H5    S    
C58   C71   A    
C3    H70   S    
N18   N23   A    
C98   H24   S    
C2    C107  S    
N4    Ni5   S    
C8    C23   S    
C80   N33   S    
C52   C78   A    
C2    C85   S    
C111  H60   S    
C110  H55   S    
C64   C71   A    
C4    H74   S    
C89   C94   S    
H58   N28   S    
C110  H57   S    
N2    Ni6   S    
C85   C98   S    
H91   O13   S    
N16   Ni3   S    
H71   N31   S    
C32   H44   S    
C16   O7    D    
C19   C103  S    
C26   C34   D    
C25   N28   S    
C62   N22   A    
C10   O13   S    
C29   C38   D    
C29   C71   S    
C61   N21   A    
C49   C75   A    
C6    N33   S    
C17   C95   S    
N1    N20   A    
C14   C27   S    
C77   C103  S    
C59   N19   A    
H90   O11   S    
C88   H31   S    
C48   H78   S    
N22   N38   A    
C33   H48   S    
C24   C66   S    
H93   O2    S    
C63   H15   S    
C102  H36   S    
C34   H47   S    
C10   C26   S    
C59   H10   S    
C38   H52   S    
C81   C108  S    
C60   C66   A    
C52   N13   A    
C17   C87   S    
C78   C101  S    
C44   H45   S    
C56   H8    S    
C23   C70   S    
C45   N6    A    
C17   H39   S    
N24   Ni7   S    
C12   O2    S    
C97   H22   S    
C13   C108  S    
C18   H40   S    
C6    H83   S    
C69   N32   S    
C6    H82   S    
C92   C108  S    
N21   Ni6   S    
C49   H89   S    
N4    N13   A    
C52   H4    S    
C12   C28   S    
C91   N39   A    
N13   Ni2   S    
C35   H50   S    
C22   C31   D    
C79   C109  S    
H84   N35   S    
C1    N1    A    
C44   N5    A    
C32   C35   S    
C46   C82   A    
C65   N26   A    
C5    H79   S    
C99   H25   S    
H62   N29   S    
C93   C101  S    
C62   H14   S    
C88   C107  S    
N25   Ni7   S    
N40   Ni5   S    
N38   Ni4   S    
C13   C96   S    
C27   C35   D    
C16   C29   S    
C4    N31   S    
N6    Ni8   S    
C50   N10   A    
C51   H3    S    
C98   C107  S    
C31   C37   S    
C49   N9    A    
C42   H23   S    
C60   N20   A    
C18   C101  S    
C34   C38   S    
C74   C91   A    
C7    H85   S    
C60   H11   S    
C3    H68   S    
C51   C77   A    
C47   C70   A    
C19   C89   S    
C24   C33   D    
C50   C76   A    
C47   N30   S    
N5    N14   A    
C61   C67   A    
N25   N36   A    
C30   C72   S    
C40   H1    S    
C20   C100  S    
N18   Ni6   S    
C64   H16   S    
C1    C66   A    
C21   H43   S    
C46   N7    A    
C62   C73   A    
C82   C107  S    
C4    H72   S    
C55   C82   A    
C58   N36   A    
C86   C99   S    
C3    H69   S    
C85   H28   S    
C22   C68   S    
C83   C106  S    
C90   C109  S    
C100  H26   S    
C84   H27   S    
C97   C106  S    
C56   N17   A    
C69   N37   A    
H88   O9    S    
C112  H64   S    
N37   Ni4   S    
C111  H61   S    
C94   C103  S    
C75   C105  S    
N8    Ni7   S    
C54   H6    S    
C95   H20   S    
C19   H41   S    
C89   C106  S    
C80   N38   A    
N5    Ni7   S    
C86   C105  S    
N9    Ni2   S    
C84   C97   S    
C57   C68   A    
C39   H51   S    
C93   H18   S    
C89   H32   S    
N26   Ni8   S    
H66   N30   S    
C85   C101  S    
C110  N27   S    
C56   C83   A    
C37   H49   S    
C87   C100  S    
C86   H29   S    
N15   Ni3   S    
C36   N29   S    
H95   O6    S    
H94   O4    S    
C88   C93   S    
H80   N33   S    
C53   C79   A    
C8    O1    D    
N34   Ni1   S    
C11   O15   S    
C46   H67   S    
C44   C79   A    
C45   C81   A    
C12   O16   D    
C13   C86   S    
C91   N35   S    
C8    O9    S    
C17   C109  S    
C47   N34   A    
C65   H17   S    
C36   C68   A    
H53   N27   S    
C96   H21   S    
C20   C104  S    
N8    N17   A    
N39   Ni3   S    
N17   Ni4   S    
C65   C72   A    
N3    N11   A    
C9    O10   D    
C94   H19   S    
H96   O8    S    
C40   C75   A    
C43   N4    A    
N24   N39   A    
C51   N11   A    
C23   C32   D    
C7    H86   S    
C2    C93   S    
C53   N14   A    
C5    H77   S    
C64   N25   A    
C43   H34   S    
C14   O4    S    
C41   C76   A    
C110  H54   S    
C54   N15   A    
C20   C90   S    
C28   C37   D    
C2    H37   S    
C36   N23   A    
C40   N40   A    
N7    Ni8   S    
C11   O14   D    
C73   C80   A    
C30   C39   D    
C102  C106  S    
C111  H59   S    
C54   C81   A    
C87   H30   S    
C7    H87   S    
C9    C22   S    
C45   H56   S    
C18   C88   S    
C55   N16   A    
C31   H46   S    
C111  N28   S    
N6    N15   A    
C10   O12   D    
C59   C70   A    
C57   H9    S    
C87   C104  S    
C16   O8    S    
H92   O15   S    
C100  C109  S    
C112  H63   S    
N10   Ni1   S    
C63   C74   A    
C42   C77   A    
C112  N29   S    
N11   Ni1   S    
C7    N35   S    
C15   O6    S    
C84   C103  S    
C48   C83   A    
C112  H65   S    
C25   N12   A    
C61   H13   S    
N20   Ni5   S    
C18   C98   S    
C5    H76   S    
C50   H2    S    
C27   C73   S    
N23   Ni2   S    
C57   N18   A    
C6    H81   S    
C21   C105  S    
C42   N3    A    
C58   N31   S    
C94   C102  S    
N1    Ni1   S    
C63   N24   A    
C92   H35   S    
C21   C92   S    
N14   Ni4   S    
