data_mof_unit_59693.cif
_audit_creation_date              2013-03-05T16:44:35-0500
_audit_creation_method            fapswitch 2.2
_symmetry_space_group_name_H-M    P1
_symmetry_Int_Tables_number       1
_space_group_crystal_system       triclinic
_cell_length_a                    27.568267
_cell_length_b                    10.651237
_cell_length_c                    9.850466
_cell_angle_alpha                 89.838122
_cell_angle_beta                  89.779043
_cell_angle_gamma                 89.970248
_cell_volume                      2892.41944133

loop_
_atom_site_label
_atom_site_type_symbol
_atom_site_description
_atom_site_fract_x
_atom_site_fract_y
_atom_site_fract_z
_atom_type_partial_charge
O1    O     O_R   0.500010 0.316790 0.614690 -0.619624
O2    O     O_R   0.500000 0.316760 0.385350 -0.623236
C1    C     C_R   0.502030 0.259797 0.499888 0.883925
O3    O     O_R   0.428760 0.500040 0.614660 -0.595417
O4    O     O_R   0.428750 0.500000 0.385310 -0.624347
C2    C     C_R   0.406009 0.500222 0.500042 0.955329
Zn1   Zn    Zn3+2 0.500000 0.500020 0.653130 0.970429
Zn2   Zn    Zn3+2 0.500000 0.499980 0.346870 0.959857
O5    O     O_R   0.500000 0.683240 0.614650 -0.609070
O6    O     O_R   0.499990 0.683210 0.385310 -0.624668
O7    O     O_R   0.571250 0.500000 0.614690 -0.625993
O8    O     O_R   0.571240 0.499960 0.385340 -0.628278
C3    C     C_R   0.502231 0.740126 0.499659 0.930310
C4    C     C_R   0.594166 0.499698 0.499603 0.873144
C5    C     C_R   0.176825 0.347932 0.510439 0.527026
O9    O     O_2   0.200324 0.253505 0.573952 -0.537759
N1    N     N_R   0.202169 0.449158 0.462868 -0.356045
C6    C     C_R   0.179860 0.546351 0.397150 0.517313
C7    C     C_R   0.272406 0.541861 0.574533 -0.117926
C8    C     C_R   0.322547 0.561079 0.582523 -0.024970
C9    C     C_R   0.333640 0.399019 0.410024 -0.227134
C10   C     C_R   0.283889 0.382682 0.401995 -0.074600
C11   C     C_R   0.253284 0.455152 0.482814 0.280316
C12   C     C_R   0.102492 0.443533 0.430194 -0.054797
C13   C     C_R   0.126394 0.342996 0.494786 -0.031658
C14   C     C_R   0.099318 0.242910 0.547083 -0.123799
C15   C     C_R   0.129556 0.546041 0.380682 -0.023178
C16   C     C_R   0.353358 0.488665 0.498159 -0.083681
H1    H     H_    0.356920 0.341285 0.347144 0.155008
H2    H     H_    0.269004 0.315831 0.330785 0.155945
H3    H     H_    0.116634 0.166754 0.601623 0.195456
C17   C     C_R   0.647228 0.496685 0.497189 -0.064658
C18   C     C_R   0.973535 0.335399 0.444285 -0.024835
C19   C     C_R   0.976570 0.560140 0.382324 0.041687
C20   C     C_R   0.949790 0.451619 0.420142 0.067980
C21   C     C_R   0.944822 0.224334 0.454903 -0.050526
C22   C     C_R   0.894646 0.235116 0.473590 -0.174469
C23   C     C_R   0.871792 0.352199 0.468514 -0.047356
C24   C     C_R   0.898982 0.459988 0.436255 -0.045437
C25   C     C_R   0.875361 0.576576 0.421683 -0.040064
C26   C     C_R   0.825312 0.583666 0.443417 0.573124
N2    N     N_R   0.799815 0.478173 0.477106 -0.336669
C27   C     C_R   0.821651 0.363469 0.488361 0.576901
C28   C     C_R   0.721636 0.485184 0.368393 -0.112166
C29   C     C_R   0.671553 0.490583 0.372328 -0.184167
C30   C     C_R   0.673821 0.498376 0.618426 -0.255749
C31   C     C_R   0.724735 0.493824 0.616114 0.007775
C32   C     C_R   0.748351 0.486351 0.488537 0.240334
O10   O     O_2   0.794802 0.261001 0.518052 -0.540945
C33   C     C_R   0.024579 0.337014 0.462067 0.070989
C34   C     C_R   0.051412 0.443300 0.418519 0.080040
C35   C     C_R   0.027485 0.551533 0.368492 0.050800
C36   C     C_R   0.049206 0.240842 0.532706 -0.145853
H4    H     H_    0.651946 0.489058 0.277263 0.172771
H5    H     H_    0.740037 0.479418 0.271224 0.159132
H6    H     H_    0.873047 0.150812 0.486072 0.224007
H7    H     H_    0.029997 0.165698 0.583297 0.153427
O11   O     O_2   0.206393 0.643257 0.348724 -0.539188
C37   C     C_R   0.105870 0.646440 0.317721 -0.116722
H8    H     H_    0.247736 0.598379 0.634716 0.169843
H9    H     H_    0.126029 0.724722 0.275496 0.197355
C38   C     C_R   0.951734 0.675209 0.365873 -0.180532
C39   C     C_R   0.902028 0.683199 0.386088 -0.091567
O12   O     O_2   0.802135 0.694767 0.430924 -0.537352
C40   C     C_R   0.055594 0.649697 0.312304 -0.208814
H10   H     H_    0.970125 0.762203 0.343590 0.162687
H11   H     H_    0.654812 0.503935 0.714706 0.194596
H12   H     H_    0.884646 0.773869 0.374741 0.211501
H13   H     H_    0.039593 0.729776 0.262278 0.144948
C41   C     C_R   0.522085 0.063794 0.616749 0.119915
C42   C     C_R   0.511566 0.128693 0.497527 -0.101442
C43   C     C_R   0.512264 0.064991 0.373015 -0.198325
H14   H     H_    0.508341 0.113663 0.276944 0.181125
C44   C     C_R   0.512452 0.935479 0.372939 -0.205491
H15   H     H_    0.508610 0.887272 0.276871 0.177485
C45   C     C_R   0.511954 0.871096 0.497367 -0.102418
C46   C     C_R   0.522472 0.935478 0.616731 0.119380
C47   C     C_3   0.500479 0.927853 0.755454 -0.456001
C48   C     C_3   0.499516 0.070238 0.754534 -0.432940
H16   H     H_    0.463793 0.885244 0.756213 0.220269
H17   H     H_    0.526106 0.888067 0.831108 0.201130
H18   H     H_    0.462242 0.109474 0.751500 0.244471
H19   H     H_    0.524107 0.113006 0.830664 0.209565
C49   C     C_R   0.468031 0.426588 0.072096 0.217667
N3    N     N_R   0.499670 0.499140 0.142800 -0.108938
C50   C     C_R   0.534116 0.564318 0.071413 -0.120353
H20   H     H_    0.560983 0.618532 0.125406 0.148742
C51   C     C_R   0.534044 0.564605 0.927367 -0.111815
H21   H     H_    0.560811 0.619166 0.872476 0.148667
N4    N     N_R   0.499670 0.499180 0.857150 -0.119657
C52   C     C_R   0.468255 0.425287 0.929195 0.138451
C53   C     C_3   0.414007 0.432549 0.925260 -0.260371
C54   C     C_3   0.414158 0.435304 0.079675 -0.532179
H22   H     H_    0.400623 0.521333 0.878981 0.188736
H23   H     H_    0.401565 0.526525 0.121673 0.227084
H24   H     H_    0.398032 0.351405 0.129640 0.215303
C55   C     C_2   0.751918 0.497802 0.746711 0.947702
O13   O     O_2   0.730121 0.486656 0.854569 -0.635212
O14   O     O_R   0.802167 0.515692 0.747934 -0.794114
H25   H     H_    0.816012 0.516714 0.843138 0.354167
C56   C     C_2   0.390719 0.316349 0.867605 0.975113
O15   O     O_2   0.401405 0.212303 0.911159 -0.649639
O16   O     O_R   0.355989 0.328547 0.765651 -0.797349
H26   H     H_    0.342851 0.244607 0.734451 0.355360
C57   C     C_2   0.964339 0.096726 0.426910 0.886031
O17   O     O_2   0.946567 0.004821 0.482816 -0.636189
O18   O     O_R   0.002105 0.081257 0.333178 -0.786164
H27   H     H_    0.012091 0.990182 0.322474 0.335842
C58   C     C_2   0.340785 0.661984 0.672460 0.911744
O19   O     O_2   0.318979 0.687116 0.777330 -0.602451
O20   O     O_R   0.381643 0.731856 0.635425 -0.814013
H28   H     H_    0.388993 0.800618 0.703064 0.340406

loop_
_geom_bond_atom_site_label_1
_geom_bond_atom_site_label_2
_geom_bond_distance
_ccdc_geom_bond_type
C56   O15   1.223505 D    
C17   C29   1.400268 A    
C1    C42   1.421051 S    
C7    C8    1.400040 A    
C47   H17   1.111778 S    
C12   C15   1.407730 A    
C55   O13   1.224102 D    
C46   C47   1.494832 S    
Zn1   O7    1.998969 S    
C57   O18   1.398878 S    
N1    C11   1.425027 S    
C25   C39   1.396344 A    
C44   C45   1.402804 A    
C21   C22   1.399467 A    
Zn2   N3    2.010285 S    
C58   O20   1.397090 S    
O4    C2    1.290299 A    
O7    C4    1.295679 A    
C50   C51   1.418926 A    
C5    C13   1.400454 A    
C5    O9    1.349634 S    
C19   C38   1.412840 A    
C18   C21   1.427088 A    
C5    N1    1.365884 A    
C19   C20   1.419940 A    
C26   N2    1.365167 A    
O5    C3    1.284353 A    
C39   H12   1.083570 S    
C22   H6    1.084124 S    
C49   N3    1.360679 A    
C6    O11   1.350289 S    
C2    C16   1.456976 S    
C31   C32   1.415508 A    
O18   H27   1.013897 S    
C41   C42   1.392463 A    
C49   C52   1.407740 A    
C12   C34   1.413324 A    
C41   C48   1.492619 S    
C14   H3    1.083328 S    
C56   O16   1.395971 S    
O1    Zn1   1.989070 S    
C9    C10   1.385220 A    
C41   C46   1.366770 A    
O3    Zn1   2.001622 S    
C55   O14   1.398525 S    
C33   C34   1.417220 A    
C37   H9    1.083422 S    
C33   C36   1.411852 A    
C44   H15   1.083493 S    
C38   H10   1.078102 S    
C34   C35   1.416124 A    
C12   C13   1.408681 A    
O3    C2    1.293663 A    
C4    C17   1.463263 S    
C24   C25   1.409114 A    
C36   H7    1.079592 S    
C47   C48   1.516793 S    
C27   O10   1.349808 S    
C8    C16   1.415788 A    
C18   C33   1.418832 A    
N3    C50   1.367841 A    
Zn1   N4    2.009672 S    
C9    H1    1.082760 S    
O1    C1    1.285998 A    
C20   C24   1.411847 A    
C22   C23   1.397761 A    
C48   H18   1.109598 S    
O14   H25   1.013943 S    
C3    C45   1.420749 S    
Zn2   O8    2.001622 S    
C38   C39   1.386534 A    
C53   H22   1.112075 S    
N1    C6    1.366613 A    
N2    C32   1.425440 S    
C45   C46   1.394344 A    
C53   C56   1.508032 S    
C43   C44   1.379470 A    
C25   C26   1.397473 A    
C9    C16   1.403493 A    
O8    C4    1.292978 A    
C29   H4    1.083213 S    
C54   H24   1.111160 S    
N2    C27   1.366123 A    
C14   C36   1.389474 A    
C52   C53   1.498152 S    
C28   C29   1.382257 A    
C7    C11   1.398578 A    
Zn1   O5    1.986938 S    
C30   C31   1.404541 A    
C10   H2    1.082954 S    
O20   H28   1.012592 S    
C21   C57   1.487667 S    
C50   H20   1.081728 S    
C17   C30   1.403886 A    
Zn2   O6    1.989069 S    
O2    Zn2   1.986939 S    
C6    C15   1.396874 A    
C51   N4    1.367666 A    
C43   H14   1.083497 S    
O6    C3    1.282392 A    
O4    Zn2   1.998971 S    
C7    H8    1.083905 S    
C57   O17   1.223485 D    
C19   C35   1.412668 A    
C31   C55   1.492002 S    
O2    C1    1.280936 A    
C13   C14   1.397763 A    
C23   C27   1.400441 A    
C15   C37   1.397592 A    
C58   O19   1.223432 D    
C37   C40   1.387664 A    
C48   H19   1.111606 S    
C28   H5    1.083430 S    
N4    C52   1.365990 A    
C23   C24   1.406393 A    
C40   H13   1.078815 S    
C53   C54   1.521449 S    
C18   C20   1.419912 A    
C47   H16   1.108737 S    
C49   C54   1.489645 S    
C8    C58   1.483963 S    
C30   H11   1.083531 S    
C42   C43   1.403414 A    
C51   H21   1.081754 S    
C54   H23   1.111982 S    
O16   H26   1.013767 S    
C10   C11   1.392505 A    
C26   O12   1.350089 S    
C35   C40   1.412203 A    
C28   C32   1.396433 A    
