data_mof_unit_25097.cif
_audit_creation_date              2012-12-11T15:22:27-0500
_audit_creation_method            fapswitch 2.2
_symmetry_space_group_name_H-M    P1
_symmetry_Int_Tables_number       1
_space_group_crystal_system       triclinic
_cell_length_a                    22.475693
_cell_length_b                    12.965262
_cell_length_c                    26.946011
_cell_angle_alpha                 89.779904
_cell_angle_beta                  90.695625
_cell_angle_gamma                 89.814622
_cell_volume                      7851.47620343

loop_
_atom_site_label
_atom_site_type_symbol
_atom_type_description
_atom_site_fract_x
_atom_site_fract_y
_atom_site_fract_z
_atom_type_partial_charge
C1    C     C_R   0.720912 0.346184 0.178564 0.537160
C2    C     C_R   0.279400 0.345266 0.821661 0.530908
C3    C     C_R   0.220912 0.846184 0.178564 0.537161
C4    C     C_R   0.779400 0.845265 0.821661 0.530910
C5    C     C_R   0.433128 0.157178 0.881427 -0.004015
C6    C     C_R   0.515946 0.167090 0.132593 -0.004014
C7    C     C_R   0.933130 0.657177 0.881427 -0.004012
C8    C     C_R   0.015946 0.667091 0.132594 -0.004013
C9    C     C_R   0.520352 0.256945 0.103580 -0.186263
C10   C     C_R   0.452123 0.249862 0.903280 -0.183331
C11   C     C_R   0.020352 0.756946 0.103580 -0.186263
C12   C     C_R   0.952124 0.749862 0.903280 -0.183331
C13   C     C_R   0.498263 0.258932 0.054917 0.002630
C14   C     C_R   0.465441 0.254308 0.953987 0.001730
C15   C     C_R   0.998263 0.758932 0.054917 0.002630
C16   C     C_R   0.965442 0.754308 0.953987 0.001730
C17   C     C_R   0.471535 0.169778 0.034930 0.021492
C18   C     C_R   0.456244 0.166711 0.984083 0.022176
C19   C     C_R   0.971535 0.669778 0.034930 0.021492
C20   C     C_R   0.956245 0.666712 0.984083 0.022177
C21   C     C_R   0.505724 0.346523 0.024966 -0.117394
C22   C     C_R   0.488807 0.344583 0.974964 -0.120323
C23   C     C_R   0.005724 0.846523 0.024966 -0.117395
C24   C     C_R   0.988808 0.844583 0.974964 -0.120323
C25   C     C_R   0.736157 0.975513 0.126970 0.035132
C26   C     C_R   0.265099 0.978165 0.873613 0.062960
C27   C     C_R   0.236156 0.475513 0.126970 0.035134
C28   C     C_R   0.765099 0.478165 0.873613 0.062955
C29   C     C_R   0.755090 0.053029 0.094520 -0.115476
C30   C     C_R   0.254726 0.060523 0.905931 -0.110681
C31   C     C_R   0.255088 0.553030 0.094520 -0.115474
C32   C     C_R   0.754724 0.560522 0.905931 -0.110686
C33   C     C_R   0.754186 0.037502 0.043922 -0.122823
C34   C     C_R   0.255634 0.045295 0.956728 -0.120328
C35   C     C_R   0.254183 0.537504 0.043922 -0.122823
C36   C     C_R   0.755632 0.545295 0.956728 -0.120328
C37   C     C_R   0.736390 0.942372 0.024451 0.035318
C38   C     C_R   0.265619 0.946595 0.976391 0.031159
C39   C     C_R   0.236390 0.442372 0.024451 0.035318
C40   C     C_R   0.765619 0.446595 0.976391 0.031161
C41   C     C_R   0.716480 0.864362 0.056718 -0.111745
C42   C     C_R   0.277480 0.863877 0.944147 -0.106921
C43   C     C_R   0.216482 0.364361 0.056718 -0.111745
C44   C     C_R   0.777482 0.363878 0.944147 -0.106921
C45   C     C_R   0.552242 0.157818 0.178321 0.560249
C46   C     C_R   0.419397 0.153454 0.827700 0.586569
C47   C     C_R   0.052242 0.657818 0.178321 0.560250
C48   C     C_R   0.919398 0.653454 0.827700 0.586561
C49   C     C_R   0.715422 0.881645 0.107970 -0.124629
C50   C     C_R   0.277987 0.879999 0.892750 -0.089085
C51   C     C_R   0.215424 0.381644 0.107970 -0.124631
C52   C     C_R   0.777990 0.380000 0.892751 -0.089084
C53   C     C_R   0.700660 0.867832 0.943662 -0.127684
C54   C     C_R   0.298466 0.863948 0.056282 -0.128424
C55   C     C_R   0.200660 0.367830 0.943662 -0.127684
C56   C     C_R   0.798467 0.363949 0.056283 -0.128423
C57   C     C_R   0.709901 0.847883 0.893440 -0.143727
C58   C     C_R   0.289394 0.844007 0.106485 -0.146677
C59   C     C_R   0.209901 0.347881 0.893441 -0.143727
C60   C     C_R   0.789394 0.344008 0.106485 -0.146675
C61   C     C_R   0.801654 0.945648 0.897091 -0.126080
C62   C     C_R   0.204086 0.958908 0.105288 -0.129148
C63   C     C_R   0.301653 0.445651 0.897091 -0.126080
C64   C     C_R   0.704086 0.458908 0.105288 -0.129147
C65   C     C_R   0.792917 0.964154 0.946936 -0.122285
C66   C     C_R   0.213618 0.979840 0.055508 -0.121896
C67   C     C_R   0.292916 0.464157 0.946936 -0.122285
C68   C     C_R   0.713618 0.479839 0.055508 -0.121896
C69   C     C_R   0.742841 0.924496 0.970933 0.036447
C70   C     C_R   0.259839 0.930393 0.030190 0.038376
C71   C     C_R   0.242841 0.424497 0.970932 0.036447
C72   C     C_R   0.759839 0.430394 0.030190 0.038377
C73   C     C_R   0.761440 0.884353 0.870224 0.021949
C74   C     C_R   0.240391 0.887628 0.130699 0.016497
C75   C     C_R   0.261440 0.384353 0.870224 0.021949
C76   C     C_R   0.740391 0.387628 0.130699 0.016498
C77   C     C_R   0.525454 0.166185 0.370158 -0.026609
C78   C     C_R   0.460704 0.165696 0.625631 -0.017254
C79   C     C_R   0.025402 0.666208 0.370140 -0.026659
C80   C     C_R   0.960684 0.665692 0.625628 -0.017210
C81   C     C_R   0.508245 0.261804 0.389906 -0.112986
C82   C     C_R   0.499985 0.240401 0.607716 -0.119647
C83   C     C_R   0.008385 0.761884 0.389943 -0.112936
C84   C     C_R   0.000115 0.740165 0.607722 -0.119640
C85   C     C_R   0.489849 0.268825 0.439387 0.316336
C86   C     C_R   0.511068 0.247117 0.556535 0.318134
C87   C     C_R   0.989986 0.768899 0.439422 0.316310
C88   C     C_R   0.011193 0.746857 0.556540 0.318179
C89   C     C_R   0.730993 0.003318 0.179083 0.535210
C90   C     C_R   0.269080 0.003059 0.821013 0.533130
C91   C     C_R   0.230992 0.503318 0.179083 0.535203
C92   C     C_R   0.769080 0.503060 0.821013 0.533129
C93   C     C_R   0.492139 0.180177 0.469918 0.046548
C94   C     C_R   0.479059 0.183240 0.523275 0.049150
C95   C     C_R   0.992073 0.680161 0.469901 0.046455
C96   C     C_R   0.979038 0.683211 0.523270 0.049055
C97   C     C_R   0.507099 0.084685 0.449354 -0.189256
C98   C     C_R   0.438209 0.111889 0.541688 -0.192391
C99   C     C_R   0.006806 0.584616 0.449275 -0.189236
C100  C     C_R   0.938050 0.612092 0.541677 -0.192381
C101  C     C_R   0.522712 0.077456 0.399986 -0.142473
C102  C     C_R   0.429837 0.102132 0.592233 -0.137572
C103  C     C_R   0.022427 0.577413 0.399905 -0.142507
C104  C     C_R   0.929676 0.602345 0.592223 -0.137515
C105  C     C_R   0.734823 0.982310 0.376434 0.035257
C106  C     C_R   0.265290 0.982375 0.623552 0.032634
C107  C     C_R   0.234824 0.482310 0.376433 0.035280
C108  C     C_R   0.765284 0.482370 0.623553 0.032512
C109  C     C_R   0.719040 0.886529 0.396184 -0.140389
C110  C     C_R   0.281493 0.886555 0.604184 -0.144400
C111  C     C_R   0.219069 0.386514 0.396183 -0.140412
C112  C     C_R   0.781506 0.386560 0.604184 -0.144447
C113  C     C_R   0.717607 0.873698 0.447605 -0.123286
C114  C     C_R   0.283097 0.873548 0.552799 -0.131246
C115  C     C_R   0.217637 0.373681 0.447604 -0.123314
C116  C     C_R   0.783108 0.373555 0.552799 -0.131259
C117  C     C_R   0.729981 0.957733 0.479005 0.026547
C118  C     C_R   0.270441 0.957416 0.520972 0.023586
C119  C     C_R   0.229986 0.457726 0.479004 0.026496
C120  C     C_R   0.770433 0.457417 0.520973 0.023468
C121  C     C_R   0.742860 0.054317 0.458631 -0.135486
C122  C     C_R   0.257283 0.054114 0.540961 -0.127856
C123  C     C_R   0.242840 0.554321 0.458632 -0.135528
C124  C     C_R   0.757255 0.554105 0.540963 -0.128012
C125  C     C_R   0.746108 0.066001 0.407871 -0.117313
C126  C     C_R   0.253884 0.065992 0.591710 -0.115679
C127  C     C_R   0.246085 0.566010 0.407871 -0.117259
C128  C     C_R   0.753855 0.565979 0.591711 -0.115835
C129  C     C_R   0.783096 0.989118 0.558227 -0.128382
C130  C     C_R   0.216923 0.988544 0.441631 -0.120932
C131  C     C_R   0.283086 0.489139 0.558231 -0.128390
C132  C     C_R   0.716912 0.488532 0.441632 -0.121039
C133  C     C_R   0.721424 0.348052 0.321489 0.538910
C134  C     C_R   0.278559 0.348283 0.678576 0.541504
C135  C     C_R   0.221424 0.848051 0.321490 0.538907
C136  C     C_R   0.778559 0.848282 0.678576 0.541503
C137  C     C_R   0.793914 0.965291 0.607569 -0.123007
C138  C     C_R   0.205941 0.964608 0.392391 -0.121812
C139  C     C_R   0.293903 0.465311 0.607573 -0.122988
C140  C     C_R   0.705933 0.464600 0.392391 -0.121800
C141  C     C_R   0.706681 0.855403 0.607832 -0.141260
C142  C     C_R   0.293325 0.854191 0.392372 -0.142215
C143  C     C_R   0.206687 0.355384 0.607828 -0.141272
C144  C     C_R   0.793328 0.354207 0.392370 -0.142215
C145  C     C_R   0.695651 0.879766 0.558253 -0.129256
C146  C     C_R   0.304495 0.878599 0.441871 -0.131439
C147  C     C_R   0.195658 0.379744 0.558249 -0.129280
C148  C     C_R   0.804496 0.378615 0.441870 -0.131404
C149  C     C_R   0.735193 0.943599 0.532748 0.028345
C150  C     C_R   0.265014 0.942906 0.467230 0.027040
C151  C     C_R   0.235194 0.443596 0.532748 0.028278
C152  C     C_R   0.765008 0.442908 0.467230 0.027058
C153  C     C_R   0.757623 0.894111 0.631955 0.019137
C154  C     C_R   0.242295 0.893288 0.368136 0.018379
C155  C     C_R   0.257621 0.394111 0.631955 0.019126
C156  C     C_R   0.742294 0.393291 0.368135 0.018403
C157  C     C_R   0.554223 0.158613 0.321591 0.542361
C158  C     C_R   0.444559 0.158644 0.677881 0.548116
C159  C     C_R   0.054217 0.658616 0.321589 0.542378
C160  C     C_R   0.944566 0.658645 0.677884 0.548061
C161  C     C_R   0.731203 0.004501 0.323790 0.533490
C162  C     C_R   0.268860 0.004623 0.676181 0.534880
C163  C     C_R   0.231203 0.504499 0.323790 0.533479
C164  C     C_R   0.768859 0.504623 0.676181 0.534863
C165  C     C_R   0.482502 0.082498 0.114794 0.264000
C166  C     C_R   0.425153 0.068402 0.911423 0.254480
C167  C     C_R   0.982501 0.582499 0.114794 0.264000
C168  C     C_R   0.925157 0.568401 0.911423 0.254483
C169  C     C_R   0.462373 0.082234 0.065199 0.025911
C170  C     C_R   0.433633 0.075008 0.963191 0.023687
C171  C     C_R   0.962372 0.582235 0.065199 0.025913
C172  C     C_R   0.933635 0.575008 0.963191 0.023685
C173  C     C_R   0.421129 0.991002 0.994386 -0.139351
C174  C     C_R   0.435425 0.994465 0.044732 -0.134888
C175  C     C_R   0.921130 0.491003 0.994386 -0.139356
C176  C     C_R   0.935424 0.494466 0.044732 -0.134888
Cr1   Cr    Cr6+3 0.756570 0.170940 0.251190 1.005956
Cr2   Cr    Cr6+3 0.243430 0.170940 0.748810 1.004633
Cr3   Cr    Cr6+3 0.256570 0.670940 0.251190 1.005977
Cr4   Cr    Cr6+3 0.743430 0.670940 0.748810 1.004611
Cr5   Cr    Cr6+3 0.623740 0.299110 0.249580 1.011054
Cr6   Cr    Cr6+3 0.376260 0.299110 0.750420 1.012299
Cr7   Cr    Cr6+3 0.123740 0.799110 0.249580 1.011020
Cr8   Cr    Cr6+3 0.876260 0.799110 0.750420 1.012318
Cr9   Cr    Cr6+3 0.625990 0.036240 0.250480 1.042528
Cr10  Cr    Cr6+3 0.374010 0.036240 0.749520 1.027883
Cr11  Cr    Cr6+3 0.125990 0.536240 0.250480 1.042536
Cr12  Cr    Cr6+3 0.874010 0.536240 0.749520 1.027898
H1    H     H_    0.842032 0.974437 0.880504 0.128682
H2    H     H_    0.166094 0.994064 0.122985 0.126639
H3    H     H_    0.342030 0.474441 0.880504 0.128681
H4    H     H_    0.666094 0.494062 0.122984 0.126641
H5    H     H_    0.702769 0.790039 0.042478 0.098052
H6    H     H_    0.285250 0.786880 0.958577 0.095358
H7    H     H_    0.202772 0.290037 0.042478 0.098051
H8    H     H_    0.785254 0.286882 0.958577 0.095357
H9    H     H_    0.699115 0.822188 0.132601 0.110049
H10   H     H_    0.287829 0.816514 0.868142 0.102981
H11   H     H_    0.199118 0.322186 0.132601 0.110045
H12   H     H_    0.787833 0.316516 0.868143 0.102984
H13   H     H_    0.509973 0.331103 0.367397 0.134371
H14   H     H_    0.522761 0.291602 0.633252 0.121362
H15   H     H_    0.010283 0.831237 0.367483 0.134478
H16   H     H_    0.023013 0.791191 0.633265 0.121338
H17   H     H_    0.413286 0.062277 0.516757 0.124669
H18   H     H_    0.508527 0.015559 0.472086 0.119044
H19   H     H_    0.913014 0.562657 0.516741 0.124720
H20   H     H_    0.008066 0.515420 0.471962 0.119022
H21   H     H_    0.397677 0.046389 0.605213 0.154934
H22   H     H_    0.536040 0.002677 0.386106 0.151433
H23   H     H_    0.897414 0.546780 0.605203 0.154912
H24   H     H_    0.035585 0.502581 0.385978 0.151370
H25   H     H_    0.708539 0.822345 0.372042 0.106071
H26   H     H_    0.292180 0.822416 0.628608 0.108298
H27   H     H_    0.208587 0.322321 0.372041 0.106049
H28   H     H_    0.792210 0.322428 0.628606 0.108337
H29   H     H_    0.814554 0.038102 0.539281 0.101235
H30   H     H_    0.185468 0.037832 0.460426 0.115410
H31   H     H_    0.314537 0.538142 0.539288 0.101346
H32   H     H_    0.685451 0.537807 0.460428 0.115313
H33   H     H_    0.833176 0.997057 0.625426 0.136538
H34   H     H_    0.166575 0.996615 0.374490 0.136629
H35   H     H_    0.333158 0.497093 0.625434 0.136550
H36   H     H_    0.666564 0.496597 0.374491 0.136649
H37   H     H_    0.401321 0.921252 0.979872 0.147971
H38   H     H_    0.427121 0.926715 0.067183 0.154740
H39   H     H_    0.901323 0.421252 0.979872 0.147974
H40   H     H_    0.927120 0.426716 0.067184 0.154741
H41   H     H_    0.708129 0.798108 0.462752 0.101107
H42   H     H_    0.292813 0.797871 0.538016 0.100228
H43   H     H_    0.208179 0.298082 0.462751 0.101105
H44   H     H_    0.792840 0.297885 0.538014 0.100275
H45   H     H_    0.657723 0.845769 0.539387 0.108865
H46   H     H_    0.342550 0.844408 0.460784 0.104804
H47   H     H_    0.157739 0.345729 0.539379 0.108899
H48   H     H_    0.842554 0.344436 0.460781 0.104758
H49   H     H_    0.677565 0.801291 0.626176 0.128521
H50   H     H_    0.322477 0.799905 0.374163 0.124963
H51   H     H_    0.177576 0.301257 0.626169 0.128541
H52   H     H_    0.822484 0.299930 0.374160 0.124911
H53   H     H_    0.750922 0.120788 0.481996 0.100590
H54   H     H_    0.249039 0.120516 0.517296 0.103320
H55   H     H_    0.250883 0.620798 0.481997 0.100549
H56   H     H_    0.748997 0.620505 0.517299 0.103390
H57   H     H_    0.755513 0.141819 0.393002 0.134630
H58   H     H_    0.244254 0.141876 0.606251 0.133764
H59   H     H_    0.255469 0.641836 0.393002 0.134630
H60   H     H_    0.744209 0.641857 0.606252 0.133807
H61   H     H_    0.458239 0.318185 0.880623 0.137270
H62   H     H_    0.544585 0.323120 0.117606 0.138198
H63   H     H_    0.958239 0.818185 0.880623 0.137271
H64   H     H_    0.044584 0.823121 0.117607 0.138198
H65   H     H_    0.495721 0.412679 0.952340 0.102470
H66   H     H_    0.525824 0.415786 0.039948 0.104753
H67   H     H_    0.995721 0.912679 0.952340 0.102471
H68   H     H_    0.025824 0.915787 0.039948 0.104753
H69   H     H_    0.768602 0.127721 0.108257 0.131769
H70   H     H_    0.247505 0.137839 0.891765 0.125567
H71   H     H_    0.268599 0.627724 0.108257 0.131769
H72   H     H_    0.747502 0.637838 0.891765 0.125570
H73   H     H_    0.661270 0.837741 0.961283 0.102791
H74   H     H_    0.334764 0.825738 0.037691 0.089555
H75   H     H_    0.161271 0.337737 0.961284 0.102790
H76   H     H_    0.834765 0.325740 0.037691 0.089554
H77   H     H_    0.678264 0.800203 0.873491 0.120940
H78   H     H_    0.318649 0.789904 0.125472 0.122223
H79   H     H_    0.178265 0.300200 0.873492 0.120941
H80   H     H_    0.818650 0.289905 0.125473 0.122221
H81   H     H_    0.767649 0.100355 0.019988 0.101575
H82   H     H_    0.248329 0.110964 0.980668 0.105962
H83   H     H_    0.267646 0.600358 0.019987 0.101574
H84   H     H_    0.748326 0.610963 0.980668 0.105962
H85   H     H_    0.826882 0.006363 0.967118 0.101784
H86   H     H_    0.182737 0.030747 0.036228 0.097595
H87   H     H_    0.326881 0.506368 0.967117 0.101783
H88   H     H_    0.682736 0.530745 0.036228 0.097595
O1    O     O_R   0.769900 0.064540 0.196060 -0.521878
O2    O     O_R   0.230100 0.064540 0.803940 -0.525886
O3    O     O_R   0.269900 0.564540 0.196060 -0.521877
O4    O     O_R   0.730100 0.564540 0.803940 -0.525890
O5    O     O_R   0.574760 0.239320 0.300850 -0.502305
O6    O     O_R   0.425240 0.239320 0.699150 -0.488819
O7    O     O_R   0.074760 0.739320 0.300850 -0.502358
O8    O     O_R   0.925240 0.739320 0.699150 -0.488783
O9    O     O_R   0.566290 0.069580 0.305400 -0.519385
O10   O     O_R   0.433710 0.069580 0.694600 -0.515343
O11   O     O_R   0.066290 0.569580 0.305400 -0.519356
O12   O     O_R   0.933710 0.569580 0.694600 -0.515304
O13   O     O_R   0.680760 0.993330 0.302620 -0.498405
O14   O     O_R   0.319240 0.993330 0.697380 -0.506638
O15   O     O_R   0.180760 0.493330 0.302620 -0.498371
O16   O     O_R   0.819240 0.493330 0.697380 -0.506625
O17   O     O_3   0.668770 0.168760 0.250420 -0.243969
O18   O     O_3   0.331230 0.168760 0.749580 -0.265587
O19   O     O_3   0.168770 0.668760 0.250420 -0.243965
O20   O     O_3   0.831230 0.668760 0.749580 -0.265591
O21   O     O_R   0.750800 0.274080 0.199250 -0.509205
O22   O     O_R   0.249200 0.274080 0.800750 -0.509732
O23   O     O_R   0.250800 0.774080 0.199250 -0.509202
O24   O     O_R   0.749200 0.774080 0.800750 -0.509731
O25   O     O_R   0.669990 0.371670 0.194150 -0.521402
O26   O     O_R   0.330010 0.371670 0.805850 -0.530671
O27   O     O_R   0.169990 0.871670 0.194150 -0.521402
O28   O     O_R   0.830010 0.871670 0.805850 -0.530669
O29   O     O_R   0.574600 0.238480 0.197800 -0.517967
O30   O     O_R   0.425400 0.238480 0.802200 -0.515424
O31   O     O_R   0.074600 0.738480 0.197800 -0.517963
O32   O     O_R   0.925400 0.738480 0.802200 -0.515423
O33   O     O_R   0.566130 0.068680 0.194240 -0.453411
O34   O     O_R   0.433870 0.068680 0.805760 -0.484691
O35   O     O_R   0.066130 0.568680 0.194240 -0.453419
O36   O     O_R   0.933870 0.568680 0.805760 -0.484698
O37   O     O_R   0.680610 0.992490 0.199570 -0.494225
O38   O     O_R   0.319390 0.992490 0.800430 -0.482143
O39   O     O_R   0.180610 0.492490 0.199570 -0.494231
O40   O     O_R   0.819390 0.492490 0.800430 -0.482138
O41   O     O_R   0.770060 0.065440 0.307230 -0.521662
O42   O     O_R   0.229940 0.065440 0.692770 -0.514659
O43   O     O_R   0.270060 0.565440 0.307230 -0.521650
O44   O     O_R   0.729940 0.565440 0.692770 -0.514683
O45   O     O_R   0.750960 0.274920 0.302300 -0.510420
O46   O     O_R   0.249040 0.274920 0.697700 -0.507493
O47   O     O_R   0.250960 0.774920 0.302300 -0.510413
O48   O     O_R   0.749040 0.774920 0.697700 -0.507493
O49   O     O_R   0.670160 0.372580 0.305320 -0.518086
O50   O     O_R   0.329840 0.372580 0.694680 -0.515700
O51   O     O_R   0.170160 0.872580 0.305320 -0.518107
O52   O     O_R   0.829840 0.872580 0.694680 -0.515700
O53   O     O_3   0.406231 0.976857 0.890198 -0.555972
C177  C     C_3   0.455905 0.911093 0.884107 -0.102865
H89   H     H_    0.472538 0.880480 0.920235 0.093352
H90   H     H_    0.492991 0.949958 0.864471 0.136759
H91   H     H_    0.441870 0.844260 0.861268 0.133155
O54   O     O_3   0.474429 0.996044 0.144212 -0.554640
C178  C     C_3   0.422432 0.010724 0.172112 -0.121843
H92   H     H_    0.415137 0.940948 0.195171 0.142734
H93   H     H_    0.382551 0.020792 0.147604 0.113580
H94   H     H_    0.427055 0.077566 0.197667 0.114594
O55   O     O_3   0.906235 0.476854 0.890199 -0.555969
C179  C     C_3   0.955909 0.411090 0.884111 -0.102886
H95   H     H_    0.972565 0.380532 0.920242 0.093352
H96   H     H_    0.992980 0.449936 0.864448 0.136798
H97   H     H_    0.941865 0.344220 0.861299 0.133134
O56   O     O_3   0.974429 0.496045 0.144212 -0.554644
C180  C     C_3   0.922433 0.510727 0.172114 -0.121846
H98   H     H_    0.915137 0.440951 0.195173 0.142724
H99   H     H_    0.882551 0.520797 0.147606 0.113584
H100  H     H_    0.927058 0.577568 0.197669 0.114597
O57   O     O_3   0.472953 0.363345 0.458171 -0.526049
C181  C     C_3   0.410571 0.372229 0.453513 -0.110759
H101  H     H_    0.387522 0.311846 0.475526 0.119731
H102  H     H_    0.395943 0.369008 0.413919 0.107708
H103  H     H_    0.396762 0.448249 0.468317 0.147835
O58   O     O_3   0.551826 0.317747 0.539124 -0.522510
C182  C     C_3   0.609161 0.273700 0.542862 -0.112059
H104  H     H_    0.612379 0.201509 0.520766 0.117022
H105  H     H_    0.622027 0.258654 0.582249 0.106911
H106  H     H_    0.641697 0.329175 0.527518 0.158554
O59   O     O_3   0.973301 0.863488 0.458258 -0.526035
C183  C     C_3   0.910934 0.872770 0.453636 -0.110799
H107  H     H_    0.887774 0.812500 0.475640 0.119783
H108  H     H_    0.896268 0.869697 0.414048 0.107721
H109  H     H_    0.897296 0.948854 0.468475 0.147692
O60   O     O_3   0.052104 0.817236 0.539143 -0.522450
C184  C     C_3   0.109333 0.772736 0.542781 -0.112051
H110  H     H_    0.112336 0.700619 0.520605 0.117073
H111  H     H_    0.122214 0.757415 0.582142 0.106885
H112  H     H_    0.141989 0.828031 0.527466 0.158515

loop_
_geom_bond_atom_site_label_1
_geom_bond_atom_site_label_2
_ccdc_geom_bond_type
C99   C103  A    
C7    C168  A    
C146  H46   S    
C37   C69   S    
C126  H58   S    
C165  O54   S    
C142  C146  A    
C131  C151  A    
C19   C20   A    
C45   O29   A    
C53   C69   A    
C92   O40   A    
C50   H10   S    
C62   H2    S    
C108  C164  S    
C133  O45   A    
C111  H27   S    
C55   C59   A    
C26   C50   A    
C95   C99   A    
C29   C33   A    
C100  C104  A    
C3    C74   S    
C9    C13   A    
C41   H5    S    
C21   H66   S    
C146  C150  A    
C77   C101  A    
Cr7   O51   S    
C12   C16   A    
C56   C72   A    
C169  C174  A    
C124  H56   S    
C172  C175  A    
C141  C145  A    
C84   H16   S    
C6    C165  A    
C21   C22   A    
C61   H1    S    
C41   C49   A    
C64   H4    S    
C18   C170  A    
C25   C29   A    
C86   O58   S    
C44   H8    S    
C177  H89   S    
C27   C31   A    
C143  H51   S    
C28   C32   A    
Cr9   O13   S    
C179  H95   S    
Cr10  O10   S    
C82   H14   S    
C62   C66   A    
C167  C171  A    
C98   C102  A    
C60   C76   A    
C29   H69   S    
Cr6   O30   S    
Cr8   O52   S    
C128  H60   S    
C78   C82   A    
C182  H104  S    
C54   C70   A    
C36   C40   A    
C16   C20   A    
C137  C153  A    
C2    O26   A    
C180  H100  S    
C168  O55   S    
C3    O23   A    
Cr8   O28   S    
C20   C172  A    
C132  C152  A    
C130  C138  A    
C139  H35   S    
C160  O8    A    
C84   C88   A    
C179  H96   S    
Cr6   O6    S    
C119  C123  A    
C26   C90   S    
C5    C46   S    
C105  C125  A    
C7    C48   S    
Cr6   O26   S    
Cr3   O23   S    
C8    C47   S    
C107  C127  A    
C173  H37   S    
C184  H110  S    
C136  C153  S    
C66   C70   A    
C181  H101  S    
C178  H92   S    
C61   C65   A    
C158  O6    A    
C129  C137  A    
O59   C183  S    
C39   C71   S    
C34   H82   S    
C47   O31   A    
C4    O24   A    
C148  H48   S    
C89   O37   A    
C55   C71   A    
C2    C75   S    
C92   O4    A    
O57   C181  S    
Cr10  O38   S    
C161  O13   A    
C179  H97   S    
C134  O46   A    
Cr4   O4    S    
C46   O34   A    
C6    C9    A    
C123  H55   S    
C49   H9    S    
C121  H53   S    
C12   H63   S    
C64   C68   A    
Cr5   O17   S    
C110  H26   S    
C63   H3    S    
C138  H34   S    
C53   H73   S    
O60   C184  S    
C144  H52   S    
C43   H7    S    
Cr8   O32   S    
C57   C73   A    
C130  H30   S    
C123  C127  A    
C78   C158  S    
C87   C95   A    
C130  C150  A    
C163  O43   A    
C23   C24   A    
C27   C91   S    
C52   H12   S    
C97   H18   S    
C110  C114  A    
C44   C52   A    
C164  O44   A    
C116  H44   S    
C79   C103  A    
C11   C15   A    
C183  H107  S    
C27   C51   A    
C7    C12   A    
C176  H40   S    
C30   C34   A    
C65   H85   S    
C32   H72   S    
Cr2   O22   S    
C10   C14   A    
C184  H112  S    
C164  O16   A    
O54   C178  S    
C140  H36   S    
C133  O49   A    
C108  C128  A    
C116  C120  A    
C132  H32   S    
C144  C156  A    
C147  C151  A    
C129  C149  A    
C143  C155  A    
C139  C155  A    
C89   O1    A    
C17   C18   A    
C36   H84   S    
C5    C166  A    
C142  C154  A    
C91   O3    A    
C4    C73   S    
Cr12  O20   S    
C42   C50   A    
C113  C117  A    
C182  H105  S    
C107  C163  S    
C26   C30   A    
C115  C119  A    
C105  C161  S    
Cr9   O17   S    
Cr10  O14   S    
C93   C97   A    
C112  C116  A    
Cr11  O19   S    
C58   C74   A    
Cr4   O44   S    
C105  C109  A    
C40   C72   S    
C30   H70   S    
C1    C76   S    
C107  C111  A    
C148  C152  A    
C23   H68   S    
C117  C149  S    
C102  H21   S    
C113  H41   S    
C117  C121  A    
C171  C176  A    
C11   H64   S    
C13   C17   A    
C14   C22   A    
C9    H62   S    
Cr3   O47   S    
C141  C153  A    
C63   C75   A    
C96   C100  A    
C112  H28   S    
C37   C41   A    
C163  O15   A    
C131  C139  A    
C40   C44   A    
O56   C180  S    
O58   C182  S    
C138  C154  A    
C183  H109  S    
C81   C85   A    
C83   C87   A    
C88   C96   A    
Cr1   O17   S    
C6    C45   S    
C145  H45   S    
C78   C102  A    
C133  C156  S    
C125  H57   S    
Cr7   O19   S    
C80   C84   A    
C15   C19   A    
C135  C154  S    
C177  H90   S    
C80   C104  A    
C1    O21   A    
C60   H80   S    
C79   C159  S    
C80   C160  S    
C94   C98   A    
C135  O47   A    
C137  H33   S    
C175  H39   S    
C47   O35   A    
C4    O28   A    
C118  C150  S    
C22   H65   S    
C129  H29   S    
C90   O38   A    
Cr12  O16   S    
Cr1   O21   S    
Cr12  O12   S    
C177  H91   S    
C159  O7    A    
Cr11  O39   S    
C180  H99   S    
C46   O30   A    
C124  C128  A    
Cr4   O20   S    
C165  C169  A    
Cr7   O31   S    
Cr6   O18   S    
C100  H19   S    
C162  O42   A    
C83   H15   S    
C53   C57   A    
C81   H13   S    
C181  H103  S    
C61   C73   A    
C82   C86   A    
C33   C37   A    
C56   C60   A    
C48   O36   A    
Cr12  O36   S    
C35   C39   A    
C8    C167  A    
O55   C179  S    
Cr4   O48   S    
C77   C81   A    
Cr9   O33   S    
C181  H102  S    
C167  O56   S    
C38   C70   S    
C88   O60   S    
C87   O59   S    
C136  O52   A    
Cr1   O41   S    
C32   C36   A    
Cr3   O43   S    
C178  H93   S    
C142  H50   S    
C85   O57   S    
Cr8   O8    S    
C162  O14   A    
C178  H94   S    
C157  O9    A    
C132  C140  A    
C106  C126  A    
C25   C89   S    
C99   H20   S    
C90   O2    A    
C174  H38   S    
C45   O33   A    
Cr12  O40   S    
C79   C83   A    
C43   C51   A    
C65   C69   A    
C67   C71   A    
C106  C162  S    
C67   H87   S    
Cr10  O18   S    
C25   C49   A    
Cr11  O15   S    
C108  C112  A    
C168  C172  A    
Cr3   O19   S    
Cr7   O7    S    
C134  O50   A    
C62   C74   A    
C31   H71   S    
C145  C149  A    
C170  C173  A    
C147  H47   S    
C93   C94   S    
Cr2   O46   S    
O53   C177  S    
C14   C18   A    
C95   C96   S    
C144  C148  A    
Cr8   O20   S    
C183  H108  S    
C122  H54   S    
C173  C174  A    
C143  C147  A    
C55   H75   S    
C161  O41   A    
C56   H76   S    
C19   C171  A    
C38   C42   A    
C109  H25   S    
C184  H111  S    
C118  C122  A    
C17   C169  A    
C131  H31   S    
C42   H6    S    
Cr2   O2    S    
Cr9   O9    S    
C86   C94   A    
C121  C125  A    
Cr11  O11   S    
C175  C176  A    
C166  O53   S    
Cr5   O29   S    
Cr2   O18   S    
C59   H79   S    
C98   H17   S    
C115  H43   S    
C68   C72   A    
Cr5   O49   S    
C15   C23   A    
Cr3   O3    S    
C16   C24   A    
C1    O25   A    
Cr1   O45   S    
C2    O22   A    
C3    O27   A    
C119  C151  S    
C63   C67   A    
C120  C152  S    
C135  O51   A    
C13   C21   A    
C54   H74   S    
C48   O32   A    
C58   H78   S    
C91   O39   A    
C39   C43   A    
C159  O11   A    
C160  O12   A    
C122  C126  A    
C24   H67   S    
Cr11  O35   S    
Cr5   O5    S    
C85   C93   A    
C68   H88   S    
Cr4   O24   S    
C64   C76   A    
Cr5   O25   S    
C28   C92   S    
C109  C113  A    
Cr7   O27   S    
C114  C118  A    
C51   H11   S    
C140  C156  A    
C59   C75   A    
C157  O5    A    
C54   C58   A    
C158  O10   A    
C134  C155  S    
C141  H49   S    
C33   H81   S    
C34   C38   A    
C35   H83   S    
C103  H24   S    
C114  H42   S    
Cr1   O1    S    
C101  H22   S    
Cr9   O37   S    
Cr6   O50   S    
Cr10  O34   S    
C10   H61   S    
C5    C10   A    
C28   C52   A    
C8    C11   A    
C166  C170  A    
C136  O48   A    
C31   C35   A    
Cr2   O42   S    
C66   H86   S    
C57   H77   S    
C182  H106  S    
C127  H59   S    
C106  C110  A    
C111  C115  A    
C104  H23   S    
C180  H98   S    
C97   C101  A    
C120  C124  A    
C77   C157  S    
