data_mof_unit_66812.cif
_audit_creation_date              2013-03-05T15:41:26-0500
_audit_creation_method            fapswitch 2.2
_symmetry_space_group_name_H-M    P1
_symmetry_Int_Tables_number       1
_space_group_crystal_system       triclinic
_cell_length_a                    8.534983
_cell_length_b                    15.225777
_cell_length_c                    15.218265
_cell_angle_alpha                 98.223328
_cell_angle_beta                  99.199638
_cell_angle_gamma                 98.605048
_cell_volume                      1901.77848227

loop_
_atom_site_label
_atom_site_type_symbol
_atom_site_description
_atom_site_fract_x
_atom_site_fract_y
_atom_site_fract_z
_atom_type_partial_charge
P1    P     P_3+3 0.004160 0.709210 0.580280 0.709366
O1    O     O_2   0.174040 0.723040 0.553850 -0.254864
O2    O     O_3   0.901550 0.609570 0.550800 -0.328881
O3    O     O_3   0.370320 0.665070 0.388210 -0.271668
O4    O     O_2   0.311006 0.815427 0.470334 -0.202613
O5    O     O_3   0.051778 0.726688 0.698770 -0.496293
O6    O     O_3   0.345376 0.823727 0.311107 -0.525044
C1    C     C_3   0.427460 0.892877 0.191439 1.377403
P2    P     P_3+3 0.305010 0.425580 0.290930 0.712600
P3    P     P_3+3 0.883216 0.603405 0.222252 0.674690
O7    O     O_2   0.134800 0.452800 0.278160 -0.386501
O8    O     O_3   0.937630 0.618610 0.340820 -0.266307
O9    O     O_2   0.976081 0.531933 0.185235 -0.280387
O10   O     O_3   0.313400 0.311264 0.248345 -0.530797
O11   O     O_3   0.975677 0.697414 0.183473 -0.539975
C2    C     C_3   0.955791 0.780248 0.230790 0.894986
H1    H     H_    0.065694 0.829619 0.234337 0.141911
C3    C     C_3   0.817431 0.813506 0.178633 0.613679
H2    H     H_    0.707833 0.764979 0.177276 -0.027116
C4    C     C_3   0.720660 0.334646 0.258053 0.925716
H3    H     H_    0.833922 0.380821 0.257842 -0.018494
C5    C     C_3   0.627867 0.296725 0.159401 0.561468
H4    H     H_    0.582695 0.224315 0.153185 0.142080
Ba1   Ba    Ba6+2 0.154720 0.543770 0.458160 1.950450
C6    C     C_3   0.074597 0.645324 0.728572 0.171109
H5    H     H_    0.169323 0.617258 0.697414 0.061239
H6    H     H_    0.961237 0.595317 0.710451 0.149409
C7    C     C_3   0.126910 0.661448 0.831754 -0.110721
H7    H     H_    0.253730 0.696843 0.852325 0.118389
H8    H     H_    0.121374 0.596446 0.856074 0.048882
C8    C     C_3   0.177761 0.242276 0.234649 0.691733
C9    C     C_3   0.206874 0.159462 0.167919 0.212720
H9    H     H_    0.218164 0.184668 0.103629 0.144555
P4    P     P_3+3 0.806120 0.290780 0.419650 0.702984
O12   O     O_2   0.636250 0.276900 0.446120 -0.236255
O13   O     O_3   0.908740 0.390420 0.449120 -0.358244
O14   O     O_3   0.439970 0.334920 0.611710 -0.370571
O15   O     O_3   0.756449 0.262113 0.301228 -0.536763
P5    P     P_3+3 0.927681 0.383829 0.774758 0.627902
O16   O     O_3   0.402050 0.547860 0.609740 -0.247493
O17   O     O_3   0.872650 0.381380 0.659100 -0.388603
O18   O     O_2   0.827030 0.447575 0.818990 -0.292127
O19   O     O_3   0.857916 0.277996 0.800358 -0.480790
Ba2   Ba    Ba6+2 0.655440 0.456220 0.541760 1.890392
P6    P     P_3+3 0.423001 0.783226 0.408278 0.720759
C10   C     C_3   0.436730 0.811788 0.242331 0.271589
H10   H     H_    0.564638 0.813943 0.271858 0.017642
O20   O     O_3   0.408230 0.452130 0.390190 -0.253432
C11   C     C_3   0.539484 0.757971 0.712997 0.988006
C12   C     C_3   0.437215 0.824257 0.749431 0.522219
H11   H     H_    0.502315 0.865050 0.815132 0.088437
H12   H     H_    0.324109 0.788123 0.761010 0.025791
P7    P     P_3+3 0.504998 0.578008 0.724425 0.616814
O21   O     O_2   0.675480 0.547140 0.721810 -0.320688
O22   O     O_3   0.554394 0.694395 0.772124 -0.649402
C13   C     C_3   0.835427 0.213411 0.721414 0.026347
H13   H     H_    0.737343 0.226230 0.670281 0.134325
H14   H     H_    0.946580 0.215572 0.692041 0.128259
C14   C     C_3   0.786120 0.119150 0.742228 0.794271
H15   H     H_    0.688503 0.119633 0.782298 0.087219
P8    P     P_3+3 0.380758 0.219691 0.603101 0.589463
C15   C     C_3   0.398007 0.252524 0.775000 0.958659
O23   O     O_2   0.485672 0.175219 0.542481 -0.317405
O24   O     O_3   0.442989 0.191575 0.708948 -0.578643
H16   H     H_    0.451649 0.323155 0.772672 -0.048653
H17   H     H_    0.440654 0.287972 0.920309 0.131778
C16   C     C_3   0.462494 0.234105 0.868439 -0.080526
H18   H     H_    0.594299 0.236666 0.875513 0.140821
C17   C     C_R   0.635093 0.832379 0.468035 0.102690
C18   C     C_R   0.891955 0.796146 0.534618 -0.046390
C19   C     C_R   0.064140 0.236156 0.529857 -0.337241
C20   C     C_R   0.165000 0.177661 0.558292 0.262136
C21   C     C_R   0.105636 0.086259 0.551071 -0.025973
C22   C     C_R   0.945819 0.047842 0.509401 0.069233
C23   C     C_R   0.848558 0.107573 0.470351 -0.297552
C24   C     C_R   0.878004 0.952867 0.505859 -0.058886
C25   C     C_R   0.708538 0.924025 0.473012 -0.327314
C26   C     C_R   0.615643 0.988127 0.447451 0.285857
C27   C     C_R   0.688657 0.070814 0.432938 0.828269
C28   C     C_R   0.967565 0.885901 0.536328 0.701854
C29   C     C_R   0.726168 0.772577 0.504607 0.557726
C30   C     C_R   0.910180 0.203544 0.477750 0.238130
H19   H     H_    0.112149 0.307521 0.541330 0.214708
H20   H     H_    0.188028 0.048901 0.582417 0.251359
C31   C     C_R   0.242935 0.460528 0.762619 0.297020
C32   C     C_R   0.144561 0.426429 0.819685 -0.000070
C33   C     C_R   0.206334 0.433921 0.912391 0.634734
C34   C     C_R   0.356591 0.490384 0.952302 -0.130031
C35   C     C_R   0.436784 0.538592 0.893593 -0.320378
C36   C     C_R   0.391032 0.516958 0.799145 0.034884
C37   C     C_R   0.600925 0.531412 0.083109 0.237690
C38   C     C_R   0.663935 0.558399 0.176508 -0.054453
C39   C     C_R   0.406913 0.493107 0.212660 0.214901
C40   C     C_R   0.337508 0.481641 0.119890 -0.065035
C41   C     C_R   0.431176 0.501547 0.052833 0.089736
C42   C     C_R   0.563724 0.542407 0.239486 0.078524
H21   H     H_    0.210424 0.456829 0.102070 0.250322
H22   H     H_    0.536934 0.593064 0.920374 0.258714
N1    N     N_R   0.371879 0.724809 0.182761 0.210291
O25   O     O_R   0.436220 0.699104 0.113818 -0.454873
O26   O     O_R   0.268757 0.665720 0.207059 -0.327978
F1    F     F_    0.496938 0.336576 0.137011 -0.728260
N2    N     N_R   0.726776 0.306883 0.091132 0.241326
O27   O     O_R   0.807969 0.384914 0.088446 -0.309776
O28   O     O_R   0.728302 0.238512 0.029490 -0.273840
N3    N     N_R   0.022068 0.712410 0.876145 0.333695
O29   O     O_R   0.075880 0.794852 0.917303 -0.173847
O30   O     O_R   0.875745 0.674517 0.877473 -0.248303
N4    N     N_R   0.036128 0.268294 0.188167 0.160701
O31   O     O_R   0.055402 0.312181 0.122342 -0.306327
O32   O     O_R   0.903608 0.210910 0.179484 -0.405869
N5    N     N_R   0.153740 0.222801 0.323112 0.201818
O33   O     O_R   0.150302 0.291067 0.383736 -0.460007
O34   O     O_R   0.178908 0.147661 0.349246 -0.317990
F2    F     F_    0.271532 0.909316 0.177194 -0.624020
N6    N     N_R   0.072447 0.083060 0.147606 0.289974
O35   O     O_R   0.048618 0.030757 0.206413 -0.187151
O36   O     O_R   0.984262 0.062228 0.067028 -0.165642
N7    N     N_R   0.355500 0.127916 0.195549 0.264709
O37   O     O_R   0.407923 0.074952 0.136418 -0.239526
O38   O     O_R   0.452505 0.168263 0.268927 -0.241316
N8    N     N_R   0.479884 0.881328 0.103943 0.212108
O39   O     O_R   0.380258 0.834360 0.033461 -0.294359
O40   O     O_R   0.599442 0.938532 0.090481 -0.199165
N9    N     N_R   0.698289 0.810380 0.713790 0.194686
O41   O     O_R   0.709144 0.879587 0.672657 -0.361508
O42   O     O_R   0.821535 0.803494 0.772726 -0.277706
F3    F     F_    0.468915 0.718775 0.625574 -0.648164
F4    F     F_    0.401381 0.881474 0.689182 -0.519580
F5    F     F_    0.523276 0.967901 0.247092 -0.624635
F6    F     F_    0.806065 0.897610 0.222652 -0.633306
F7    F     F_    0.726967 0.059730 0.662265 -0.663707
N10   N     N_R   0.922938 0.089082 0.792166 0.269592
O43   O     O_R   0.921831 0.074929 0.874335 -0.224156
O44   O     O_R   0.038871 0.067695 0.751983 -0.275414
F8    F     F_    0.232080 0.243677 0.763499 -0.728801
N11   N     N_R   0.385385 0.146132 0.882267 0.319402
O45   O     O_R   0.409792 0.072461 0.835757 -0.238062
O46   O     O_R   0.298174 0.140838 0.944602 -0.243575
F9    F     F_    0.651099 0.689650 0.511672 -0.599205
N12   N     N_R   0.452331 0.981715 0.460432 0.266593
O47   O     O_R   0.425582 0.984370 0.542422 -0.222769
O48   O     O_R   0.341281 0.997633 0.398486 -0.227810
F10   F     F_    0.127114 0.904911 0.569575 -0.590644
F11   F     F_    0.591177 0.119202 0.393408 -0.568789
N13   N     N_R   0.709352 0.525873 0.020154 0.265381
O49   O     O_R   0.825904 0.591974 0.021970 -0.283658
O50   O     O_R   0.686302 0.455297 0.957294 -0.324471
F12   F     F_    0.117553 0.385574 0.961012 -0.589233
F13   F     F_    0.936630 0.779196 0.319305 -0.694417
N14   N     N_R   0.615117 0.589766 0.328647 0.249753
O51   O     O_R   0.678329 0.549226 0.391155 -0.255947
O52   O     O_R   0.657496 0.676261 0.336502 -0.465238
F14   F     F_    0.187331 0.445542 0.672305 -0.685341
N15   N     N_R   0.838894 0.818121 0.086007 0.262132
O53   O     O_R   0.961500 0.871137 0.070199 -0.182255
O54   O     O_R   0.731172 0.772044 0.018478 -0.292922
F15   F     F_    0.626974 0.382369 0.304488 -0.674566

loop_
_geom_bond_atom_site_label_1
_geom_bond_atom_site_label_2
_geom_bond_distance
_ccdc_geom_bond_type
C29   F9    1.354644 S    
C10   N1    1.469282 S    
C39   C40   1.416218 A    
N15   O54   1.300855 A    
C21   C22   1.408340 A    
C17   C25   1.427793 A    
O10   C8    1.408297 S    
C33   C34   1.422772 A    
N5    O34   1.299839 A    
O2    Ba1   2.979629 S    
C27   F11   1.321770 S    
C25   C26   1.405017 A    
C13   H13   1.108356 S    
C6    C7    1.535598 S    
N11   O46   1.300064 A    
Ba1   O13   2.868288 S    
C22   C24   1.465021 A    
C15   C16   1.521048 S    
O6    P6    1.753806 S    
C7    H7    1.108546 S    
C3    H2    1.097254 S    
P3    O11   1.752823 S    
N4    O32   1.297532 A    
C31   C32   1.400143 A    
O3    Ba1   2.846414 S    
O5    C6    1.408192 S    
N3    O29   1.299797 A    
O11   C2    1.407588 S    
O7    Ba1   2.854176 S    
C38   C42   1.405674 A    
N6    O35   1.300028 A    
P4    O12   1.558322 D    
C15   F8    1.382486 S    
P8    O23   1.542154 D    
C18   C29   1.390716 A    
C15   O24   1.407889 S    
C1    F2    1.379757 S    
C8    C9    1.578305 S    
C7    N3    1.452680 S    
C2    H1    1.099576 S    
C28   F10   1.346837 S    
C12   H12   1.090344 S    
C8    N5    1.458280 S    
C13   H14   1.109670 S    
C21   H20   1.065671 S    
N13   O50   1.300396 A    
C19   C30   1.400367 A    
P7    O22   1.776382 S    
H17   C16   1.112710 S    
C34   C41   1.535108 S    
P3    C38   1.876190 S    
C14   H15   1.108630 S    
C4    F15   1.369076 S    
P7    C36   1.867790 S    
C3    F6    1.382227 S    
N5    O33   1.294557 A    
P5    O18   1.542926 D    
C19   H19   1.081053 S    
O3    P6    1.757497 S    
N7    O38   1.290657 A    
O2    Ba2   2.868956 S    
C31   C36   1.399512 A    
C14   F7    1.380635 S    
C22   C23   1.446429 A    
P6    C17   1.880813 S    
P1    O5    1.756018 S    
Ba1   O20   2.984057 S    
O6    C10   1.409034 S    
P4    Ba2   3.441927 S    
C24   C25   1.432033 A    
P5    O17   1.741161 S    
C26   N12   1.429777 S    
C37   C38   1.414484 A    
C32   C33   1.406958 A    
P5    O19   1.752015 S    
C40   H21   1.070874 S    
C6    H5    1.108655 S    
P7    O21   1.599220 D    
C42   N14   1.410183 S    
C18   C28   1.416068 A    
C14   N10   1.458254 S    
P2    Ba1   3.432921 S    
C5    N2    1.450273 S    
C16   H18   1.107057 S    
P1    O2    1.597473 S    
P8    O24   1.746941 S    
P2    O10   1.784407 S    
C12   F4    1.382653 S    
C4    O15   1.410317 S    
N1    O25   1.298700 A    
N14   O51   1.296354 A    
C4    H3    1.107716 S    
C12   H11   1.111604 S    
C8    N4    1.438281 S    
N2    O28   1.300948 A    
C9    N6    1.466106 S    
O12   Ba2   2.872784 S    
P2    O7    1.559783 D    
P3    O8    1.762250 S    
P2    O20   1.585741 S    
P8    C20   1.840284 S    
N1    O26   1.297338 A    
C4    C5    1.565106 S    
C11   C12   1.531734 S    
C39   C42   1.399422 A    
O1    Ba1   2.872211 S    
N9    O41   1.299536 A    
Ba1   Ba2   4.698238 S    
O17   Ba2   2.842502 S    
O13   Ba2   2.980577 S    
C9    N7    1.444366 S    
N8    O40   1.301442 A    
P2    C39   1.909543 S    
N15   O53   1.299142 A    
N10   O44   1.300769 A    
N13   O49   1.298814 A    
C11   F3    1.377706 S    
C10   H10   1.105884 S    
C15   H16   1.111805 S    
P4    O15   1.758797 S    
C24   C28   1.447092 A    
C20   C21   1.390314 A    
P3    O9    1.534689 D    
O14   P8    1.731587 S    
N7    O37   1.299768 A    
C23   C30   1.458940 A    
C6    H6    1.107268 S    
C11   N9    1.463677 S    
N11   O45   1.300974 A    
O8    Ba1   2.841874 S    
P1    C18   1.892554 S    
C5    F1    1.368691 S    
C13   C14   1.526161 S    
C35   H22   1.079073 S    
O4    P6    1.530474 D    
C9    H9    1.113687 S    
O14   Ba2   2.845739 S    
N12   O48   1.301608 A    
N8    O39   1.300742 A    
C19   C20   1.393586 A    
C11   O22   1.418535 S    
N4    O31   1.299357 A    
C1    F5    1.383185 S    
C26   C27   1.382354 A    
C1    N8    1.466678 S    
N10   O43   1.300184 A    
N3    O30   1.299513 A    
P1    O1    1.558119 D    
C7    H8    1.102327 S    
Ba1   O16   2.853736 S    
N6    O36   1.301145 A    
P4    O13   1.597494 S    
C31   F14   1.354866 S    
N14   O52   1.295407 A    
C40   C41   1.431509 A    
C16   N11   1.460370 S    
C1    C10   1.553590 S    
C17   C29   1.400543 A    
C37   C41   1.430935 A    
Ba2   O21   2.854416 S    
O19   C13   1.406768 S    
O16   Ba2   2.983243 S    
C34   C35   1.427683 A    
P1    Ba1   3.441416 S    
C2    C3    1.508375 S    
O16   P7    1.785674 S    
C33   F12   1.353401 S    
N2    O27   1.292295 A    
N9    O42   1.296210 A    
C5    H4    1.097454 S    
C2    F13   1.384685 S    
P4    C30   1.942331 S    
P5    C32   1.850358 S    
C35   C36   1.404821 A    
N12   O47   1.300015 A    
C23   C27   1.389888 A    
C37   N13   1.437056 S    
C3    N15   1.460325 S    
Ba2   O20   2.853011 S    
