data_mof_unit_30057.cif
_audit_creation_date              2012-10-26T17:11:30-0400
_audit_creation_method            fapswitch 2.2
_symmetry_space_group_name_H-M    P1
_symmetry_Int_Tables_number       1
_space_group_crystal_system       triclinic
_cell_length_a                    28.118229
_cell_length_b                    18.863112
_cell_length_c                    16.89159
_cell_angle_alpha                 89.999969
_cell_angle_beta                  63.303948
_cell_angle_gamma                 90.0
_cell_volume                      8004.21835011

loop_
_atom_site_label
_atom_site_type_symbol
_atom_type_description
_atom_site_fract_x
_atom_site_fract_y
_atom_site_fract_z
_atom_type_partial_charge
C1    C     C_R   0.295506 0.729048 0.329577 0.585991
C2    C     C_R   0.601972 0.998678 0.495517 -0.032852
C3    C     C_R   0.687466 0.719298 0.904630 0.046905
C4    C     C_R   0.927370 0.902185 0.066504 0.588536
C5    C     C_R   0.077707 0.089983 0.930016 0.567557
C6    C     C_R   0.072630 0.902185 0.933496 0.588536
C7    C     C_R   0.922293 0.089983 0.069984 0.567556
C8    C     C_R   0.427370 0.402185 0.066504 0.588536
C9    C     C_R   0.577707 0.589983 0.930016 0.567557
C10   C     C_R   0.572630 0.402185 0.933496 0.588536
C11   C     C_R   0.422293 0.589983 0.069984 0.567557
C12   C     C_R   0.052883 0.627544 0.489107 -0.000977
C13   C     C_R   0.898028 0.498678 0.504483 -0.032852
C14   C     C_R   0.948651 0.369791 0.505563 -0.013027
C15   C     C_R   0.947117 0.627544 0.510893 -0.000978
C16   C     C_R   0.051350 0.369791 0.494436 -0.013027
C17   C     C_R   0.552883 0.127544 0.489108 -0.000977
C18   C     C_R   0.448650 0.869791 0.505563 -0.013028
C19   C     C_R   0.447116 0.127544 0.510894 -0.000977
C20   C     C_R   0.551350 0.869791 0.494436 -0.013027
C21   C     C_R   0.026383 0.692412 0.494312 0.280901
C22   C     C_R   0.975192 0.305001 0.500020 0.276465
C23   C     C_R   0.973617 0.692412 0.505688 0.280901
C24   C     C_R   0.101973 0.498678 0.495516 -0.032853
C25   C     C_R   0.024808 0.305001 0.499978 0.276465
C26   C     C_R   0.526382 0.192412 0.494314 0.280901
C27   C     C_R   0.475192 0.805001 0.500021 0.276465
C28   C     C_R   0.473617 0.192412 0.505690 0.280901
C29   C     C_R   0.524808 0.805001 0.499978 0.276465
C30   C     C_R   0.974193 0.563260 0.502778 -0.028333
C31   C     C_R   0.025466 0.434297 0.498413 -0.031600
C32   C     C_R   0.025807 0.563260 0.497222 -0.028333
C33   C     C_R   0.974534 0.434297 0.501586 -0.031600
C34   C     C_R   0.474193 0.063260 0.502779 -0.028333
C35   C     C_R   0.605105 0.871421 0.475283 0.280187
C36   C     C_R   0.525466 0.934297 0.498413 -0.031600
C37   C     C_R   0.525807 0.063260 0.497223 -0.028333
C38   C     C_R   0.474534 0.934297 0.501587 -0.031600
C39   C     C_R   0.448725 0.998731 0.503758 0.030375
C40   C     C_R   0.551274 0.998731 0.496242 0.030374
C41   C     C_R   0.948726 0.498731 0.503758 0.030375
C42   C     C_R   0.051275 0.498731 0.496242 0.030375
C43   C     C_R   0.371849 0.933845 0.508936 -0.017220
C44   C     C_R   0.627969 0.063577 0.491808 -0.024632
C45   C     C_R   0.628151 0.933845 0.491064 -0.017221
C46   C     C_R   0.393188 0.124806 0.529022 0.276069
C47   C     C_R   0.372031 0.063577 0.508193 -0.024632
C48   C     C_R   0.871849 0.433845 0.508936 -0.017220
C49   C     C_R   0.127969 0.563577 0.491807 -0.024632
C50   C     C_R   0.128151 0.433846 0.491064 -0.017220
C51   C     C_R   0.872031 0.563577 0.508193 -0.024632
C52   C     C_R   0.322293 0.934553 0.503860 0.010459
C53   C     C_R   0.677363 0.064039 0.497351 0.003661
C54   C     C_R   0.677707 0.934553 0.496140 0.010459
C55   C     C_R   0.322637 0.064039 0.502649 0.003662
C56   C     C_R   0.822293 0.434553 0.503860 0.010459
C57   C     C_R   0.394895 0.871420 0.524716 0.280187
C58   C     C_R   0.177363 0.564039 0.497350 0.003661
C59   C     C_R   0.177707 0.434553 0.496140 0.010459
C60   C     C_R   0.822637 0.564039 0.502649 0.003662
C61   C     C_R   0.296017 0.999426 0.510332 0.199514
C62   C     C_R   0.703983 0.999426 0.489668 0.199513
C63   C     C_R   0.796017 0.499426 0.510332 0.199513
C64   C     C_R   0.203983 0.499426 0.489667 0.199514
C65   C     C_3   0.182172 0.923603 0.048790 -0.210052
C66   C     C_3   0.896161 0.293651 0.913372 -0.261664
C67   C     C_3   0.817829 0.923603 0.951208 -0.210052
C68   C     C_R   0.606811 0.124806 0.470979 0.276069
C69   C     C_3   0.103839 0.293652 0.086629 -0.261663
C70   C     C_3   0.682172 0.423604 0.048789 -0.210051
C71   C     C_3   0.396160 0.793651 0.913371 -0.261663
C72   C     C_3   0.317829 0.423603 0.951208 -0.210052
C73   C     C_3   0.603839 0.793652 0.086628 -0.261663
C74   C     C_R   0.105105 0.371421 0.475283 0.280187
C75   C     C_R   0.893189 0.624806 0.529021 0.276069
C76   C     C_R   0.894895 0.371421 0.524716 0.280187
C77   C     C_R   0.709650 0.281036 0.666529 0.566134
C78   C     C_R   0.106811 0.624806 0.470979 0.276069
C79   C     C_R   0.223436 0.777285 0.949866 0.045636
C80   C     C_R   0.783462 0.247527 0.045112 0.044679
C81   C     C_R   0.776564 0.777286 0.050134 0.045635
C82   C     C_R   0.216538 0.247527 0.954888 0.044679
C83   C     C_R   0.723436 0.277286 0.949866 0.045635
C84   C     C_R   0.283462 0.747527 0.045112 0.044679
C85   C     C_R   0.276564 0.277285 0.050134 0.045636
C86   C     C_R   0.716538 0.747527 0.954888 0.044680
C87   C     C_R   0.274695 0.745012 0.908158 0.262900
C88   C     C_R   0.704494 0.729048 0.670423 0.585991
C89   C     C_R   0.730367 0.272838 0.088638 0.255591
C90   C     C_R   0.725304 0.745013 0.091842 0.262899
C91   C     C_R   0.269633 0.272838 0.911362 0.255591
C92   C     C_R   0.774696 0.245013 0.908158 0.262900
C93   C     C_R   0.230367 0.772838 0.088638 0.255590
C94   C     C_R   0.225304 0.245013 0.091842 0.262900
C95   C     C_R   0.769633 0.772838 0.911362 0.255590
C96   C     C_R   0.307589 0.744780 0.951364 0.168055
C97   C     C_R   0.705499 0.299744 0.038804 0.144296
C98   C     C_R   0.692411 0.744781 0.048635 0.168055
C99   C     C_R   0.290350 0.281036 0.333471 0.566134
C100  C     C_R   0.294501 0.299744 0.961195 0.144295
C101  C     C_R   0.807589 0.244781 0.951364 0.168055
C102  C     C_R   0.205499 0.799744 0.038805 0.144296
C103  C     C_R   0.192411 0.244781 0.048635 0.168055
C104  C     C_R   0.794501 0.799744 0.961195 0.144295
C105  C     C_R   0.136816 0.810443 0.938644 0.191393
C106  C     C_R   0.844882 0.157469 0.066379 0.199267
C107  C     C_R   0.863183 0.810443 0.061357 0.191394
C108  C     C_R   0.155118 0.157469 0.933621 0.199267
C109  C     C_R   0.636817 0.310443 0.938644 0.191393
C110  C     C_R   0.795506 0.229048 0.329577 0.585991
C111  C     C_R   0.344882 0.657469 0.066379 0.199267
C112  C     C_R   0.363184 0.310443 0.061356 0.191394
C113  C     C_R   0.655118 0.657469 0.933621 0.199267
C114  C     C_R   0.117571 0.852849 0.889969 -0.002272
C115  C     C_R   0.873640 0.134739 0.112072 -0.007251
C116  C     C_R   0.882429 0.852849 0.110031 -0.002271
C117  C     C_R   0.126360 0.134740 0.887928 -0.007250
C118  C     C_R   0.617571 0.352849 0.889969 -0.002272
C119  C     C_R   0.373640 0.634740 0.112072 -0.007251
C120  C     C_R   0.382429 0.352849 0.110031 -0.002272
C121  C     C_R   0.209650 0.781036 0.666529 0.566135
C122  C     C_R   0.626360 0.634740 0.887928 -0.007251
C123  C     C_R   0.145337 0.850989 0.796280 0.173460
C124  C     C_R   0.852524 0.151713 0.201944 0.151063
C125  C     C_R   0.854662 0.850989 0.203720 0.173460
C126  C     C_R   0.147476 0.151713 0.798056 0.151063
C127  C     C_R   0.645338 0.350989 0.796280 0.173459
C128  C     C_R   0.352524 0.651713 0.201944 0.151063
C129  C     C_R   0.354662 0.350989 0.203720 0.173459
C130  C     C_R   0.647476 0.651713 0.798056 0.151063
C131  C     C_R   0.190734 0.808948 0.757961 0.014893
C132  C     C_R   0.204494 0.229048 0.670423 0.585991
C133  C     C_R   0.819234 0.211606 0.234186 0.008375
C134  C     C_R   0.809266 0.808948 0.242039 0.014893
C135  C     C_R   0.180766 0.211606 0.765813 0.008375
C136  C     C_R   0.690734 0.308948 0.757961 0.014893
C137  C     C_R   0.319234 0.711606 0.234186 0.008375
C138  C     C_R   0.309266 0.308948 0.242039 0.014894
C139  C     C_R   0.680766 0.711606 0.765813 0.008375
C140  C     C_R   0.220044 0.805006 0.806391 0.238859
C141  C     C_R   0.807472 0.251689 0.174506 0.198993
C142  C     C_R   0.779956 0.805007 0.193609 0.238860
C143  C     C_R   0.790350 0.781036 0.333471 0.566134
C144  C     C_R   0.192527 0.251689 0.825494 0.198993
C145  C     C_R   0.720044 0.305006 0.806391 0.238860
C146  C     C_R   0.307472 0.751689 0.174506 0.198993
C147  C     C_R   0.279956 0.305006 0.193609 0.238860
C148  C     C_R   0.692527 0.751689 0.825494 0.198993
C149  C     C_R   0.201472 0.631116 0.510730 0.556486
C150  C     C_R   0.798325 0.368494 0.489722 0.550672
C151  C     C_R   0.798528 0.631116 0.489270 0.556486
C152  C     C_R   0.201675 0.368494 0.510278 0.550671
C153  C     C_R   0.701472 0.131115 0.510730 0.556486
C154  C     C_R   0.398027 0.998678 0.504484 -0.032852
C155  C     C_R   0.298325 0.868494 0.489722 0.550672
C156  C     C_R   0.298528 0.131115 0.489270 0.556486
C157  C     C_R   0.701675 0.868494 0.510278 0.550671
C158  C     C_R   0.192088 0.792903 0.898342 0.041266
C159  C     C_R   0.812534 0.219298 0.095370 0.046905
C160  C     C_R   0.807912 0.792903 0.101658 0.041268
C161  C     C_R   0.187466 0.219298 0.904630 0.046905
C162  C     C_R   0.692088 0.292903 0.898342 0.041266
C163  C     C_R   0.312534 0.719298 0.095370 0.046905
C164  C     C_R   0.307912 0.292903 0.101658 0.041267
Cl1   Cl    Cl    0.549811 0.723430 0.518090 -0.380928
Cl2   Cl    Cl    0.773956 0.999777 0.453672 -0.374214
Cl3   Cl    Cl    0.726044 0.499776 0.546328 -0.374214
Cl4   Cl    Cl    0.273956 0.499777 0.453673 -0.374214
Cl5   Cl    Cl    0.644606 0.812215 0.389629 -0.388292
Cl6   Cl    Cl    0.349061 0.173266 0.622488 -0.406158
Cl7   Cl    Cl    0.355394 0.812215 0.610370 -0.388292
Cl8   Cl    Cl    0.650938 0.173267 0.377513 -0.406156
Cl9   Cl    Cl    0.144606 0.312215 0.389629 -0.388293
Cl10  Cl    Cl    0.849062 0.673266 0.622487 -0.406157
Cl11  Cl    Cl    0.855394 0.312215 0.610370 -0.388292
Cl12  Cl    Cl    0.443514 0.274365 0.503323 -0.359084
Cl13  Cl    Cl    0.150938 0.673267 0.377512 -0.406157
Cl14  Cl    Cl    0.297432 0.699587 0.805751 -0.431555
Cl15  Cl    Cl    0.691638 0.266390 0.204030 -0.394082
Cl16  Cl    Cl    0.702568 0.699588 0.194250 -0.431554
Cl17  Cl    Cl    0.308362 0.266392 0.795969 -0.394082
Cl18  Cl    Cl    0.797432 0.199588 0.805750 -0.431554
Cl19  Cl    Cl    0.191638 0.766391 0.204031 -0.394082
Cl20  Cl    Cl    0.202568 0.199588 0.194250 -0.431554
Cl21  Cl    Cl    0.808362 0.766391 0.795969 -0.394083
Cl22  Cl    Cl    0.090704 0.772994 0.040215 -0.478466
Cl23  Cl    Cl    0.450189 0.723430 0.481908 -0.380929
Cl24  Cl    Cl    0.840167 0.099086 0.988230 -0.552981
Cl25  Cl    Cl    0.909295 0.772993 0.959786 -0.478468
Cl26  Cl    Cl    0.159833 0.099086 0.011770 -0.552982
Cl27  Cl    Cl    0.590705 0.272994 0.040215 -0.478465
Cl28  Cl    Cl    0.340166 0.599085 0.988231 -0.552982
Cl29  Cl    Cl    0.409295 0.272993 0.959786 -0.478467
Cl30  Cl    Cl    0.659833 0.599086 0.011770 -0.552982
Cl31  Cl    Cl    0.131322 0.908971 0.726111 -0.368373
Cl32  Cl    Cl    0.861042 0.089930 0.274029 -0.382947
Cl33  Cl    Cl    0.868678 0.908971 0.273889 -0.368373
Cl34  Cl    Cl    0.556485 0.274365 0.496681 -0.359085
Cl35  Cl    Cl    0.138959 0.089930 0.725971 -0.382947
Cl36  Cl    Cl    0.631322 0.408970 0.726111 -0.368372
Cl37  Cl    Cl    0.361042 0.589931 0.274029 -0.382946
Cl38  Cl    Cl    0.368677 0.408972 0.273889 -0.368373
Cl39  Cl    Cl    0.638959 0.589930 0.725971 -0.382947
Cl40  Cl    Cl    0.269103 0.871009 0.780134 -0.494227
Cl41  Cl    Cl    0.792241 0.342984 0.194771 -0.505713
Cl42  Cl    Cl    0.730897 0.871011 0.219865 -0.494227
Cl43  Cl    Cl    0.207758 0.342985 0.805229 -0.505713
Cl44  Cl    Cl    0.769103 0.371010 0.780134 -0.494227
Cl45  Cl    Cl    0.049811 0.223430 0.518090 -0.380928
Cl46  Cl    Cl    0.292242 0.842984 0.194771 -0.505713
Cl47  Cl    Cl    0.230897 0.371010 0.219865 -0.494227
Cl48  Cl    Cl    0.707758 0.842985 0.805228 -0.505714
Cl49  Cl    Cl    0.943515 0.774365 0.503321 -0.359084
Cl50  Cl    Cl    0.950189 0.223430 0.481908 -0.380929
Cl51  Cl    Cl    0.056485 0.774365 0.496679 -0.359085
Cl52  Cl    Cl    0.226044 0.999776 0.546327 -0.374213
Cu1   Cu    Cu3+1 0.209920 0.785290 0.495070 1.326260
Cu2   Cu    Cu3+1 0.504760 0.500000 0.075850 1.220117
Cu3   Cu    Cu3+1 0.995240 1.000000 0.924150 1.220115
Cu4   Cu    Cu3+1 0.004760 0.000000 0.075850 1.220117
Cu5   Cu    Cu3+1 0.790080 0.214710 0.504930 1.306976
Cu6   Cu    Cu3+1 0.790080 0.785290 0.504930 1.326261
Cu7   Cu    Cu3+1 0.209920 0.214710 0.495070 1.306976
Cu8   Cu    Cu3+1 0.709920 0.285290 0.495070 1.326261
Cu9   Cu    Cu3+1 0.290080 0.714710 0.504930 1.306977
Cu10  Cu    Cu3+1 0.290080 0.285290 0.504930 1.326260
Cu11  Cu    Cu3+1 0.709920 0.714710 0.495070 1.306976
Cu12  Cu    Cu3+1 0.495240 0.500000 0.924150 1.220115
H1    H     H_    0.141059 0.848345 0.144113 0.340236
H2    H     H_    0.852597 0.959638 0.921014 0.220583
H3    H     H_    0.800673 0.928306 0.024408 0.197793
H4    H     H_    0.787690 0.939864 0.929127 0.200206
H5    H     H_    0.120861 0.220217 0.162790 0.338114
H6    H     H_    0.072283 0.268870 0.073514 0.164833
H7    H     H_    0.127773 0.329522 0.030513 0.174085
H8    H     H_    0.084726 0.326179 0.147813 0.175640
H9    H     H_    0.641059 0.348346 0.144113 0.340235
H10   H     H_    0.647405 0.459640 0.078986 0.220583
H11   H     H_    0.699323 0.428305 0.975589 0.197791
H12   H     H_    0.147405 0.959639 0.078986 0.220583
H13   H     H_    0.712315 0.439863 0.070861 0.200203
H14   H     H_    0.379139 0.720216 0.837210 0.338114
H15   H     H_    0.415274 0.826177 0.852187 0.175640
H16   H     H_    0.372227 0.829522 0.969486 0.174085
H17   H     H_    0.427716 0.768869 0.926487 0.164833
H18   H     H_    0.358942 0.348343 0.855887 0.340236
H19   H     H_    0.352597 0.459638 0.921014 0.220583
H20   H     H_    0.300675 0.428305 0.024408 0.197793
H21   H     H_    0.287689 0.439864 0.929130 0.200206
H22   H     H_    0.620861 0.720217 0.162790 0.338114
H23   H     H_    0.199324 0.928305 0.975590 0.197792
H24   H     H_    0.572283 0.768871 0.073514 0.164833
H25   H     H_    0.627773 0.829523 0.030512 0.174085
H26   H     H_    0.584726 0.826179 0.147812 0.175640
H27   H     H_    0.212314 0.939863 0.070864 0.200204
H28   H     H_    0.879139 0.220217 0.837210 0.338114
H29   H     H_    0.915275 0.326178 0.852187 0.175640
H30   H     H_    0.872227 0.329523 0.969487 0.174085
H31   H     H_    0.927716 0.268869 0.926488 0.164833
H32   H     H_    0.858943 0.848343 0.855887 0.340236
N1    N     N_2   0.164769 0.851901 0.076815 -0.463061
N2    N     N_2   0.864122 0.238388 0.901399 -0.448733
N3    N     N_2   0.835232 0.851900 0.923184 -0.463062
N4    N     N_2   0.135878 0.238388 0.098600 -0.448733
N5    N     N_2   0.664769 0.351901 0.076815 -0.463060
N6    N     N_2   0.364122 0.738387 0.901399 -0.448733
N7    N     N_2   0.335232 0.351900 0.923184 -0.463062
N8    N     N_2   0.635878 0.738388 0.098600 -0.448733
O1    O     O_R   0.255040 0.869590 0.478480 -0.447284
O2    O     O_R   0.817950 0.203450 0.375560 -0.465698
O3    O     O_R   0.817950 0.796550 0.375560 -0.463199
O4    O     O_R   0.182050 0.203450 0.624440 -0.465698
O5    O     O_R   0.682050 0.296550 0.624440 -0.463198
O6    O     O_R   0.317950 0.703450 0.375560 -0.465698
O7    O     O_R   0.317950 0.296550 0.375560 -0.463199
O8    O     O_R   0.682050 0.703450 0.624440 -0.465698
O9    O     O_R   0.250530 0.763330 0.367210 -0.423935
O10   O     O_R   0.749470 0.236670 0.632790 -0.454019
O11   O     O_R   0.749470 0.763330 0.632790 -0.423934
O12   O     O_R   0.744960 0.130410 0.521520 -0.447559
O13   O     O_R   0.250530 0.236670 0.367210 -0.454019
O14   O     O_R   0.750530 0.263330 0.367210 -0.423935
O15   O     O_R   0.249470 0.736670 0.632790 -0.454019
O16   O     O_R   0.249470 0.263330 0.632790 -0.423934
O17   O     O_R   0.750530 0.736670 0.367210 -0.454020
O18   O     O_R   0.177260 0.690030 0.513710 -0.490300
O19   O     O_R   0.822740 0.309970 0.486290 -0.495323
O20   O     O_R   0.822740 0.690030 0.486290 -0.490300
O21   O     O_R   0.177260 0.309970 0.513710 -0.495323
O22   O     O_R   0.677260 0.190030 0.513710 -0.490300
O23   O     O_R   0.744960 0.869590 0.521520 -0.447284
O24   O     O_R   0.322740 0.809970 0.486290 -0.495323
O25   O     O_R   0.322740 0.190030 0.486290 -0.490300
O26   O     O_R   0.677260 0.809970 0.513710 -0.495323
O27   O     O_R   0.051640 0.926880 0.885090 -0.445873
O28   O     O_R   0.948360 0.073120 0.114910 -0.458976
O29   O     O_R   0.948360 0.926880 0.114910 -0.445872
O30   O     O_R   0.051640 0.073120 0.885090 -0.458977
O31   O     O_R   0.551640 0.426880 0.885090 -0.445872
O32   O     O_R   0.448360 0.573120 0.114910 -0.458976
O33   O     O_R   0.448360 0.426880 0.114910 -0.445873
O34   O     O_R   0.255040 0.130410 0.478480 -0.447559
O35   O     O_R   0.551640 0.573120 0.885090 -0.458977
O36   O     O_R   0.940620 0.926560 0.986760 -0.488321
O37   O     O_R   0.059380 0.073440 0.013240 -0.484295
O38   O     O_R   0.059380 0.926560 0.013240 -0.488320
O39   O     O_R   0.940620 0.073440 0.986760 -0.484295
O40   O     O_R   0.440620 0.426560 0.986760 -0.488321
O41   O     O_R   0.559380 0.573440 0.013240 -0.484295
O42   O     O_R   0.559380 0.426560 0.013240 -0.488320
O43   O     O_R   0.440620 0.573440 0.986760 -0.484295
O44   O     O_R   0.755040 0.369590 0.478480 -0.447284
O45   O     O_R   0.244960 0.630410 0.521520 -0.447559
O46   O     O_R   0.244960 0.369590 0.521520 -0.447283
O47   O     O_R   0.755040 0.630410 0.478480 -0.447560
O48   O     O_R   0.182050 0.796550 0.624440 -0.463198

loop_
_geom_bond_atom_site_label_1
_geom_bond_atom_site_label_2
_ccdc_geom_bond_type
C15   C75   A    
C31   C42   A    
H28   N2    S    
C157  O23   A    
C66   H29   S    
C127  Cl36  S    
C14   C33   A    
C79   C87   A    
Cu7   Cu10  S    
C6    O38   A    
C16   C31   A    
Cu9   O45   S    
Cu8   O5    S    
C100  N7    S    
C124  C133  A    
C50   C59   A    
C69   H8    S    
Cu8   O44   S    
C9    O35   A    
C52   C61   A    
C148  Cl48  S    
C144  C161  A    
C9    O41   A    
C11   O43   A    
C49   C78   A    
H9    N5    S    
Cu6   O20   S    
C131  C140  A    
C155  O1    A    
C134  C143  S    
C13   C51   A    
C44   C53   A    
Cu8   O14   S    
C113  C122  A    
C79   C102  A    
C61   Cl52  S    
C91   C100  A    
C117  C126  A    
C73   H24   S    
C119  C128  A    
C67   H3    S    
Cu12  O31   S    
C24   C50   A    
C156  O34   A    
Cu2   Cu12  S    
C109  C118  A    
C96   N6    S    
C112  C164  A    
C19   C46   A    
C39   C154  A    
C77   O5    A    
C137  C146  A    
C127  C136  A    
C112  C120  A    
C80   C159  S    
C82   C91   A    
C120  C129  A    
C52   C155  S    
C60   C151  S    
C14   C76   A    
C157  O26   A    
C5    O30   A    
C1    O9    A    
C105  C158  A    
C153  O22   A    
Cu9   O24   S    
C27   Cl23  S    
Cu4   O38   S    
C81   C90   A    
C99   O13   A    
Cu3   O27   S    
Cu1   O48   S    
Cu10  O7    S    
C71   H17   S    
C35   C45   A    
C15   C30   A    
C23   Cl49  S    
C16   C25   A    
C150  O44   A    
C94   C103  A    
C76   Cl11  S    
C132  O4    A    
C67   N3    S    
C106  C115  A    
C147  C164  A    
C72   H20   S    
C18   C38   A    
C92   Cl18  S    
C93   Cl19  S    
Cu6   Cu11  S    
C65   H27   S    
C36   C38   A    
Cu8   O22   S    
C84   C93   A    
C142  Cl42  S    
C88   O11   A    
C86   C95   A    
C73   H26   S    
C2    C40   A    
C89   C97   A    
C85   C164  S    
Cu6   O11   S    
C105  Cl22  S    
C53   C153  S    
C27   C29   A    
C78   Cl13  S    
C113  Cl30  S    
C48   C76   A    
Cu2   O41   S    
C69   H6    S    
C79   C158  S    
C156  O25   A    
C153  O12   A    
C143  O3    A    
C71   H16   S    
C37   C40   A    
C140  Cl40  S    
C38   C39   A    
C43   C52   A    
C106  C159  A    
C111  C119  A    
C53   C62   A    
Cu5   O19   S    
C6    C114  S    
C140  C158  A    
C10   O31   A    
C20   C35   A    
C141  C159  A    
C98   N8    S    
C22   C25   A    
C30   C41   A    
C72   H21   S    
C43   C154  A    
C138  C147  A    
C144  Cl43  S    
C63   Cl3   S    
C7    O39   A    
C81   C160  S    
C101  N2    S    
C75   Cl10  S    
C151  O47   A    
C108  Cl26  S    
Cu5   O10   S    
Cu3   O36   S    
C2    C45   A    
C58   C64   A    
C10   O42   A    
C90   Cl16  S    
C139  C148  A    
C34   C39   A    
C110  O2    A    
C6    O27   A    
C46   Cl6   S    
C77   O10   A    
C73   N8    S    
Cu4   O28   S    
C124  Cl32  S    
Cu12  O35   S    
C99   C138  S    
C19   C28   A    
C1    O6    A    
C84   C163  S    
Cu6   O3    S    
C62   Cl2   S    
C83   C162  S    
C71   N6    S    
C116  C125  A    
C118  C127  A    
C114  C123  A    
C56   C150  S    
Cu6   O23   S    
C1    C137  S    
C8    O33   A    
C108  C117  A    
Cu7   O34   S    
C65   N1    S    
C66   H30   S    
C7    O28   A    
C110  O14   A    
H1    N1    S    
C108  C161  A    
C14   C22   A    
C65   H23   S    
C69   H7    S    
H22   N8    S    
C54   C157  S    
C55   C61   A    
H14   N6    S    
C26   Cl34  S    
C141  Cl41  S    
C107  C116  A    
C43   C57   A    
C70   H11   S    
Cu5   O12   S    
C51   C60   A    
C70   H10   S    
Cu5   O2    S    
Cu1   Cu9   S    
C125  C134  A    
C155  O24   A    
C34   C37   A    
C24   C42   A    
C149  O18   A    
Cu7   O21   S    
C13   C41   A    
C107  C160  A    
C59   C152  S    
C121  O48   A    
Cu5   Cu8   S    
C109  C162  A    
C70   H13   S    
C4    O36   A    
C29   Cl1   S    
C80   C89   A    
Cu12  O43   S    
C103  N4    S    
C21   Cl51  S    
C65   H12   S    
C77   C136  S    
Cu1   O9    S    
C111  Cl28  S    
Cu10  O46   S    
C3    C86   S    
C123  Cl31  S    
C94   Cl20  S    
H32   N3    S    
C147  Cl47  S    
C130  C139  A    
C11   O32   A    
Cu2   O32   S    
Cu3   Cu4   S    
C99   O7    A    
C28   Cl12  S    
C54   C62   A    
Cu11  O8    S    
C134  C142  A    
C18   C57   A    
C107  Cl25  S    
C9    C122  S    
C102  N1    S    
Cu2   O33   S    
C92   C101  A    
C73   H25   S    
C132  O16   A    
C67   H4    S    
C143  O17   A    
C91   Cl17  S    
C35   Cl5   S    
C16   C74   A    
C4    O29   A    
Cu12  O40   S    
C95   Cl21  S    
C46   C47   A    
C17   C68   A    
C115  C124  A    
C123  C131  A    
C4    C116  S    
Cu2   O42   S    
Cu3   O39   S    
C93   C102  A    
C149  O45   A    
C47   C154  A    
C8    O40   A    
C133  C141  A    
Cu11  O26   S    
C33   C41   A    
C50   C74   A    
C71   H15   S    
Cu7   O4    S    
C64   Cl4   S    
C87   Cl14  S    
C68   Cl8   S    
C5    O37   A    
Cu9   O15   S    
C86   C98   A    
Cu4   O37   S    
C20   C36   A    
C83   C97   A    
C32   C42   A    
Cu11  O17   S    
C66   N2    S    
Cu7   O13   S    
C126  Cl35  S    
Cu9   O6    S    
C152  O21   A    
C11   C119  S    
C151  O20   A    
Cu1   O18   S    
C83   C92   A    
C59   C64   A    
C60   C63   A    
C17   C26   A    
C72   H19   S    
C51   C75   A    
C145  C162  A    
C152  O46   A    
C84   C96   A    
C7    C115  S    
Cu3   O30   S    
C129  C138  A    
C67   H2    S    
C12   C78   A    
C82   C103  A    
C31   C33   A    
C104  N3    S    
C136  C145  A    
C58   C149  S    
C15   C23   A    
C125  Cl33  S    
C3    C148  A    
C12   C32   A    
C121  C131  S    
C146  Cl46  S    
C69   N4    S    
C20   C29   A    
C55   C156  S    
Cu10  O25   S    
C105  C114  A    
C36   C40   A    
C111  C163  A    
C74   Cl9   S    
C66   H31   S    
C3    C113  A    
C2    C44   A    
C12   C21   A    
C72   N7    S    
C49   C58   A    
C5    C117  S    
C128  C137  A    
C88   C139  S    
C10   C118  S    
C85   C94   A    
Cu4   O29   S    
C87   C96   A    
Cu11  O47   S    
C56   C63   A    
C17   C37   A    
C25   Cl45  S    
H5    N4    S    
C129  Cl38  S    
C135  C144  A    
C45   C54   A    
C22   Cl50  S    
C44   C68   A    
C150  O19   A    
H18   N7    S    
C95   C104  A    
C8    C120  S    
C70   N5    S    
C47   C55   A    
C97   N5    S    
C24   C49   A    
C48   C56   A    
C18   C27   A    
C142  C160  A    
C19   C34   A    
C126  C135  A    
C13   C48   A    
C82   C161  S    
C121  O15   A    
C146  C163  A    
C26   C28   A    
C80   C101  A    
C21   C23   A    
C88   O8    A    
C106  Cl24  S    
C85   C100  A    
C30   C32   A    
C109  Cl27  S    
C132  C135  S    
Cu1   O1    S    
C90   C98   A    
C128  Cl37  S    
C89   Cl15  S    
Cu10  O16   S    
C112  Cl29  S    
C130  Cl39  S    
C110  C133  S    
C122  C130  A    
C145  Cl44  S    
C57   Cl7   S    
C81   C104  A    
