data_mof_unit_65877.cif
_audit_creation_date              2012-12-10T17:52:41-0500
_audit_creation_method            fapswitch 2.2
_symmetry_space_group_name_H-M    P1
_symmetry_Int_Tables_number       1
_space_group_crystal_system       triclinic
_cell_length_a                    18.809222
_cell_length_b                    18.737704
_cell_length_c                    18.629493
_cell_angle_alpha                 109.171558
_cell_angle_beta                  109.370519
_cell_angle_gamma                 109.759262
_cell_volume                      5061.25295952

loop_
_atom_site_label
_atom_site_type_symbol
_atom_type_description
_atom_site_fract_x
_atom_site_fract_y
_atom_site_fract_z
_atom_type_partial_charge
C1    C     C_R   0.121589 0.120041 0.501558 0.804743
C2    C     C_R   0.331522 0.313065 0.580027 -0.147054
C3    C     C_R   0.268931 0.249594 0.582651 -0.030753
C4    C     C_R   0.120978 0.001267 0.620239 0.847411
C5    C     C_R   0.189765 0.186174 0.503780 -0.097796
C6    C     C_R   0.744430 0.922204 0.245370 -0.166690
C7    C     C_R   0.677974 0.918437 0.180179 0.190294
C8    C     C_R   0.685952 0.997561 0.184750 -0.081124
C9    C     C_R   0.759696 0.077949 0.251709 -0.198378
C10   C     C_R   0.826850 0.081724 0.316373 -0.019007
C11   C     C_R   0.817283 0.002658 0.313080 -0.151150
C12   C     C_R   0.268063 0.019787 0.682533 0.017140
C13   C     C_R   0.821534 0.743747 0.498585 -0.211158
C14   C     C_R   0.759126 0.677641 0.498135 0.186275
C15   C     C_R   0.685723 0.683260 0.496136 -0.079072
C16   C     C_R   0.878482 0.880002 0.498628 0.887767
C17   C     C_R   0.673917 0.751720 0.491632 -0.195854
C18   C     C_R   0.736544 0.817975 0.492399 0.182430
C19   C     C_R   0.811138 0.813693 0.497235 -0.079406
C20   C     C_R   0.501322 0.879641 0.880850 0.871110
C21   C     C_R   0.380048 0.996025 0.875390 0.890178
C22   C     C_R   0.502239 0.120131 0.122773 0.868792
C23   C     C_R   0.191172 0.005607 0.686139 -0.068824
C24   C     C_R   0.619968 0.998644 0.119178 0.870310
C25   C     C_R   0.500101 0.619788 0.620114 0.847476
C26   C     C_R   0.379996 0.379658 0.500220 0.850470
C27   C     C_R   0.499545 0.379877 0.379957 0.840880
C28   C     C_R   0.881690 0.001558 0.379751 0.842375
C29   C     C_R   0.619972 0.618454 0.498111 0.852468
C30   C     C_R   0.550627 0.837120 0.775656 -0.155651
C31   C     C_R   0.550651 0.773768 0.710903 -0.065034
C32   C     C_R   0.500775 0.685655 0.686446 -0.088245
C33   C     C_R   0.451979 0.661019 0.726082 0.190504
C34   C     C_R   0.176817 0.986730 0.747786 -0.197900
C35   C     C_R   0.453171 0.725735 0.790331 -0.181002
C36   C     C_R   0.501856 0.813183 0.814734 -0.119878
C37   C     C_R   0.522187 0.264738 0.192800 -0.131955
C38   C     C_R   0.521474 0.329628 0.254712 -0.069766
C39   C     C_R   0.497771 0.312147 0.313900 -0.126522
C40   C     C_R   0.286697 0.049601 0.626935 -0.163767
C41   C     C_R   0.476825 0.231553 0.312883 0.155732
C42   C     C_R   0.485391 0.169556 0.254300 -0.018763
C43   C     C_R   0.504474 0.186039 0.192223 -0.206150
C44   C     C_R   0.360883 0.059916 0.620565 0.211894
C45   C     C_R   0.238573 0.980970 0.806766 -0.194925
C46   C     C_R   0.413163 0.033421 0.664122 -0.145701
C47   C     C_R   0.394422 0.000698 0.717387 0.146845
C48   C     C_R   0.327068 0.003776 0.735642 0.091935
C49   C     C_2   0.288027 0.249338 0.666759 0.397649
C50   C     C_3   0.601626 0.830324 0.106000 -0.852908
C51   C     C_2   0.907311 0.167414 0.383635 0.417938
C52   C     C_3   0.770982 0.601652 0.497346 -0.835307
C53   C     C_3   0.721496 0.890197 0.485394 -0.821001
C54   C     C_2   0.603239 0.800324 0.670069 0.408546
C55   C     C_3   0.397625 0.567483 0.701982 -0.866899
C56   C     C_R   0.313923 0.990452 0.802601 -0.105204
C57   C     C_2   0.547629 0.415660 0.257792 0.414705
C58   C     C_3   0.445603 0.211271 0.373154 -0.768448
C59   C     C_2   0.481686 0.091209 0.261065 0.448647
C60   C     C_3   0.382139 0.094547 0.563777 -0.865864
C61   C     C_3   0.438503 0.951521 0.739869 -0.845122
C62   C     C_R   0.174027 0.186265 0.425102 -0.165544
C63   C     C_R   0.236178 0.250568 0.424002 -0.165726
C64   C     C_R   0.314683 0.313558 0.501349 -0.072187
H1    H     H_    0.117453 0.976270 0.750065 0.155445
H2    H     H_    0.466586 0.034445 0.653199 0.161155
H3    H     H_    0.227911 0.970424 0.857031 0.171501
H4    H     H_    0.112923 0.137351 0.364942 0.146318
H5    H     H_    0.223543 0.250588 0.362870 0.158906
H6    H     H_    0.393137 0.362848 0.639266 0.193160
H7    H     H_    0.241835 0.198627 0.669877 0.079446
H8    H     H_    0.611776 0.776113 0.109121 0.234998
H9    H     H_    0.541584 0.821138 0.109334 0.259197
H10   H     H_    0.592418 0.825218 0.042089 0.234618
H11   H     H_    0.965414 0.170778 0.426344 0.080167
H12   H     H_    0.739260 0.862332 0.244209 0.155459
H13   H     H_    0.827203 0.604040 0.488590 0.234770
H14   H     H_    0.783329 0.602905 0.560381 0.256403
H15   H     H_    0.711891 0.539127 0.442427 0.224242
H16   H     H_    0.727535 0.895676 0.429849 0.224181
H17   H     H_    0.655488 0.877700 0.473694 0.237434
H18   H     H_    0.769705 0.953143 0.547171 0.263185
H19   H     H_    0.606588 0.752164 0.621682 0.048422
H20   H     H_    0.399032 0.519522 0.649309 0.230332
H21   H     H_    0.421751 0.559854 0.760510 0.250879
H22   H     H_    0.328679 0.550806 0.679194 0.245022
H23   H     H_    0.764798 0.137763 0.252811 0.197345
H24   H     H_    0.555252 0.470436 0.310060 0.071725
H25   H     H_    0.436447 0.262059 0.413201 0.216437
H26   H     H_    0.380592 0.151240 0.333398 0.264078
H27   H     H_    0.492742 0.202060 0.418532 0.250227
H28   H     H_    0.524300 0.068186 0.248249 0.062404
H29   H     H_    0.334177 0.112001 0.532598 0.242584
H30   H     H_    0.447678 0.154017 0.604157 0.248999
H31   H     H_    0.381989 0.044394 0.511259 0.249569
H32   H     H_    0.507226 0.998634 0.792160 0.267608
H33   H     H_    0.403382 0.906459 0.758042 0.218781
H34   H     H_    0.879177 0.741558 0.501077 0.159067
H35   H     H_    0.438317 0.909359 0.681582 0.233880
H36   H     H_    0.616185 0.753905 0.488743 0.162845
H37   H     H_    0.588377 0.905228 0.795393 0.205111
H38   H     H_    0.244400 0.066328 0.589154 0.126298
H39   H     H_    0.415838 0.707478 0.821213 0.173493
H40   H     H_    0.537151 0.275577 0.144590 0.209521
O1    O     O_R   0.091590 0.143330 0.551700 -0.629346
O2    O     O_R   0.551730 0.591680 0.643420 -0.610502
O3    O     O_R   0.356670 0.408480 0.448390 -0.610437
O4    O     O_R   0.091620 0.039900 0.448280 -0.614615
O5    O     O_R   0.460120 0.408460 0.551810 -0.625555
O6    O     O_R   0.448270 0.408490 0.356760 -0.624540
O7    O     O_R   0.551720 0.408480 0.460170 -0.610817
O8    O     O_R   0.539880 0.591710 0.448370 -0.631218
O9    O     O_R   0.643330 0.591700 0.551790 -0.616124
O10   O     O_R   0.091610 0.051730 0.643330 -0.620199
O11   O     O_R   0.091640 0.948310 0.539920 -0.614907
O12   O     O_R   0.551760 0.960180 0.908450 -0.635516
O13   O     O_R   0.908380 0.960100 0.551720 -0.613477
O14   O     O_R   0.908410 0.856670 0.448300 -0.619125
O15   O     O_R   0.908360 0.051690 0.460080 -0.625443
O16   O     O_R   0.908390 0.948270 0.356670 -0.610899
O17   O     O_R   0.448330 0.856720 0.908450 -0.627625
O18   O     O_2   0.356519 0.306018 0.734244 -0.552826
O19   O     O_2   0.910109 0.235795 0.391515 -0.561613
O20   O     O_2   0.643818 0.876737 0.690159 -0.570653
O21   O     O_2   0.561930 0.426842 0.201890 -0.551931
O22   O     O_2   0.430313 0.050287 0.278196 -0.571266
O23   O     O_R   0.356660 0.948290 0.908410 -0.620846
O24   O     O_R   0.460090 0.051750 0.908420 -0.604208
O25   O     O_R   0.448250 0.039900 0.091630 -0.617097
O26   O     O_R   0.551680 0.143360 0.091630 -0.611258
O27   O     O_R   0.539910 0.948330 0.091670 -0.623528
O28   O     O_R   0.643340 0.051790 0.091670 -0.618784
O29   O     O_R   0.448280 0.591700 0.540000 -0.616199
Zn1   Zn    Zn3+2 0.999980 0.069060 0.569050 0.977313
Zn2   Zn    Zn3+2 0.000020 0.930940 0.430950 0.982142
Zn3   Zn    Zn3+2 0.430940 0.930960 0.000040 0.978623
Zn4   Zn    Zn3+2 0.569060 0.069120 0.000040 0.984052
Zn5   Zn    Zn3+2 0.430920 0.500100 0.431040 0.979963
Zn6   Zn    Zn3+2 0.569080 0.500080 0.569140 0.974468

loop_
_geom_bond_atom_site_label_1
_geom_bond_atom_site_label_2
_ccdc_geom_bond_type
C33   C55   S    
C37   C43   A    
C51   O19   D    
C41   C42   A    
C29   O8    A    
C35   C36   A    
C12   C48   A    
C3    C49   S    
C61   H32   S    
O7    Zn6   S    
C7    C8    A    
C39   C41   A    
C59   O22   D    
C12   C23   A    
C62   C63   A    
C1    C5    S    
C4    O10   A    
C51   H11   S    
C41   C58   S    
C46   H2    S    
C35   H39   S    
C50   H10   S    
C57   O21   D    
C30   C31   A    
C10   C51   S    
O25   Zn3   S    
C53   H17   S    
C18   C19   A    
C13   H34   S    
C50   H8    S    
C26   C64   S    
C12   C40   A    
C4    O11   A    
C18   C53   S    
C8    C24   S    
C14   C52   S    
C22   C43   S    
C27   O6    A    
C27   C39   S    
C8    C9    A    
C45   H3    S    
O9    Zn6   S    
C21   O23   A    
C52   H15   S    
C25   O29   A    
C9    C10   A    
C60   H29   S    
C25   C32   S    
C27   O7    A    
O29   Zn5   S    
O17   Zn3   S    
C13   C14   A    
C22   O26   A    
C61   H35   S    
C52   H14   S    
O13   Zn1   S    
C34   H1    S    
C54   H19   S    
C58   H25   S    
C2    C64   A    
C25   O2    A    
C15   C29   S    
C54   O20   D    
O15   Zn1   S    
C13   C19   A    
O8    Zn5   S    
O6    Zn5   S    
C53   H16   S    
O23   Zn3   S    
C45   C56   A    
O4    Zn2   S    
O27   Zn3   S    
C28   O16   A    
C50   H9    S    
C6    C11   A    
C20   O12   A    
C4    C23   S    
C44   C46   A    
O28   Zn4   S    
C53   H18   S    
C55   H21   S    
O24   Zn4   S    
C37   C38   A    
C16   O14   A    
C37   H40   S    
C38   C57   S    
C24   O28   A    
C47   C48   A    
C23   C34   A    
C17   C18   A    
O10   Zn1   S    
C34   C45   A    
C44   C60   S    
C21   O24   A    
C6    H12   S    
C58   H26   S    
C26   O5    A    
C20   O17   A    
C22   O25   A    
C42   C43   A    
C52   H13   S    
O12   Zn4   S    
C58   H27   S    
C48   C56   A    
C29   O9    A    
C46   C47   A    
C31   C32   A    
C61   H33   S    
C7    C50   S    
C3    C5    A    
C28   O15   A    
C26   O3    A    
C47   C61   S    
C21   C56   S    
C15   C17   A    
C6    C7    A    
C30   C36   A    
C57   H24   S    
C62   H4    S    
O5    Zn6   S    
O16   Zn2   S    
C32   C33   A    
O3    Zn5   S    
C2    C3    A    
C63   H5    S    
C16   O13   A    
C9    H23   S    
C24   O27   A    
O2    Zn6   S    
C38   C39   A    
O11   Zn2   S    
C11   C28   S    
C55   H22   S    
C16   C19   S    
C49   O18   D    
C30   H37   S    
C33   C35   A    
C5    C62   A    
C59   H28   S    
C31   C54   S    
C17   H36   S    
C10   C11   A    
C1    O4    A    
C40   H38   S    
C63   C64   A    
C20   C36   S    
C60   H31   S    
C40   C44   A    
C49   H7    S    
C42   C59   S    
C14   C15   A    
C55   H20   S    
C2    H6    S    
O26   Zn4   S    
O14   Zn2   S    
C1    O1    A    
O1    Zn1   S    
C60   H30   S    
