data_mof_unit_32306.cif
_audit_creation_date              2012-10-26T20:04:43-0400
_audit_creation_method            fapswitch 2.2
_symmetry_space_group_name_H-M    P1
_symmetry_Int_Tables_number       1
_space_group_crystal_system       triclinic
_cell_length_a                    15.883726
_cell_length_b                    15.095534
_cell_length_c                    13.689968
_cell_angle_alpha                 89.965802
_cell_angle_beta                  89.984347
_cell_angle_gamma                 89.903301
_cell_volume                      3282.48377736

loop_
_atom_site_label
_atom_site_type_symbol
_atom_type_description
_atom_site_fract_x
_atom_site_fract_y
_atom_site_fract_z
_atom_type_partial_charge
C1    C     C_R   0.499699 0.328477 0.500067 0.547498
C2    C     C_R   0.491767 0.046407 0.500960 -0.019932
C3    C     C_R   0.495071 0.906704 0.589399 0.015008
C4    C     C_R   0.487811 0.093256 0.411520 0.014461
C5    C     C_R   0.484276 0.954472 0.319874 0.033165
C6    C     C_R   0.500250 0.045455 0.680955 0.031294
C7    C     C_R   0.480267 0.047723 0.322046 0.278102
C8    C     C_R   0.495624 0.952235 0.679307 0.280815
C9    C     C_R   0.546483 0.438239 0.793354 0.038208
C10   C     C_R   0.453670 0.561901 0.206646 0.037259
C11   C     C_R   0.453548 0.561743 0.793278 0.039820
C12   C     C_R   0.499422 0.671506 0.499957 0.548363
C13   C     C_R   0.546584 0.438394 0.206700 0.037409
C14   C     C_R   0.452714 0.563484 0.896341 -0.011999
C15   C     C_R   0.547562 0.436800 0.103634 -0.015718
C16   C     C_R   0.339743 0.500016 0.500005 0.549636
C17   C     C_R   0.660258 0.499975 0.499995 0.553552
C18   C     C_R   0.500115 0.500117 0.948171 0.053434
C19   C     C_R   0.500155 0.500166 0.051810 0.053046
C20   C     C_R   0.547502 0.436717 0.896414 -0.015642
C21   C     C_R   0.452808 0.563590 0.103573 -0.015213
C22   C     C_R   0.405846 0.626807 0.948573 -0.142411
C23   C     C_R   0.496968 0.768286 0.499846 -0.029735
C24   C     C_R   0.594647 0.373665 0.051390 -0.141097
C25   C     C_R   0.405914 0.626876 0.051262 -0.145265
C26   C     C_R   0.594636 0.373644 0.948712 -0.144609
C27   C     C_3   0.972310 0.429560 0.549765 0.265871
C28   C     C_3   0.027703 0.570341 0.450229 0.265540
C29   C     C_3   0.027798 0.425470 0.457492 0.262148
C30   C     C_3   0.972218 0.574431 0.542503 0.262158
C31   C     C_1   0.250211 0.499939 0.500104 -0.013354
C32   C     C_1   0.749795 0.500018 0.499894 -0.009327
C33   C     C_3   0.027126 0.503821 0.594089 -0.033140
C34   C     C_R   0.497559 0.231668 0.500372 -0.029434
C35   C     C_3   0.972888 0.496080 0.405905 -0.033389
C36   C     C_3   0.083242 0.499751 0.501056 -0.005195
C37   C     C_3   0.916769 0.500153 0.498939 -0.005592
C38   C     C_1   0.174803 0.499849 0.500396 0.005210
C39   C     C_1   0.825205 0.500079 0.499600 0.007576
C40   C     C_R   0.498985 0.814349 0.587967 -0.122153
C41   C     C_R   0.492143 0.185600 0.412447 -0.124440
C42   C     C_3   0.002890 0.293768 0.375145 -0.129234
C43   C     C_3   0.997179 0.706131 0.624832 -0.126959
C44   C     C_3   0.996935 0.294659 0.626212 -0.104915
C45   C     C_R   0.491376 0.814325 0.411636 -0.136723
C46   C     C_3   0.003066 0.705237 0.373777 -0.105066
C47   C     C_3   0.937469 0.492848 0.301891 -0.268935
C48   C     C_3   0.007061 0.497714 0.225185 -0.412657
C49   C     C_3   0.062552 0.507050 0.698100 -0.269883
C50   C     C_3   0.992965 0.502192 0.774812 -0.411694
C51   C     C_3   0.484692 0.907450 0.221231 -0.259394
C52   C     C_3   0.573261 0.876802 0.193540 -0.426313
C53   C     C_3   0.509685 0.092394 0.779019 -0.257158
C54   C     C_3   0.600355 0.122411 0.795832 -0.429577
C55   C     C_3   0.389462 0.113738 0.216548 -0.149988
C56   C     C_R   0.499561 0.185605 0.588799 -0.135990
C57   C     C_3   0.414821 0.886386 0.795328 -0.155240
C58   C     C_R   0.489134 0.907188 0.409589 -0.014053
C59   C     C_R   0.497367 0.092751 0.591118 -0.013998
C60   C     C_R   0.491512 0.953552 0.499938 -0.020416
Cu1   Cu    Cu3+1 0.500010 0.499990 0.597420 0.944456
Cu2   Cu    Cu3+1 0.499990 0.500010 0.402580 0.942014
H1    H     H_    0.369135 0.676254 0.910033 0.092125
H2    H     H_    0.417304 0.609976 0.247497 0.121344
H3    H     H_    0.417170 0.609800 0.752373 0.116762
H4    H     H_    0.582985 0.390357 0.247597 0.123747
H5    H     H_    0.940015 0.298648 0.410861 0.133163
H6    H     H_    0.023906 0.223906 0.381595 0.126933
H7    H     H_    0.996936 0.308634 0.296157 0.120184
H8    H     H_    0.976189 0.776000 0.618363 0.129785
H9    H     H_    0.060050 0.701217 0.589114 0.128928
H10   H     H_    0.003134 0.691282 0.703825 0.120177
H11   H     H_    0.061927 0.321349 0.632986 0.121756
H12   H     H_    0.631493 0.324323 0.089910 0.111294
H13   H     H_    0.996598 0.240595 0.571455 0.139785
H14   H     H_    0.979937 0.265167 0.697755 0.119956
H15   H     H_    0.003413 0.759315 0.428517 0.139726
H16   H     H_    0.938072 0.678546 0.367027 0.123843
H17   H     H_    0.020050 0.734711 0.302220 0.119328
H18   H     H_    0.037923 0.563556 0.226855 0.186639
H19   H     H_    0.055339 0.445787 0.237994 0.183080
H20   H     H_    0.979511 0.487832 0.151480 0.118480
H21   H     H_    0.901007 0.430855 0.292248 0.130240
H22   H     H_    0.893166 0.548855 0.290817 0.136486
H23   H     H_    0.369275 0.676397 0.089738 0.099430
H24   H     H_    0.944699 0.554133 0.762014 0.185439
H25   H     H_    0.962089 0.436357 0.773135 0.187026
H26   H     H_    0.020523 0.512058 0.848515 0.117582
H27   H     H_    0.106850 0.451039 0.709170 0.135482
H28   H     H_    0.099022 0.569038 0.707740 0.128217
H29   H     H_    0.615642 0.934936 0.186614 0.171518
H30   H     H_    0.599650 0.830922 0.248989 0.150780
H31   H     H_    0.571184 0.841861 0.122221 0.143355
H32   H     H_    0.439995 0.851030 0.220990 0.108629
H33   H     H_    0.462179 0.951198 0.161601 0.184603
H34   H     H_    0.631536 0.324360 0.910227 0.103142
H35   H     H_    0.643123 0.064109 0.796193 0.175782
H36   H     H_    0.621363 0.169181 0.738299 0.145033
H37   H     H_    0.605027 0.156142 0.867675 0.132732
H38   H     H_    0.465440 0.149116 0.784729 0.115209
H39   H     H_    0.492501 0.048724 0.841015 0.187390
H40   H     H_    0.362100 0.157667 0.273566 0.123106
H41   H     H_    0.351385 0.052142 0.210479 0.103182
H42   H     H_    0.384987 0.149146 0.145713 0.143911
H43   H     H_    0.382567 0.842364 0.742084 0.106640
H44   H     H_    0.377403 0.948069 0.805847 0.103714
H45   H     H_    0.503998 0.777681 0.655749 0.174658
H46   H     H_    0.416798 0.851117 0.866409 0.139342
H47   H     H_    0.491246 0.222259 0.344419 0.171982
H48   H     H_    0.488935 0.776360 0.344981 0.133192
H49   H     H_    0.503118 0.223535 0.655404 0.133634
H50   H     H_    0.582854 0.390154 0.752515 0.122315
N1    N     N_R   0.499960 0.499930 0.743810 -0.238044
N2    N     N_R   0.500040 0.500070 0.256190 -0.239212
O1    O     O_R   0.500020 0.370250 0.582280 -0.512187
O2    O     O_3   0.935172 0.651366 0.582624 -0.564051
O3    O     O_3   0.935525 0.358552 0.601570 -0.573094
O4    O     O_3   0.064482 0.641351 0.398424 -0.574693
O5    O     O_3   0.475040 0.094826 0.235351 -0.586731
O6    O     O_3   0.498209 0.905115 0.766174 -0.578726
O7    O     O_R   0.499980 0.629750 0.417720 -0.511448
O8    O     O_R   0.500010 0.370270 0.417740 -0.511859
O9    O     O_R   0.499990 0.629730 0.582260 -0.510512
O10   O     O_R   0.379080 0.499980 0.582260 -0.504580
O11   O     O_R   0.620920 0.500020 0.417740 -0.502751
O12   O     O_R   0.379070 0.500000 0.417710 -0.488828
O13   O     O_R   0.620930 0.500000 0.582290 -0.485780
O14   O     O_3   0.064871 0.348546 0.417378 -0.568496

loop_
_geom_bond_atom_site_label_1
_geom_bond_atom_site_label_2
_ccdc_geom_bond_type
C57   H43   S    
C34   C56   A    
C43   H10   S    
C23   C45   A    
C27   C29   S    
C14   C18   A    
C49   H28   S    
C35   C47   S    
C30   O2    S    
C53   C54   S    
C27   C33   S    
C16   C31   S    
C15   C19   A    
C55   H40   S    
C5    C58   A    
Cu1   O10   S    
C35   C37   S    
C24   C26   A    
Cu2   N2    S    
C46   H17   S    
C11   C14   A    
C2    C60   A    
C4    C41   A    
C33   C49   S    
C23   C40   A    
C55   H41   S    
C33   C36   S    
C48   H19   S    
C46   O4    S    
C18   C19   A    
C32   C39   T    
Cu2   O12   S    
C44   H14   S    
C1    O8    A    
C22   H1    S    
C12   O7    A    
C28   C35   S    
C53   H39   S    
C22   C25   A    
Cu1   O1    S    
C54   H35   S    
C47   H21   S    
C56   H49   S    
C13   N2    A    
C10   N2    A    
C42   O14   S    
C3    C60   A    
C9    H50   S    
C57   H44   S    
C10   C21   A    
C41   H47   S    
C42   H6    S    
C16   O12   A    
Cu1   Cu2   S    
C34   C41   A    
C4    C7    A    
C1    C34   S    
C13   H4    S    
C27   O3    S    
C53   H38   S    
C26   H34   S    
C45   C58   A    
C54   H36   S    
C51   C52   S    
C7    O5    S    
C3    C8    A    
C5    C7    A    
C2    C59   A    
C17   O13   A    
C12   C23   S    
C55   H42   S    
C42   H7    S    
C30   C37   S    
C44   H13   S    
C2    C4    A    
C17   O11   A    
C43   O2    S    
C46   H15   S    
C9    C20   A    
C47   C48   S    
C29   C36   S    
C25   H23   S    
C52   H31   S    
Cu1   O13   S    
C47   H22   S    
C50   H25   S    
C40   H45   S    
C15   C24   A    
C3    C40   A    
C43   H8    S    
C57   O6    S    
Cu1   N1    S    
C42   H5    S    
C54   H37   S    
C52   H30   S    
C6    C53   S    
C36   C38   S    
Cu2   O8    S    
C8    O6    S    
C46   H16   S    
C21   C25   A    
C43   H9    S    
C30   C33   S    
C19   C21   A    
C45   H48   S    
C6    C59   A    
C10   H2    S    
C49   H27   S    
Cu2   O11   S    
C6    C8    A    
C56   C59   A    
C50   H26   S    
C29   C35   S    
C31   C38   T    
Cu1   O9    S    
C9    N1    A    
C14   C22   A    
C13   C15   A    
C16   O10   A    
C37   C39   S    
C28   O4    S    
C48   H18   S    
C24   H12   S    
C12   O9    A    
C20   C26   A    
C44   O3    S    
C27   C37   S    
C28   C30   S    
C48   H20   S    
C18   C20   A    
C44   H11   S    
C11   N1    A    
C50   H24   S    
C51   H32   S    
C55   O5    S    
C57   H46   S    
C28   C36   S    
C49   C50   S    
C29   O14   S    
C17   C32   S    
C5    C51   S    
C52   H29   S    
C1    O1    A    
C58   C60   A    
Cu2   O7    S    
C11   H3    S    
C51   H33   S    
