data_mof_unit_40154.cif
_audit_creation_date              2012-12-10T18:05:51-0500
_audit_creation_method            fapswitch 2.2
_symmetry_space_group_name_H-M    P1
_symmetry_Int_Tables_number       1
_space_group_crystal_system       triclinic
_cell_length_a                    12.681037
_cell_length_b                    12.984199
_cell_length_c                    14.994451
_cell_angle_alpha                 92.004185
_cell_angle_beta                  102.673731
_cell_angle_gamma                 81.187012
_cell_volume                      2380.28861134

loop_
_atom_site_label
_atom_site_type_symbol
_atom_type_description
_atom_site_fract_x
_atom_site_fract_y
_atom_site_fract_z
_atom_type_partial_charge
C1    C     C_R   0.438455 0.691769 0.492456 0.840318
C2    C     C_R   0.401696 0.492191 0.074099 0.118964
C3    C     C_R   0.696108 0.505615 0.083539 -0.213428
C4    C     C_R   0.696464 0.507076 0.990977 -0.210446
C5    C     C_R   0.599194 0.503937 0.925940 0.120909
C6    C     C_R   0.500619 0.498843 0.953662 0.064748
C7    C     C_R   0.402300 0.495654 0.888705 0.114494
C8    C     C_R   0.304768 0.490566 0.916527 -0.217928
C9    C     C_R   0.304496 0.488727 0.009081 -0.211853
C10   C     C_R   0.598718 0.505458 0.833493 -0.261806
C11   C     C_R   0.501145 0.501709 0.769240 -0.062318
C12   C     C_R   0.500628 0.500810 0.672963 0.856707
C13   C     C_R   0.403239 0.497390 0.796793 -0.251567
C14   C     C_R   0.692181 0.073208 0.650167 0.550533
C15   C     C_R   0.600101 0.199921 0.533066 -0.238784
C16   C     C_R   0.301357 0.841312 0.426483 -0.194046
C17   C     C_R   0.275677 0.947336 0.406946 -0.150096
C18   C     C_R   0.351088 0.013772 0.442736 -0.124851
C19   C     C_R   0.451583 0.974891 0.501788 0.151182
C20   C     C_R   0.466422 0.872823 0.534959 0.100117
C21   C     C_R   0.536245 0.035440 0.531493 -0.035944
C22   C     C_R   0.617450 0.005601 0.611805 0.041816
C23   C     C_R   0.561415 0.308772 0.512096 0.997626
C24   C     C_R   0.621752 0.909291 0.652353 -0.197081
C25   C     C_R   0.548915 0.842511 0.613014 -0.229083
C26   C     C_R   0.542650 0.124986 0.484095 -0.107318
C27   C     C_R   0.677363 0.173400 0.614092 -0.339185
C28   C     C_R   0.398682 0.803244 0.488264 -0.111866
C29   C     C_R   0.080480 0.390542 0.339518 -0.287027
C30   C     C_R   0.801101 0.622907 0.616717 0.025954
C31   C     C_R   0.904752 0.651505 0.641087 -0.254148
C32   C     C_R   0.984501 0.609583 0.593987 -0.163829
C33   C     C_R   0.960776 0.538545 0.521608 -0.047069
C34   C     C_R   0.499423 0.498991 0.327038 0.951174
C35   C     C_R   0.853718 0.510992 0.498590 0.112863
C36   C     C_R   0.039796 0.492142 0.472141 -0.017406
C37   C     C_R   0.005707 0.437419 0.390049 0.117943
C38   C     C_R   0.898831 0.421269 0.363164 -0.396161
C39   C     C_R   0.831011 0.438915 0.425136 0.507004
C40   C     C_R   0.152029 0.494998 0.501320 -0.032522
C41   C     C_R   0.190002 0.394280 0.372949 0.010919
C42   C     C_R   0.401976 0.491599 0.166539 -0.246498
C43   C     C_R   0.499247 0.496754 0.230788 -0.067846
C44   C     C_R   0.597155 0.500864 0.203206 -0.223816
C45   C     C_R   0.598463 0.500980 0.111326 0.104891
C46   C     C_R   0.500287 0.497169 0.046367 0.063000
H1    H     H_    0.326365 0.488480 0.188228 0.159809
H2    H     H_    0.682690 0.884239 0.713367 0.185703
H3    H     H_    0.247132 0.788889 0.391316 0.160310
H4    H     H_    0.329891 0.095403 0.424594 0.130644
H5    H     H_    0.199831 0.977234 0.360477 0.143250
H6    H     H_    0.555233 0.768245 0.645918 0.152267
H7    H     H_    0.249637 0.360004 0.334605 0.156609
H8    H     H_    0.873369 0.377597 0.301140 0.168573
H9    H     H_    0.054796 0.348958 0.276428 0.143603
H10   H     H_    0.672603 0.504545 0.253011 0.178264
H11   H     H_    0.185873 0.535868 0.562148 0.118393
H12   H     H_    0.739059 0.655430 0.653250 0.125754
H13   H     H_    0.063055 0.635867 0.613818 0.132494
H14   H     H_    0.923107 0.706575 0.696135 0.145210
H15   H     H_    0.771864 0.508352 0.133318 0.147524
H16   H     H_    0.772471 0.510813 0.970260 0.145106
H17   H     H_    0.674304 0.508622 0.811780 0.160330
H18   H     H_    0.327414 0.495256 0.746869 0.159443
H19   H     H_    0.228958 0.488037 0.866784 0.146163
H20   H     H_    0.228503 0.484939 0.029807 0.145547
H21   H     H_    0.723007 0.231354 0.651290 0.179034
N1    N     N_R   0.222190 0.444670 0.452360 -0.108439
N2    N     N_R   0.776970 0.554790 0.547140 -0.115850
O1    O     O_R   0.366740 0.627160 0.477250 -0.620229
O2    O     O_R   0.544830 0.662520 0.507680 -0.609112
O3    O     O_R   0.410940 0.482340 0.616930 -0.631669
O4    O     O_R   0.589030 0.517700 0.647360 -0.645858
O5    O     O_R   0.455170 0.337480 0.492320 -0.592404
O6    O     O_R   0.633260 0.372840 0.522750 -0.566589
O7    O     O_R   0.410970 0.482300 0.352640 -0.623822
O8    O     O_R   0.589060 0.517660 0.383070 -0.574072
Zn1   Zn    Zn3+2 0.381090 0.476390 0.479680 0.954732
Zn2   Zn    Zn3+2 0.618910 0.523610 0.520320 0.977046
O9    O     O_3   0.768389 0.047263 0.730368 -0.610225
C47   C     C_3   0.873012 0.027430 0.710013 -0.344657
H22   H     H_    0.877861 0.963637 0.658742 0.160228
H23   H     H_    0.933628 0.001576 0.773435 0.200186
H24   H     H_    0.896290 0.099052 0.685809 0.165176
C48   C     C_2   0.507087 0.132238 0.381998 0.871366
O10   O     O_2   0.486607 0.216545 0.343187 -0.643226
O11   O     O_R   0.502644 0.040900 0.329814 -0.793777
H25   H     H_    0.478852 0.055201 0.261756 0.345716
O12   O     O_3   0.748403 0.379411 0.414946 -0.558583
C49   C     C_3   0.793153 0.272530 0.428520 -0.264614
H26   H     H_    0.838393 0.258230 0.500496 0.151361
H27   H     H_    0.846424 0.242450 0.380775 0.142189
H28   H     H_    0.725513 0.225595 0.414149 0.193852

loop_
_geom_bond_atom_site_label_1
_geom_bond_atom_site_label_2
_ccdc_geom_bond_type
C16   C28   A    
O11   H25   S    
O1    Zn1   S    
C10   H17   S    
C21   C26   A    
C47   H24   S    
O2    Zn2   S    
C47   H22   S    
C7    C8    A    
C48   O10   D    
C2    C46   A    
C1    O2    A    
C5    C6    A    
C36   C37   A    
C19   C21   A    
O7    Zn1   S    
C34   O8    A    
C30   C31   A    
C20   C25   A    
C3    H15   S    
C4    H16   S    
C33   C36   A    
C18   C19   A    
C9    H20   S    
O3    Zn1   S    
C15   C27   A    
C19   C20   A    
C16   C17   A    
C1    C28   S    
C14   O9    S    
C14   C27   A    
C15   C23   S    
C12   O3    A    
C8    H19   S    
C12   O4    A    
C17   H5    S    
C47   H23   S    
C41   N1    A    
O8    Zn2   S    
N1    Zn1   S    
C48   O11   S    
C24   H2    S    
C36   C40   A    
C24   C25   A    
C8    C9    A    
C15   C26   A    
C20   C28   A    
C45   C46   A    
C3    C45   A    
C31   H14   S    
C35   C39   A    
C43   C44   A    
C37   C38   A    
C44   H10   S    
C49   H27   S    
C31   C32   A    
C38   H8    S    
C7    C13   A    
C17   C18   A    
O4    Zn2   S    
C16   H3    S    
C41   H7    S    
O5    Zn1   S    
C22   C24   A    
N2    Zn2   S    
C42   C43   A    
C23   O5    A    
C3    C4    A    
C30   N2    A    
C44   C45   A    
C18   H4    S    
C49   H28   S    
C40   H11   S    
C6    C46   A    
C29   C41   A    
C34   C43   S    
C23   O6    A    
O9    C47   S    
C11   C12   S    
C6    C7    A    
C29   H9    S    
C1    O1    A    
C32   C33   A    
C14   C22   A    
C25   H6    S    
C5    C10   A    
C11   C13   A    
C49   H26   S    
C38   C39   A    
C13   H18   S    
C2    C42   A    
C26   C48   S    
C30   H12   S    
C33   C35   A    
C42   H1    S    
C27   H21   S    
C10   C11   A    
C4    C5    A    
C35   N2    A    
C40   N1    A    
C29   C37   A    
C32   H13   S    
O12   C49   S    
C21   C22   A    
C2    C9    A    
O6    Zn2   S    
C39   O12   S    
C34   O7    A    
