data_mof_unit_29636.cif
_audit_creation_date              2012-12-11T16:49:26-0500
_audit_creation_method            fapswitch 2.2
_symmetry_space_group_name_H-M    P1
_symmetry_Int_Tables_number       1
_space_group_crystal_system       triclinic
_cell_length_a                    6.963421
_cell_length_b                    26.001198
_cell_length_c                    28.916232
_cell_angle_alpha                 89.898394
_cell_angle_beta                  90.753297
_cell_angle_gamma                 90.280148
_cell_volume                      5234.97183592

loop_
_atom_site_label
_atom_site_type_symbol
_atom_type_description
_atom_site_fract_x
_atom_site_fract_y
_atom_site_fract_z
_atom_type_partial_charge
O1    O     O_R   0.601010 0.796750 0.202520 -0.529141
O2    O     O_R   0.398990 0.203250 0.797480 -0.539903
O3    O     O_R   0.271260 0.802890 0.297300 -0.531419
O4    O     O_R   0.728740 0.197110 0.702700 -0.521617
O5    O     O_R   0.100940 0.703200 0.297630 -0.534209
O6    O     O_R   0.899060 0.296800 0.702370 -0.533096
C1    C     C_R   0.442941 0.816786 0.312465 0.749722
C2    C     C_R   0.558185 0.185609 0.685982 0.707958
O7    O     O_R   0.271300 0.802890 0.202860 -0.532630
O8    O     O_R   0.728700 0.197110 0.797140 -0.526767
O9    O     O_R   0.100980 0.703210 0.202520 -0.539181
O10   O     O_R   0.899020 0.296790 0.797480 -0.535509
C3    C     C_R   0.439325 0.815945 0.187278 0.707236
C4    C     C_R   0.560606 0.184141 0.812759 0.707329
O11   O     O_R   0.600970 0.796740 0.297640 -0.531721
O12   O     O_R   0.399030 0.203260 0.702360 -0.539355
O13   O     O_3   0.434500 0.717270 0.250080 -0.367766
O14   O     O_3   0.565500 0.282730 0.749920 -0.375394
V1    V     V_3+5 0.159650 0.756040 0.250080 1.540791
V2    V     V_3+5 0.840350 0.243960 0.749920 1.548167
O15   O     O_R   0.771260 0.697060 0.202850 -0.532105
O16   O     O_R   0.228740 0.302940 0.797150 -0.534832
C5    C     C_R   0.938847 0.683960 0.187295 0.689632
C6    C     C_R   0.061147 0.316080 0.812658 0.692961
O17   O     O_R   0.771230 0.697050 0.297300 -0.528550
O18   O     O_R   0.228770 0.302950 0.702700 -0.535952
C7    C     C_R   0.940800 0.684837 0.313661 0.732507
C8    C     C_R   0.058121 0.317150 0.687579 0.772930
V3    V     V_3+5 0.659640 0.743910 0.250080 1.561138
V4    V     V_3+5 0.340360 0.256090 0.749920 1.515000
O19   O     O_3   0.934660 0.782680 0.250080 -0.360743
O20   O     O_3   0.065340 0.217320 0.749920 -0.360885
C9    C     C_R   0.110871 0.642315 0.382784 -0.105350
C10   C     C_R   0.866167 0.367226 0.626007 -0.001203
C11   C     C_R   0.118392 0.602549 0.415764 -0.142516
C12   C     C_R   0.860976 0.398621 0.586379 -0.167143
H1    H     H_    0.239723 0.600954 0.439617 0.188976
H2    H     H_    0.725699 0.403769 0.568137 0.209492
C13   C     C_R   0.967463 0.566929 0.420414 -0.079212
C14   C     C_R   0.024105 0.426151 0.572169 -0.080312
C15   C     C_R   0.808355 0.570595 0.389758 0.426005
C16   C     C_R   0.192925 0.421834 0.599611 0.419703
C17   C     C_R   0.803455 0.608995 0.355586 -0.091140
C18   C     C_R   0.199262 0.387512 0.637112 -0.110160
H3    H     H_    0.682383 0.609927 0.331684 0.181049
H4    H     H_    0.324385 0.387294 0.658516 0.169218
C19   C     C_R   0.952312 0.645473 0.351480 -0.198834
C20   C     C_R   0.041433 0.357245 0.649571 -0.164770
N1    N     N_R   0.820849 0.512059 0.481192 -0.180528
N2    N     N_R   0.167170 0.477049 0.508061 -0.176463
N3    N     N_R   0.835041 0.479545 0.516827 -0.217797
N4    N     N_R   0.153184 0.509637 0.472531 -0.215619
C21   C     C_R   0.008868 0.461627 0.531418 0.557594
C22   C     C_R   0.979703 0.527900 0.458251 0.550170
C23   C     C_R   0.095903 0.648235 0.117096 -0.122457
C24   C     C_R   0.904513 0.352046 0.882809 -0.120630
H5    H     H_    0.201554 0.678867 0.119461 0.152343
H6    H     H_    0.798726 0.321438 0.880552 0.153112
C25   C     C_R   0.110530 0.612553 0.081104 -0.106477
C26   C     C_R   0.890452 0.387800 0.918755 -0.105939
H7    H     H_    0.227075 0.616274 0.056862 0.133915
H8    H     H_    0.774146 0.384164 0.943073 0.134558
C27   C     C_R   0.977347 0.572191 0.076558 0.123130
C28   C     C_R   0.023951 0.428108 0.923179 0.123022
C29   C     C_R   0.827584 0.568593 0.108431 -0.081252
C30   C     C_R   0.173379 0.431605 0.891200 -0.081075
H9    H     H_    0.722033 0.538017 0.104804 0.159610
H10   H     H_    0.279126 0.462147 0.894711 0.159310
C31   C     C_R   0.810368 0.604383 0.144574 -0.035227
C32   C     C_R   0.189933 0.395755 0.855086 -0.033193
C33   C     C_R   0.946375 0.645056 0.149334 -0.135125
C34   C     C_R   0.053752 0.355110 0.850496 -0.132348
C35   C     C_R   0.999466 0.481180 0.045359 0.423173
C36   C     C_R   0.002554 0.519147 0.954372 0.423333
C37   C     C_R   0.008194 0.447231 0.007783 -0.236554
C38   C     C_R   0.993827 0.553099 0.991950 -0.237236
H11   H     H_    0.016542 0.406255 0.014352 0.184252
H12   H     H_    0.985420 0.594074 0.985383 0.183440
C39   C     C_R   0.010693 0.465537 0.962036 -0.080650
C40   C     C_R   0.991217 0.534788 0.037696 -0.080980
C41   C     C_R   0.380869 0.147946 0.615891 -0.154490
C42   C     C_R   0.642111 0.866581 0.373144 -0.037580
C43   C     C_R   0.363144 0.109327 0.581420 -0.142599
C44   C     C_R   0.651735 0.898540 0.412923 -0.047211
C45   C     C_R   0.509766 0.072156 0.576859 0.000155
C46   C     C_R   0.486986 0.926539 0.425625 -0.011778
C47   C     C_R   0.665844 0.072564 0.607988 -0.067967
C48   C     C_R   0.319322 0.921924 0.398869 -0.145524
H13   H     H_    0.778335 0.044184 0.605102 0.136383
H14   H     H_    0.196378 0.945602 0.406251 0.168978
C49   C     C_R   0.681059 0.109762 0.642603 -0.081829
C50   C     C_R   0.307205 0.886749 0.362655 -0.088173
H15   H     H_    0.802815 0.108342 0.666262 0.150628
H16   H     H_    0.178027 0.885261 0.342690 0.150368
C51   C     C_R   0.540790 0.147900 0.647193 -0.124556
C52   C     C_R   0.463654 0.856613 0.350254 -0.108261
C53   C     C_R   0.520488 0.981398 0.547020 -0.140745
C54   C     C_R   0.478519 0.016288 0.455842 -0.075436
H17   H     H_    0.534948 0.967374 0.582174 0.124647
H18   H     H_    0.464394 0.030291 0.420665 0.131232
C55   C     C_R   0.511351 0.946086 0.510505 -0.085940
C56   C     C_R   0.489318 0.051519 0.492204 -0.052436
H19   H     H_    0.521318 0.905324 0.517866 0.125047
H20   H     H_    0.482883 0.092248 0.484473 0.140800
C57   C     C_R   0.489808 0.963368 0.464695 0.113573
C58   C     C_R   0.507590 0.034435 0.538201 0.066780
C59   C     C_R   0.400120 0.149044 0.882742 -0.163738
C60   C     C_R   0.603086 0.852475 0.118326 -0.135926
H21   H     H_    0.295172 0.179497 0.879348 0.181424
H22   H     H_    0.710208 0.822629 0.122134 0.180340
C61   C     C_R   0.382847 0.114095 0.919381 0.421445
C62   C     C_R   0.620881 0.887681 0.081904 0.412337
C63   C     C_R   0.519281 0.074672 0.925388 -0.016109
C64   C     C_R   0.482119 0.926439 0.075367 -0.017208
C65   C     C_R   0.670721 0.071141 0.894025 -0.187380
C66   C     C_R   0.327500 0.928896 0.105925 -0.182616
H23   H     H_    0.775392 0.040655 0.898150 0.150407
H24   H     H_    0.220810 0.958810 0.101373 0.153186
C67   C     C_R   0.688410 0.105971 0.857126 0.013999
C68   C     C_R   0.308239 0.893549 0.142363 0.013747
C69   C     C_R   0.551654 0.145825 0.851166 -0.199289
C70   C     C_R   0.448132 0.854526 0.149029 -0.189217
C71   C     C_R   0.666097 0.030474 0.994346 -0.132380
C72   C     C_R   0.335295 0.970859 0.006493 -0.134303
H25   H     H_    0.794966 0.053442 0.990200 0.168838
H26   H     H_    0.206462 0.947862 0.010571 0.169266
C73   C     C_R   0.657915 0.994703 0.030529 -0.069029
C74   C     C_R   0.343344 0.006698 0.970370 -0.071538
H27   H     H_    0.779907 0.991107 0.053914 0.149585
H28   H     H_    0.221228 0.010405 0.947034 0.147390
C75   C     C_R   0.492984 0.964217 0.036745 0.122172
C76   C     C_R   0.508423 0.037079 0.964106 0.121109
C77   C     C_2   0.265913 0.681622 0.384408 0.835828
O21   O     O_2   0.433476 0.668173 0.383956 -0.531135
O22   O     O_R   0.224080 0.733882 0.388448 -0.628146
H29   H     H_    0.082505 0.740207 0.393344 0.299980
C78   C     C_2   0.684267 0.355104 0.648109 0.809880
O23   O     O_2   0.567575 0.326591 0.629306 -0.563273
O24   O     O_R   0.652014 0.375820 0.691993 -0.645894
H30   H     H_    0.533105 0.362127 0.707407 0.301326
C79   C     C_2   0.233598 0.189020 0.618056 0.864031
O25   O     O_2   0.069865 0.178300 0.629252 -0.538982
O26   O     O_R   0.279534 0.239852 0.607007 -0.619983
H31   H     H_    0.416233 0.243561 0.595896 0.301096
C80   C     C_2   0.819558 0.855352 0.348372 0.760956
O27   O     O_2   0.925155 0.820716 0.361308 -0.540613
O28   O     O_R   0.853047 0.881819 0.307009 -0.671495
H32   H     H_    0.964829 0.867939 0.288966 0.296972
C81   C     C_2   0.190700 0.107660 0.550207 0.832123
O29   O     O_2   0.143547 0.146000 0.528512 -0.499716
O30   O     O_R   0.082043 0.062653 0.544820 -0.631184
H33   H     H_    0.125382 0.033981 0.566243 0.259366
C82   C     C_2   0.835253 0.904381 0.439490 0.734728
O31   O     O_2   0.886620 0.946641 0.453611 -0.552087
O32   O     O_R   0.947772 0.861180 0.449057 -0.630733
H34   H     H_    0.067605 0.869835 0.467821 0.309796
Cl1   Cl    Cl    0.192766 0.122711 0.958191 -0.644870
Cl2   Cl    Cl    0.814510 0.880016 0.043940 -0.653079
C83   C     C_2   0.846844 0.097828 0.824658 0.776783
O33   O     O_2   0.839888 0.061582 0.797820 -0.558488
O34   O     O_R   0.007060 0.130337 0.825902 -0.644818
H35   H     H_    0.107216 0.120320 0.802476 0.293719
C84   C     C_2   0.144343 0.900490 0.173520 0.771101
O35   O     O_2   0.009504 0.870243 0.172318 -0.546109
O36   O     O_R   0.140579 0.943117 0.202824 -0.656955
H36   H     H_    0.020169 0.944182 0.222129 0.309905
Cl3   Cl    Cl    0.615141 0.526641 0.391097 -0.523134
Cl4   Cl    Cl    0.395008 0.461776 0.591775 -0.562433
C85   C     C_2   0.652365 0.596659 0.177351 0.789104
O37   O     O_2   0.659239 0.560974 0.204889 -0.511772
O38   O     O_R   0.492436 0.628858 0.175567 -0.658448
H37   H     H_    0.392386 0.619155 0.199243 0.304634
C86   C     C_2   0.347423 0.403340 0.822141 0.787355
O39   O     O_2   0.338741 0.438418 0.794008 -0.510420
O40   O     O_R   0.508626 0.371623 0.824343 -0.658964
H38   H     H_    0.608201 0.381182 0.800506 0.311510
Cl5   Cl    Cl    0.009351 0.455021 0.101559 -0.541915
Cl6   Cl    Cl    0.992620 0.545303 0.898172 -0.545936

loop_
_geom_bond_atom_site_label_1
_geom_bond_atom_site_label_2
_ccdc_geom_bond_type
C30   H10   S    
O38   H37   S    
C27   C29   A    
O36   H36   S    
C63   C76   S    
C23   C25   A    
C71   C76   A    
C15   C17   A    
C85   O37   D    
C84   O35   D    
O28   H32   S    
O4    C2    A    
V1    O19   S    
N1    N3    A    
C62   C64   A    
O34   H35   S    
O22   H29   S    
C13   C15   A    
C86   O39   D    
C1    C52   S    
C78   O24   S    
O9    V1    S    
C54   C57   A    
C36   C38   A    
C11   H1    S    
C38   H12   S    
O3    C1    A    
C81   O30   S    
C80   O27   D    
C41   C51   A    
C46   C48   A    
C71   H25   S    
C13   C22   S    
C29   H9    S    
C59   C61   A    
O12   V4    S    
N1    C22   A    
C50   C52   A    
O13   V3    S    
C26   H8    S    
C64   C75   S    
C31   C33   A    
O7    C3    A    
C68   C84   S    
C80   O28   S    
O5    C7    A    
O7    V1    S    
O6    C8    A    
C48   C50   A    
C16   Cl4   S    
C24   C34   A    
N2    N4    A    
O30   H33   S    
C83   O34   S    
O3    V1    S    
O14   V4    S    
C24   H6    S    
C82   O32   S    
C10   C12   A    
C72   C74   A    
C35   Cl5   S    
C45   C47   A    
C2    O12   A    
C4    C69   S    
C55   C57   A    
C35   C37   A    
C32   C86   S    
C2    C51   S    
C16   C18   A    
V2    O20   S    
C74   C76   A    
C50   H16   S    
O18   C8    A    
C53   H17   S    
N4    C22   A    
O11   V3    S    
C27   C40   S    
C67   C69   A    
C6    C34   S    
O17   V3    S    
C25   H7    S    
N2    C21   A    
C42   C52   A    
C47   C49   A    
C5    C33   S    
C12   C14   A    
C18   C20   A    
O8    C4    A    
O8    V2    S    
C1    O11   A    
C18   H4    S    
C65   H23   S    
C54   C56   A    
O15   V3    S    
C66   C68   A    
C72   C75   A    
N3    C21   A    
C28   C30   A    
C11   C13   A    
C73   H27   S    
C59   H21   S    
C9    C77   S    
C49   H15   S    
C37   H11   S    
C44   C82   S    
C71   C73   A    
C83   O33   D    
C36   Cl6   S    
C53   C55   A    
C41   C79   S    
O10   V2    S    
O1    V3    S    
C61   C63   A    
C23   H5    S    
C31   C85   S    
C56   H20   S    
C17   H3    S    
C86   O40   S    
C62   Cl2   S    
C66   H24   S    
C53   C58   A    
C67   C83   S    
C43   C45   A    
C48   H14   S    
O18   V4    S    
C65   C67   A    
C36   C39   A    
O15   C5    A    
C77   O21   D    
C9    C19   A    
C28   C39   S    
O16   C6    A    
C46   C57   S    
O1    C3    A    
C59   C69   A    
C45   C58   S    
C42   C80   S    
C68   C70   A    
C72   H26   S    
C85   O38   S    
C7    C19   S    
C8    C20   S    
O16   V4    S    
C84   O36   S    
C25   C27   A    
C38   C40   A    
C60   C70   A    
C14   C16   A    
C74   H28   S    
C41   C43   A    
C64   C66   A    
O24   H30   S    
O5    V1    S    
O17   C7    A    
O6    V2    S    
C78   O23   D    
O10   C6    A    
C10   C78   S    
C42   C44   A    
O2    V4    S    
C26   C28   A    
C79   O26   S    
C61   Cl1   S    
V3    O19   S    
O40   H38   S    
C79   O25   D    
C24   C26   A    
C12   H2    S    
V4    O20   S    
C3    C70   S    
C9    C11   A    
C30   C32   A    
C17   C19   A    
C29   C31   A    
C15   Cl3   S    
O9    C5    A    
O13   V1    S    
C35   C40   A    
C60   H22   S    
C56   C58   A    
O14   V2    S    
O2    C4    A    
C54   H18   S    
C73   C75   A    
C49   C51   A    
O4    V2    S    
C60   C62   A    
C10   C20   A    
C55   H19   S    
C14   C21   S    
O32   H34   S    
C77   O22   S    
C47   H13   S    
C44   C46   A    
C32   C34   A    
C63   C65   A    
C82   O31   D    
C81   O29   D    
C37   C39   A    
C23   C33   A    
O26   H31   S    
C43   C81   S    
