data_mof_unit_16897.cif
_audit_creation_date              2012-10-26T20:32:02-0400
_audit_creation_method            fapswitch 2.2
_symmetry_space_group_name_H-M    P1
_symmetry_Int_Tables_number       1
_space_group_crystal_system       triclinic
_cell_length_a                    10.686559
_cell_length_b                    10.872985
_cell_length_c                    9.569637
_cell_angle_alpha                 90.483806
_cell_angle_beta                  89.316828
_cell_angle_gamma                 90.113152
_cell_volume                      1111.82138201

loop_
_atom_site_label
_atom_site_type_symbol
_atom_type_description
_atom_site_fract_x
_atom_site_fract_y
_atom_site_fract_z
_atom_type_partial_charge
C1    C     C_R   0.495880 0.262736 0.499777 0.570672
C2    C     C_R   0.474873 0.939182 0.623599 -0.014444
C3    C     C_3   0.548884 0.932429 0.754368 -0.240538
C4    C     C_R   0.259442 0.498416 0.501236 0.579404
C5    C     C_3   0.551489 0.072365 0.755976 -0.016051
C6    C     C_R   0.603005 0.540675 0.072508 0.184633
C7    C     C_R   0.403444 0.450784 0.074984 0.010697
C8    C     C_R   0.403112 0.451383 0.926525 0.006361
C9    C     C_R   0.604156 0.535581 0.924374 0.151301
C10   C     C_3   0.662791 0.656893 0.908170 -0.246832
C11   C     C_3   0.649859 0.671395 0.063992 -0.054794
C12   C     C_3   0.962017 0.505669 0.370089 -0.076366
C13   C     C_R   0.491278 0.737759 0.499925 0.573580
C14   C     C_R   0.740667 0.495198 0.499493 0.577401
C15   C     C_3   0.038746 0.478276 0.635118 -0.145676
C16   C     C_3   0.958723 0.384125 0.552835 -0.108424
C17   C     C_3   0.877781 0.490109 0.499618 0.003481
C18   C     C_3   0.955106 0.583693 0.582851 -0.113472
C19   C     C_3   0.040743 0.599738 0.453501 0.100376
C20   C     C_3   0.044944 0.400594 0.423925 0.059966
C21   C     C_3   0.122730 0.494878 0.505082 0.029857
C22   C     C_R   0.478842 0.064948 0.623972 0.027131
C23   C     C_R   0.478301 0.130677 0.500047 0.009139
C24   C     C_R   0.447650 0.066787 0.377247 -0.098669
C25   C     C_R   0.439781 0.937978 0.376122 0.095763
C26   C     C_R   0.470152 0.871208 0.499086 0.030434
Cu1   Cu    Cu3+1 0.499990 0.499980 0.640670 0.980297
Cu2   Cu    Cu3+1 0.500010 0.500020 0.359330 1.027341
H1    H     H_    0.925722 0.294037 0.591153 0.184913
H2    H     H_    0.915744 0.659367 0.648357 0.146450
H3    H     H_    0.933575 0.506202 0.259476 0.176094
H4    H     H_    0.431166 0.116431 0.281551 0.169778
H5    H     H_    0.492721 0.894835 0.842751 0.149544
H6    H     H_    0.642408 0.890587 0.735398 0.167252
H7    H     H_    0.495601 0.113053 0.843475 0.153033
H8    H     H_    0.324389 0.412072 0.130672 0.153731
H9    H     H_    0.323561 0.413606 0.872035 0.128647
H10   H     H_    0.760433 0.649243 0.867813 0.155349
H11   H     H_    0.601956 0.718544 0.850223 0.144083
H12   H     H_    0.577075 0.738208 0.092210 0.175399
H13   H     H_    0.071765 0.467476 0.743876 0.148390
I1    I     I_    0.737774 0.142982 0.735092 -0.341862
I2    I     I_    0.822116 0.721150 0.155971 -0.309955
I3    I     I_    0.096956 0.782164 0.404675 -0.221879
I4    I     I_    0.114988 0.250590 0.300354 -0.321736
I5    I     I_    0.371400 0.863057 0.186147 -0.313898
N1    N     N_R   0.500800 0.500930 0.147930 -0.241847
N2    N     N_R   0.500800 0.500890 0.852020 -0.239975
O1    O     O_R   0.500000 0.319640 0.618810 -0.487012
O2    O     O_R   0.500010 0.319680 0.381230 -0.506956
O3    O     O_R   0.316850 0.499950 0.618770 -0.518323
O4    O     O_R   0.316860 0.499990 0.381190 -0.486676
O5    O     O_R   0.499990 0.680320 0.618770 -0.517076
O6    O     O_R   0.500000 0.680360 0.381190 -0.467043
O7    O     O_R   0.683140 0.500010 0.618810 -0.498485
O8    O     O_R   0.683150 0.500050 0.381230 -0.482511

loop_
_geom_bond_atom_site_label_1
_geom_bond_atom_site_label_2
_ccdc_geom_bond_type
Cu1   N2    S    
C12   C17   S    
C15   C18   S    
C14   O8    A    
C23   C24   A    
Cu1   O5    S    
Cu2   N1    S    
C2    C22   A    
C18   H2    S    
C1    O2    A    
C9    C10   S    
C20   I4    S    
C16   C20   S    
C10   H10   S    
C12   C20   S    
C6    C9    A    
C24   H4    S    
C2    C3    S    
Cu2   O8    S    
C7    C8    A    
C2    C26   A    
C25   C26   A    
C8    N2    A    
C24   C25   A    
C11   I2    S    
C4    C21   S    
Cu2   O4    S    
C14   C17   S    
C20   C21   S    
C1    O1    A    
C4    O4    A    
C5    H7    S    
C12   C19   S    
C6    N1    A    
C19   C21   S    
Cu1   O3    S    
C14   O7    A    
C1    C23   S    
C13   O5    A    
C10   C11   S    
C12   H3    S    
C11   H12   S    
Cu1   O7    S    
C13   C26   S    
C16   C17   S    
C8    H9    S    
C3    H5    S    
C4    O3    A    
C15   C16   S    
C9    N2    A    
C15   C21   S    
C19   I3    S    
C15   H13   S    
C5    I1    S    
C17   C18   S    
C13   O6    A    
C7    H8    S    
C6    C11   S    
Cu2   O6    S    
C22   C23   A    
C18   C19   S    
C3    H6    S    
C3    C5    S    
C16   H1    S    
Cu2   O2    S    
C25   I5    S    
C5    C22   S    
Cu1   O1    S    
C10   H11   S    
Cu1   Cu2   S    
C7    N1    A    
