data_mof_unit_18072.cif
_audit_creation_date              2013-03-05T15:49:11-0500
_audit_creation_method            fapswitch 2.2
_symmetry_space_group_name_H-M    P1
_symmetry_Int_Tables_number       1
_space_group_crystal_system       triclinic
_cell_length_a                    17.543667
_cell_length_b                    24.448585
_cell_length_c                    14.910983
_cell_angle_alpha                 89.62459
_cell_angle_beta                  125.486319
_cell_angle_gamma                 90.581695
_cell_volume                      5207.36281729

loop_
_atom_site_label
_atom_site_type_symbol
_atom_site_description
_atom_site_fract_x
_atom_site_fract_y
_atom_site_fract_z
_atom_type_partial_charge
C1    C     C_R   0.309990 0.123264 0.908899 -0.153509
C2    C     C_R   0.308058 0.879836 0.910399 -0.153541
C3    C     C_R   0.810014 0.623260 0.909029 -0.176019
C4    C     C_R   0.808772 0.378058 0.910239 -0.163900
H1    H     H_    0.252707 0.129795 0.823884 0.115428
H2    H     H_    0.252402 0.871913 0.825579 0.101042
H3    H     H_    0.752646 0.629780 0.824068 0.123402
H4    H     H_    0.752492 0.369426 0.825764 0.103271
N1    N     N_R   0.392450 0.103580 0.942190 -0.064521
N2    N     N_R   0.392450 0.896420 0.942190 -0.060511
N3    N     N_R   0.892450 0.603580 0.942190 -0.061890
N4    N     N_R   0.892450 0.396420 0.942190 -0.056156
C5    C     C_R   0.401591 0.879537 0.094622 -0.128222
C6    C     C_R   0.402932 0.122370 0.093934 -0.086979
C7    C     C_R   0.902329 0.378417 0.094768 -0.116986
C8    C     C_R   0.903103 0.622483 0.094046 -0.087432
H5    H     H_    0.432802 0.872074 0.180218 0.163693
H6    H     H_    0.431004 0.126860 0.179789 0.131271
H7    H     H_    0.932029 0.372688 0.180484 0.148950
H8    H     H_    0.931294 0.627093 0.179895 0.131369
N5    N     N_R   0.450490 0.896000 0.057360 -0.053491
N6    N     N_R   0.450490 0.104000 0.057360 -0.050569
N7    N     N_R   0.950490 0.396000 0.057360 -0.046641
N8    N     N_R   0.950490 0.604000 0.057360 -0.048652
C9    C     C_R   0.552874 0.045307 0.306442 -0.185655
C10   C     C_R   0.552377 0.954657 0.306560 -0.147073
C11   C     C_R   0.050595 0.545001 0.306008 -0.188453
C12   C     C_R   0.051262 0.454210 0.305403 -0.189777
H9    H     H_    0.565692 0.087628 0.331553 0.105157
H10   H     H_    0.564591 0.912331 0.331537 0.091202
H11   H     H_    0.062972 0.587132 0.332714 0.111052
H12   H     H_    0.066446 0.411987 0.330973 0.094890
N9    N     N_R   0.525490 0.028390 0.207550 -0.035922
N10   N     N_R   0.525490 0.971610 0.207550 -0.037371
N11   N     N_R   0.025490 0.528390 0.207550 -0.036416
N12   N     N_R   0.025490 0.471610 0.207550 -0.035699
C13   C     C_R   0.244128 0.953447 0.696302 -0.137902
C14   C     C_R   0.243227 0.044883 0.694700 -0.078885
C15   C     C_R   0.743258 0.453301 0.697518 -0.169548
C16   C     C_R   0.742034 0.544844 0.695644 -0.098058
H13   H     H_    0.230424 0.911260 0.670281 0.141279
H14   H     H_    0.225926 0.086661 0.665944 0.080092
H15   H     H_    0.730971 0.411203 0.671317 0.156471
H16   H     H_    0.724793 0.586550 0.666390 0.097919
N13   N     N_R   0.317450 0.971190 0.792000 -0.048678
N14   N     N_R   0.317450 0.028810 0.792000 -0.045625
N15   N     N_R   0.817450 0.471190 0.792000 -0.049879
N16   N     N_R   0.817450 0.528810 0.792000 -0.048906
C17   C     C_R   0.317121 0.139048 0.002942 0.086864
C18   C     C_R   0.310850 0.868668 0.004719 0.123198
C19   C     C_R   0.817311 0.639128 0.003141 0.079662
C20   C     C_R   0.812851 0.366119 0.004818 0.070125
C21   C     C_R   0.573231 0.000003 0.371733 0.074016
C22   C     C_R   0.068583 0.499242 0.369492 0.093270
C23   C     C_R   0.198018 0.998532 0.635218 0.134150
C24   C     C_R   0.695708 0.498376 0.637404 0.120568
C25   C     C_R   0.525015 0.045807 0.758197 -0.110130
C26   C     C_R   0.525871 0.955044 0.759656 -0.092459
C27   C     C_R   0.024997 0.545535 0.757650 -0.120727
C28   C     C_R   0.028281 0.454895 0.763532 -0.063275
H17   H     H_    0.531834 0.088001 0.745900 0.213370
H18   H     H_    0.536837 0.913047 0.752665 0.201562
H19   H     H_    0.029832 0.587496 0.740558 0.208768
H20   H     H_    0.045594 0.413201 0.765682 0.197344
N17   N     N_R   0.473900 0.028390 0.792280 -0.065993
N18   N     N_R   0.473900 0.971610 0.792280 -0.068588
N19   N     N_R   0.973900 0.528390 0.792280 -0.063846
N20   N     N_R   0.973900 0.471610 0.792280 -0.069135
C29   C     C_R   0.770756 0.954774 0.270158 0.550024
C30   C     C_R   0.770220 0.046528 0.269534 0.564671
C31   C     C_R   0.270436 0.454469 0.266430 0.552185
C32   C     C_R   0.270391 0.546265 0.264180 0.552290
N21   N     N_R   0.682310 0.971180 0.208170 -0.130448
N22   N     N_R   0.682310 0.028820 0.208170 -0.131468
N23   N     N_R   0.182310 0.471180 0.208170 -0.130742
N24   N     N_R   0.182310 0.528820 0.208170 -0.130315
C33   C     C_R   0.646175 0.153205 0.088750 -0.205549
C34   C     C_R   0.650594 0.849114 0.092010 -0.196726
C35   C     C_R   0.146231 0.653294 0.088200 -0.204061
C36   C     C_R   0.150600 0.349095 0.092009 -0.194999
H21   H     H_    0.688550 0.166484 0.172854 0.187284
H22   H     H_    0.690341 0.835455 0.175993 0.187492
H23   H     H_    0.188062 0.667078 0.172149 0.182597
H24   H     H_    0.190467 0.335386 0.175914 0.187781
N25   N     N_R   0.606470 0.103570 0.057210 -0.063856
N26   N     N_R   0.606470 0.896430 0.057210 -0.067874
N27   N     N_R   0.106470 0.603570 0.057210 -0.063081
N28   N     N_R   0.106470 0.396430 0.057210 -0.069622
C37   C     C_R   0.557692 0.847349 0.910072 0.585381
C38   C     C_R   0.553079 0.153203 0.907343 0.639478
C39   C     C_R   0.057243 0.347129 0.910280 0.570933
C40   C     C_R   0.053077 0.652896 0.906546 0.655339
N29   N     N_R   0.549740 0.896000 0.943240 -0.110499
N30   N     N_R   0.549740 0.104000 0.943240 -0.113571
N31   N     N_R   0.049740 0.396000 0.943240 -0.114777
N32   N     N_R   0.049740 0.604000 0.943240 -0.113014
Ni1   Ni    Ni4+2 0.433780 0.065390 0.868430 0.213427
Ni2   Ni    Ni4+2 0.433780 0.934610 0.868430 0.211702
Ni3   Ni    Ni4+2 0.933780 0.565390 0.868430 0.208598
Ni4   Ni    Ni4+2 0.933780 0.434610 0.868430 0.209954
Ni5   Ni    Ni4+2 0.565800 0.934190 0.131570 0.198504
Ni6   Ni    Ni4+2 0.565800 0.065810 0.131570 0.204967
Ni7   Ni    Ni4+2 0.065800 0.434190 0.131570 0.199743
Ni8   Ni    Ni4+2 0.065800 0.565810 0.131570 0.204181
C41   C     C_R   0.559054 0.000599 0.735445 0.144209
C42   C     C_R   0.059199 0.499866 0.736097 0.136434
C43   C     C_R   0.826604 0.001160 0.305234 -0.232832
C44   C     C_R   0.326425 0.500657 0.297660 -0.225334
C45   C     C_R   0.613363 0.185937 0.996403 -0.105913
C46   C     C_R   0.624372 0.818072 0.001523 -0.029442
C47   C     C_R   0.113910 0.685635 0.995235 -0.107500
C48   C     C_R   0.124255 0.317993 0.001641 -0.023824
C49   C     C_3   0.042972 0.948313 0.473953 0.626798
C50   C     C_3   0.030209 0.017310 0.553814 0.587089
C51   C     C_3   0.538794 0.447334 0.484586 0.637650
C52   C     C_3   0.527374 0.524906 0.543973 0.594892
C53   C     C_3   0.969816 0.967109 0.492231 -0.408428
C54   C     C_3   0.463967 0.474463 0.491992 -0.441438
H25   H     H_    0.933535 0.941717 0.518765 0.161687
H26   H     H_    0.422687 0.454860 0.518288 0.153236
C55   C     C_3   0.926005 0.001436 0.386103 0.134472
C56   C     C_3   0.425744 0.500710 0.379259 0.139482
C57   C     C_3   0.998192 0.981352 0.366520 -0.180431
C58   C     C_3   0.986441 0.052075 0.449598 -0.194322
C59   C     C_3   0.499312 0.472353 0.370707 -0.177529
C60   C     C_3   0.488376 0.551727 0.432376 -0.132070
C61   C     C_3   0.060894 0.031607 0.433227 -0.301264
C62   C     C_3   0.564188 0.523318 0.427002 -0.329583
C63   C     C_3   0.104312 0.997621 0.538541 -0.078867
C64   C     C_3   0.602592 0.497416 0.539242 -0.091621
H27   H     H_    0.981112 0.966289 0.286672 0.145700
H28   H     H_    0.966834 0.095563 0.443534 0.186765
H29   H     H_    0.484104 0.450542 0.296846 0.141609
H30   H     H_    0.470571 0.595604 0.413544 0.181871
H31   H     H_    0.101112 0.057161 0.412191 0.169472
H32   H     H_    0.607586 0.542934 0.403528 0.170307
C65   C     C_3   0.244095 0.825528 0.105749 0.538459
C66   C     C_3   0.321362 0.214457 0.121106 0.521425
C67   C     C_3   0.761946 0.318367 0.116088 0.527502
C68   C     C_3   0.821443 0.714496 0.121371 0.522391
H33   H     H_    0.202366 0.862336 0.093949 0.076899
H34   H     H_    0.321268 0.184470 0.177687 0.065571
H35   H     H_    0.741621 0.358934 0.130147 0.005453
H36   H     H_    0.821317 0.684484 0.177895 0.063133
C69   C     C_3   0.690268 0.274111 0.098338 -0.597636
C70   C     C_3   0.767039 0.763106 0.118665 -0.589927
C71   C     C_3   0.181626 0.775773 0.092770 -0.644442
C72   C     C_3   0.267133 0.263121 0.118567 -0.589130
H37   H     H_    0.114923 0.791069 0.075910 0.181259
H38   H     H_    0.256004 0.257253 0.184286 0.186516
H39   H     H_    0.628180 0.294042 0.086185 0.165112
H40   H     H_    0.755622 0.757156 0.184131 0.185058
H41   H     H_    0.722925 0.249971 0.174993 0.205284
H42   H     H_    0.808947 0.801398 0.139622 0.211470
H43   H     H_    0.214359 0.752762 0.170202 0.189855
H44   H     H_    0.309026 0.301400 0.139257 0.212121
H45   H     H_    0.870690 0.264971 0.053176 0.199516
H46   H     H_    0.799712 0.737592 0.909020 0.180768
H47   H     H_    0.374647 0.769250 0.075956 0.174827
H48   H     H_    0.299172 0.237479 0.908414 0.178754
H49   H     H_    0.797377 0.199993 0.087210 0.216169
H50   H     H_    0.739560 0.812780 0.937900 0.208640
H51   H     H_    0.295909 0.699330 0.091824 0.186136
H52   H     H_    0.239474 0.312666 0.937887 0.208073
C73   C     C_3   0.793443 0.268213 0.991925 -0.362728
C74   C     C_3   0.739559 0.725876 0.910996 -0.454035
C75   C     C_3   0.299181 0.770664 0.006365 -0.420302
C76   C     C_3   0.239139 0.225794 0.910648 -0.458295
C77   C     C_3   0.149447 0.828105 0.902730 -0.794037
C78   C     C_3   0.171208 0.164616 0.982432 -0.766123
C79   C     C_3   0.650222 0.330244 0.912801 -0.821509
C80   C     C_3   0.671465 0.664639 0.982595 -0.777462
C81   C     C_3   0.253016 0.824773 0.006769 0.145377
C82   C     C_3   0.264990 0.185279 0.005171 0.137357
C83   C     C_3   0.755835 0.322276 0.007187 0.184530
C84   C     C_3   0.765237 0.685344 0.005426 0.145924
H53   H     H_    0.141126 0.845334 0.829730 0.180749
H54   H     H_    0.135935 0.138294 0.908479 0.197029
H55   H     H_    0.637949 0.351007 0.839884 0.182296
H56   H     H_    0.636479 0.638163 0.908910 0.189834
H57   H     H_    0.112037 0.859676 0.916511 0.188336
H58   H     H_    0.187241 0.136352 0.049999 0.185093
H59   H     H_    0.620799 0.360167 0.940915 0.189104
H60   H     H_    0.687439 0.636497 0.050304 0.182594
C85   C     C_3   0.658493 0.237858 0.995198 0.155175
C86   C     C_3   0.671674 0.768023 0.003110 0.116109
C87   C     C_3   0.157660 0.738242 0.993847 0.167274
C88   C     C_3   0.171626 0.267996 0.003183 0.114465
C89   C     C_3   0.747166 0.219177 0.005183 -0.412537
C90   C     C_3   0.693861 0.776243 0.917154 -0.390555
C91   C     C_3   0.249857 0.720827 0.011839 -0.441754
C92   C     C_3   0.193620 0.276203 0.917022 -0.390590
C93   C     C_3   0.596383 0.274398 0.886956 1.181823
C94   C     C_3   0.610723 0.714502 0.976321 1.154142
C95   C     C_3   0.098118 0.771802 0.881092 1.179380
C96   C     C_3   0.110757 0.214504 0.976771 1.154592
H61   H     H_    0.779753 0.266919 0.909266 0.178117
H62   H     H_    0.688154 0.706179 0.829920 0.189970
H63   H     H_    0.296467 0.768152 0.930080 0.190988
H64   H     H_    0.187584 0.206093 0.829623 0.187748
H65   H     H_    0.730240 0.187955 0.941942 0.233308
H66   H     H_    0.630141 0.783112 0.833280 0.275982
H67   H     H_    0.236575 0.690796 0.948289 0.241603
H68   H     H_    0.129971 0.283235 0.833184 0.276735
C97   C     C_3   0.639654 0.051517 0.655145 0.559072
C98   C     C_3   0.624362 0.944107 0.645018 0.553164
C99   C     C_3   0.146101 0.545455 0.660113 0.568406
C100  C     C_3   0.110405 0.439529 0.634869 0.554653
C101  C     C_3   0.636642 0.050937 0.547645 -0.568755
C102  C     C_3   0.635224 0.949652 0.548399 -0.541361
C103  C     C_3   0.151198 0.540169 0.558566 -0.546179
C104  C     C_3   0.107479 0.441550 0.528532 -0.557967
H69   H     H_    0.706787 0.052208 0.563666 0.189908
H70   H     H_    0.709394 0.954094 0.577625 0.200046
H71   H     H_    0.220954 0.526036 0.583349 0.201364
H72   H     H_    0.174297 0.429933 0.541787 0.192435
H73   H     H_    0.602633 0.088594 0.499154 0.201076
H74   H     H_    0.610984 0.911329 0.499890 0.188219
H75   H     H_    0.142293 0.580689 0.519748 0.194156
H76   H     H_    0.056290 0.410549 0.469340 0.186584
H77   H     H_    0.441469 0.042574 0.535855 0.215960
H78   H     H_    0.429218 0.972382 0.533845 0.216602
H79   H     H_    0.948002 0.549886 0.545352 0.206662
H80   H     H_    0.922223 0.481077 0.527934 0.219803
H81   H     H_    0.442791 0.037774 0.387175 0.168793
H82   H     H_    0.440773 0.964702 0.390920 0.212146
H83   H     H_    0.955782 0.552511 0.401265 0.190155
H84   H     H_    0.926647 0.481098 0.379773 0.166525
C105  C     C_3   0.477051 0.004557 0.539784 -0.414343
C106  C     C_3   0.976128 0.510419 0.540692 -0.403673
C107  C     C_3   0.577308 0.000227 0.648645 -0.163615
C108  C     C_3   0.075209 0.498359 0.647695 -0.160835
C109  C     C_3   0.581990 0.000268 0.476119 0.221036
C110  C     C_3   0.077406 0.498455 0.473693 0.224026
C111  C     C_3   0.479962 0.001578 0.440618 -0.303920
C112  C     C_3   0.978388 0.511503 0.440964 -0.328983
O1    O     O_3   0.080391 0.895408 0.490131 -0.654568
C113  C     C_3   0.007219 0.857129 0.429544 -0.169795
H85   H     H_    0.961201 0.867844 0.340504 0.169863
H86   H     H_    0.965971 0.852849 0.464238 0.156633
H87   H     H_    0.038178 0.816637 0.436436 0.166292
O2    O     O_3   0.053663 0.035130 0.656995 -0.615182
C114  C     C_3   0.973013 0.054860 0.644861 -0.206177
H88   H     H_    0.915007 0.024206 0.605421 0.142741
H89   H     H_    0.949850 0.093846 0.597765 0.124064
H90   H     H_    0.990680 0.063446 0.727877 0.182242
O3    O     O_3   0.573716 0.393676 0.516337 -0.661645
C115  C     C_3   0.500102 0.355489 0.459366 -0.186770
H91   H     H_    0.459985 0.360749 0.368606 0.183090
H92   H     H_    0.453842 0.357728 0.487383 0.158426
H93   H     H_    0.530360 0.313860 0.479110 0.156333
O4    O     O_3   0.544626 0.556420 0.633323 -0.627354
C116  C     C_3   0.549521 0.522200 0.712882 -0.224733
H94   H     H_    0.478519 0.507402 0.683616 0.159793
H95   H     H_    0.577485 0.546461 0.788737 0.168275
H96   H     H_    0.597387 0.487069 0.735444 0.137867
O5    O     O_3   0.328881 0.835571 0.211753 -0.633340
C117  C     C_3   0.377819 0.789325 0.276336 -0.142231
H97   H     H_    0.378268 0.755264 0.228898 0.114927
H98   H     H_    0.350333 0.775971 0.323872 0.161027
H99   H     H_    0.451969 0.801478 0.337486 0.168856
O6    O     O_3   0.418593 0.226685 0.175086 -0.632410
C118  C     C_3   0.440585 0.257751 0.112868 -0.173206
H100  H     H_    0.392640 0.292402 0.068716 0.144434
H101  H     H_    0.445519 0.230910 0.056778 0.147069
H102  H     H_    0.511277 0.275891 0.170563 0.158124
O7    O     O_3   0.853041 0.302427 0.205968 -0.635661
C119  C     C_3   0.875197 0.325026 0.305502 -0.178251
H103  H     H_    0.823527 0.312353 0.322349 0.151767
H104  H     H_    0.879832 0.370444 0.304530 0.131261
H105  H     H_    0.944883 0.309827 0.374151 0.197700
O8    O     O_3   0.918678 0.726778 0.175544 -0.632675
C120  C     C_3   0.940765 0.758005 0.113594 -0.178491
H106  H     H_    0.892686 0.792588 0.069329 0.145994
H107  H     H_    0.946025 0.731255 0.057641 0.146817
H108  H     H_    0.011327 0.776257 0.171510 0.161711
O9    O     O_3   0.007866 0.779516 0.858254 -0.662842
C121  C     C_3   0.943189 0.804350 0.755199 -0.192288
H109  H     H_    0.923223 0.776363 0.686440 0.164155
H110  H     H_    0.968864 0.844181 0.745923 0.130750
H111  H     H_    0.878349 0.812804 0.749141 0.197450
O10   O     O_3   0.097960 0.209534 0.062670 -0.681563
C122  C     C_3   0.026934 0.171711 0.038112 -0.178902
H112  H     H_    0.039432 0.130612 0.017979 0.140010
H113  H     H_    0.956665 0.187222 0.971277 0.185889
H114  H     H_    0.027247 0.166899 0.112343 0.165352
O11   O     O_3   0.508936 0.281643 0.871812 -0.670621
C123  C     C_3   0.442293 0.310474 0.775061 -0.202144
H115  H     H_    0.415519 0.285098 0.700849 0.160613
H116  H     H_    0.469291 0.350575 0.769038 0.133764
H117  H     H_    0.381516 0.319175 0.777350 0.203241
O12   O     O_3   0.597273 0.709564 0.061691 -0.682119
C124  C     C_3   0.526186 0.671681 0.036666 -0.188839
H118  H     H_    0.538992 0.630589 0.016840 0.140747
H119  H     H_    0.456006 0.687125 0.969432 0.189080
H120  H     H_    0.525999 0.666883 0.110560 0.159692
O13   O     O_3   0.585297 0.244327 0.797299 -0.584247
C125  C     C_3   0.578516 0.274112 0.711251 -0.105839
H121  H     H_    0.648854 0.286806 0.735240 0.117184
H122  H     H_    0.531482 0.309765 0.682589 0.068333
H123  H     H_    0.548876 0.246482 0.639420 0.207050
O14   O     O_3   0.522584 0.724263 0.872530 -0.636321
C126  C     C_3   0.482884 0.680744 0.796266 -0.226591
H124  H     H_    0.518346 0.676833 0.754575 0.163327
H125  H     H_    0.408769 0.690827 0.731370 0.187730
H126  H     H_    0.482235 0.641540 0.833696 0.150083
O15   O     O_3   0.092596 0.738757 0.797679 -0.589847
C127  C     C_3   0.093861 0.765245 0.713883 -0.112426
H127  H     H_    0.166087 0.778123 0.745101 0.114186
H128  H     H_    0.044763 0.799980 0.675507 0.071001
H129  H     H_    0.071170 0.735278 0.647168 0.221146
O16   O     O_3   0.022344 0.224392 0.873412 -0.626165
C128  C     C_3   0.982172 0.180964 0.797063 -0.271635
H130  H     H_    0.017212 0.177039 0.754890 0.152464
H131  H     H_    0.908017 0.191140 0.732556 0.190451
H132  H     H_    0.981602 0.141809 0.834638 0.147084
N33   N     N_R   0.604433 0.105832 0.658811 0.208550
O17   O     O_R   0.659401 0.140081 0.737859 -0.377872
O18   O     O_R   0.524295 0.124103 0.575573 -0.456041
N34   N     N_R   0.566655 0.894141 0.621939 0.210278
O19   O     O_R   0.604806 0.851279 0.684708 -0.392430
O20   O     O_R   0.485986 0.887180 0.527815 -0.438391
N35   N     N_R   0.114185 0.601574 0.659337 0.211410
O21   O     O_R   0.164070 0.632832 0.745636 -0.376938
O22   O     O_R   0.045355 0.623984 0.568578 -0.463833
N36   N     N_R   0.050481 0.392018 0.619695 0.209375
O23   O     O_R   0.089529 0.345918 0.668577 -0.392976
O24   O     O_R   0.961405 0.390860 0.540743 -0.474541
N37   N     N_R   0.736674 0.046208 0.755662 0.245646
O25   O     O_R   0.808602 0.042603 0.751559 -0.418389
O26   O     O_R   0.752021 0.048392 0.852150 -0.348239
N38   N     N_R   0.716897 0.935387 0.751172 0.257005
O27   O     O_R   0.787178 0.916542 0.753432 -0.390052
O28   O     O_R   0.723134 0.933723 0.842494 -0.376615
N39   N     N_R   0.240431 0.538806 0.764367 0.257086
O29   O     O_R   0.314675 0.553417 0.769918 -0.402101
O30   O     O_R   0.248898 0.533905 0.856768 -0.350135
N40   N     N_R   0.206475 0.428849 0.733982 0.243823
O31   O     O_R   0.278474 0.426342 0.729796 -0.418189
O32   O     O_R   0.219907 0.419434 0.828207 -0.384118
O33   O     O_3   0.800522 0.902983 0.313672 -0.635470
C129  C     C_3   0.758316 0.887253 0.366826 -0.348195
H133  H     H_    0.682041 0.879812 0.306373 0.155069
H134  H     H_    0.770381 0.918204 0.428441 0.145947
H135  H     H_    0.790125 0.848367 0.411535 0.172212
O34   O     O_3   0.798578 0.099135 0.308704 -0.623563
C130  C     C_3   0.761117 0.113813 0.367064 -0.334824
H136  H     H_    0.793505 0.153099 0.410035 0.181376
H137  H     H_    0.777048 0.082863 0.430874 0.135672
H138  H     H_    0.684398 0.120195 0.309982 0.157106
O35   O     O_3   0.300664 0.403147 0.312633 -0.638061
C131  C     C_3   0.256574 0.387753 0.363864 -0.342716
H139  H     H_    0.180375 0.380675 0.302336 0.158792
H140  H     H_    0.268087 0.418764 0.425042 0.148191
H141  H     H_    0.286974 0.348668 0.408411 0.169639
O36   O     O_3   0.300186 0.598898 0.302132 -0.636053
C132  C     C_3   0.271498 0.613021 0.369831 -0.295324
H142  H     H_    0.302269 0.653485 0.407544 0.178781
H143  H     H_    0.297051 0.583070 0.438192 0.159099
H144  H     H_    0.194124 0.616834 0.320883 0.144888
O37   O     O_3   0.501124 0.827360 0.803426 -0.609221
C133  C     C_3   0.406102 0.832009 0.761640 -0.098969
H145  H     H_    0.382449 0.874692 0.737422 0.107925
H146  H     H_    0.391575 0.815808 0.820303 0.117837
H147  H     H_    0.364344 0.806875 0.685860 0.169538
O38   O     O_3   0.493517 0.169939 0.799036 -0.572718
C134  C     C_3   0.400437 0.169915 0.765860 -0.171521
H148  H     H_    0.393134 0.190263 0.827077 0.132103
H149  H     H_    0.371914 0.127926 0.747281 0.114377
H150  H     H_    0.357516 0.193219 0.687830 0.161422
O39   O     O_3   0.000965 0.327167 0.803556 -0.605014
C135  C     C_3   0.905816 0.332455 0.760684 -0.071132
H151  H     H_    0.882995 0.375270 0.736649 0.107469
H152  H     H_    0.890298 0.316379 0.818531 0.112757
H153  H     H_    0.864140 0.307528 0.684603 0.166139
O40   O     O_3   0.992837 0.669371 0.798053 -0.577542
C136  C     C_3   0.899713 0.668320 0.764764 -0.191968
H154  H     H_    0.891844 0.688454 0.825689 0.137949
H155  H     H_    0.872222 0.626131 0.746197 0.119789
H156  H     H_    0.856063 0.691311 0.686467 0.158994

loop_
_geom_bond_atom_site_label_1
_geom_bond_atom_site_label_2
_geom_bond_distance
_ccdc_geom_bond_type
N24   Ni8   1.901019 S    
C132  H142  1.109216 S    
C80   C94   1.593627 S    
C35   N27   1.339374 A    
C126  H125  1.109221 S    
N4    N7    1.398512 A    
O10   C122  1.411791 S    
C100  N40   1.484890 S    
C78   H54   1.105448 S    
C79   H59   1.113697 S    
C9    C21   1.375646 A    
C96   O10   1.427215 S    
C30   C43   1.376718 A    
C53   H25   1.108246 S    
N32   Ni3   1.901081 S    
C120  H108  1.109054 S    
C135  H151  1.105181 S    
C118  H101  1.109056 S    
C136  H156  1.107948 S    
N7    Ni7   1.888077 S    
C14   C23   1.370442 A    
H78   C105  1.109969 S    
C39   O39   1.386242 S    
O8    C120  1.409456 S    
C97   N37   1.483388 S    
C66   C82   1.578700 S    
C106  C112  1.510464 S    
N36   O23   1.302323 A    
C4    N4    1.327018 A    
C71   H43   1.098897 S    
C127  H129  1.108471 S    
C97   N33   1.484924 S    
N21   Ni5   1.888353 S    
N28   N31   1.383823 A    
C50   C58   1.528874 S    
C31   C44   1.382086 A    
N23   Ni7   1.888352 S    
C110  C112  1.543551 S    
C70   C86   1.561048 S    
N2    N5    1.398512 A    
C9    H9    1.078860 S    
C113  H86   1.111138 S    
C27   C42   1.397200 A    
C11   H11   1.080352 S    
N9    Ni6   1.877264 S    
C123  H117  1.109168 S    
C12   H12   1.079087 S    
N11   Ni8   1.877264 S    
C37   O37   1.385839 S    
N39   O30   1.302029 A    
C12   C22   1.373881 A    
C129  H133  1.110415 S    
C94   O14   1.437831 S    
C104  H76   1.111147 S    
N30   Ni1   1.901081 S    
C11   N11   1.329552 A    
C101  H69   1.109242 S    
C62   C64   1.530226 S    
C86   C90   1.552057 S    
N23   N24   1.409216 A    
C74   H62   1.113432 S    
C65   C81   1.572156 S    
C34   H22   1.073015 S    
C126  H124  1.110704 S    
C70   H42   1.112557 S    
C8    H8    1.077796 S    
C51   C54   1.537000 S    
C131  H139  1.110026 S    
C36   C48   1.375045 A    
C92   H68   1.104353 S    
C5    N5    1.322924 A    
C106  C108  1.561531 S    
C20   C83   1.472922 S    
C100  C108  1.626457 S    
C58   C61   1.549562 S    
C119  H104  1.113175 S    
C132  H144  1.111490 S    
N12   Ni7   1.891443 S    
C125  H121  1.108245 S    
C13   N13   1.320878 A    
H50   C90   1.112462 S    
C15   N15   1.318237 A    
C78   C82   1.553966 S    
C16   N16   1.328382 A    
C67   O7    1.421671 S    
C98   C107  1.625645 S    
C129  H135  1.109154 S    
C104  C110  1.543271 S    
C40   C47   1.373471 A    
C25   H17   1.064227 S    
C65   O5    1.427991 S    
C72   C88   1.560827 S    
C75   C91   1.516372 S    
C27   H19   1.069826 S    
C76   C92   1.508394 S    
C135  H153  1.109037 S    
C28   H20   1.061573 S    
C101  H73   1.108142 S    
C36   N28   1.323568 A    
C30   O34   1.379252 S    
C99   N39   1.482232 S    
H47   C75   1.111855 S    
C134  H150  1.108257 S    
H48   C76   1.107445 S    
C19   C84   1.473120 S    
C54   H26   1.108184 S    
C55   C57   1.540792 S    
C3    N3    1.322251 A    
H82   C111  1.113238 S    
N39   O29   1.302601 A    
O13   C125  1.415277 S    
C52   C64   1.524713 S    
C60   H30   1.108226 S    
C74   C90   1.508140 S    
O39   C135  1.405775 S    
C123  H116  1.110146 S    
O4    C116  1.408841 S    
C95   O9    1.427498 S    
O35   C131  1.414160 S    
C8    C19   1.380168 A    
C79   C93   1.569377 S    
N20   Ni4   1.872031 S    
C29   C43   1.381967 A    
C94   O12   1.427158 S    
C77   C95   1.566251 S    
C76   C82   1.556295 S    
C72   H38   1.112964 S    
C116  H94   1.111190 S    
C128  H131  1.109126 S    
C133  H145  1.105203 S    
C131  H141  1.108818 S    
C40   N32   1.326288 A    
C99   N35   1.484571 S    
O16   C128  1.410390 S    
C58   H28   1.107696 S    
N3    Ni3   1.886859 S    
O5    C117  1.410086 S    
C54   C56   1.540450 S    
C102  C109  1.550003 S    
C2    C18   1.403628 A    
C27   N19   1.331495 A    
C67   H35   1.118680 S    
C32   C44   1.379906 A    
C66   C72   1.517442 S    
H79   C106  1.108922 S    
C33   N25   1.337518 A    
O1    C113  1.407164 S    
C78   H58   1.112417 S    
C122  H114  1.109150 S    
C99   C103  1.573967 S    
N37   O26   1.302414 A    
C79   H55   1.099724 S    
C77   H53   1.092844 S    
C100  C104  1.556816 S    
C127  H128  1.107601 S    
C120  H106  1.105811 S    
N38   O27   1.302581 A    
H45   C73   1.114092 S    
C90   H66   1.104465 S    
C37   C46   1.375670 A    
C69   C85   1.572889 S    
N35   O22   1.302377 A    
N34   O20   1.301441 A    
C39   C48   1.374853 A    
C61   C63   1.530878 S    
C30   N22   1.325329 A    
C124  H118  1.110298 S    
N26   N29   1.383823 A    
C98   C102  1.563939 S    
C57   C61   1.557974 S    
C114  H90   1.108630 S    
C98   N34   1.487135 S    
C33   C45   1.393738 A    
C28   N20   1.321358 A    
C49   C53   1.533735 S    
C50   O2    1.412914 S    
C98   N38   1.485119 S    
C10   H10   1.078081 S    
N40   O32   1.301894 A    
O15   C127  1.415039 S    
C97   C107  1.621369 S    
C22   C110  1.469322 S    
C28   C42   1.382044 A    
C46   C86   1.477800 S    
C60   C62   1.549530 S    
C86   C94   1.580416 S    
C116  H96   1.113064 S    
O7    C119  1.412666 S    
C85   C89   1.547727 S    
O6    C118  1.409539 S    
N19   Ni3   1.886074 S    
C103  H75   1.109718 S    
C75   C81   1.559995 S    
C88   C92   1.552523 S    
C26   C41   1.391146 A    
C6    N6    1.316941 A    
C56   C59   1.540482 S    
C117  H97   1.099186 S    
C130  H138  1.110319 S    
C78   C96   1.593875 S    
C120  H107  1.109083 S    
C135  H152  1.112933 S    
C13   H13   1.078920 S    
C14   N14   1.328328 A    
C50   C53   1.526748 S    
C39   N31   1.331342 A    
C5    C18   1.385747 A    
C13   C23   1.359594 A    
C16   H16   1.081070 S    
C122  H112  1.110266 S    
C75   H63   1.112591 S    
C121  H109  1.108798 S    
H51   C91   1.110428 S    
C38   C45   1.374278 A    
H52   C92   1.112267 S    
C24   C64   1.426587 S    
N25   Ni6   1.866132 S    
C80   C84   1.553594 S    
C9    N9    1.325791 A    
C51   C64   1.530460 S    
C26   H18   1.063399 S    
N21   N22   1.409216 A    
C25   C41   1.395283 A    
N11   N12   1.388188 A    
C36   H24   1.072424 S    
C118  H100  1.105828 S    
N13   N14   1.408730 A    
O40   C136  1.404978 S    
C7    H7    1.072679 S    
H83   C112  1.113811 S    
C113  H87   1.109226 S    
C91   H67   1.113824 S    
C18   C81   1.481755 S    
C1    H1    1.078852 S    
C71   H37   1.112897 S    
C61   H31   1.109946 S    
C124  H120  1.109179 S    
C3    H3    1.078677 S    
N13   Ni2   1.893951 S    
C62   H32   1.109931 S    
C129  H134  1.114256 S    
C99   C108  1.616550 S    
C38   O38   1.381368 S    
C114  H88   1.112914 S    
C32   O36   1.379049 S    
N33   O18   1.302375 A    
O38   C134  1.404764 S    
C96   O16   1.437659 S    
C66   O6    1.430283 S    
C115  H92   1.109509 S    
C16   C24   1.371165 A    
C121  H111  1.109092 S    
C131  H140  1.113459 S    
C73   C89   1.516234 S    
C29   N21   1.328734 A    
C32   N24   1.326725 A    
N22   Ni6   1.901018 S    
C80   H56   1.105077 S    
C132  H143  1.114687 S    
C125  H122  1.106171 S    
C17   C82   1.473722 S    
C38   N30   1.327986 A    
C126  H126  1.109270 S    
C51   O3    1.411336 S    
N10   Ni5   1.891443 S    
N19   N20   1.388188 A    
C1    N1    1.322137 A    
C114  H89   1.111107 S    
C66   H34   1.114800 S    
C68   C70   1.517442 S    
C130  H136  1.109149 S    
C3    C19   1.390564 A    
N31   Ni4   1.914286 S    
C71   C87   1.576184 S    
N35   O21   1.302929 A    
C125  H123  1.108883 S    
C105  C111  1.511130 S    
H80   C106  1.106481 S    
O11   C123  1.410733 S    
C49   C57   1.539690 S    
C33   H21   1.071809 S    
C93   O11   1.427843 S    
C100  N36   1.485984 S    
O2    C114  1.408150 S    
C134  H149  1.101512 S    
C7    C20   1.380131 A    
C77   H57   1.112534 S    
N14   Ni1   1.881394 S    
C50   C63   1.526928 S    
C31   O35   1.381397 S    
C43   C55   1.433042 S    
C21   C109  1.472680 S    
C115  H91   1.112240 S    
H46   C74   1.107447 S    
N16   Ni3   1.881394 S    
C65   H33   1.112880 S    
C113  H85   1.112834 S    
N1    Ni1   1.886859 S    
C76   H64   1.113476 S    
C57   H27   1.110073 S    
C65   C71   1.564617 S    
C68   H36   1.114805 S    
C25   N17   1.327500 A    
C102  H74   1.107061 S    
C5    H5    1.072235 S    
C47   C87   1.497278 S    
C45   C85   1.494772 S    
C105  C107  1.557718 S    
N34   O19   1.302362 A    
C35   H23   1.073784 S    
N18   Ni2   1.872031 S    
C128  H130  1.110553 S    
C133  H146  1.113200 S    
N4    Ni4   1.872385 S    
N27   Ni8   1.866132 S    
C119  H103  1.112862 S    
C12   N12   1.320679 A    
H77   C105  1.107069 S    
C72   H44   1.112543 S    
C133  H147  1.109040 S    
C118  H102  1.109041 S    
C103  H71   1.111515 S    
C122  H113  1.111256 S    
N37   O25   1.302228 A    
C6    H6    1.078070 S    
C67   C83   1.566375 S    
C134  H148  1.113629 S    
C4    H4    1.077649 S    
C11   C22   1.376123 A    
O33   C129  1.412774 S    
C49   C63   1.524622 S    
C4    C20   1.398954 A    
C41   C107  1.503076 S    
O12   C124  1.411803 S    
N38   O28   1.301635 A    
C14   H14   1.081060 S    
C73   H61   1.111073 S    
N1    N6    1.398525 A    
C6    C17   1.381030 A    
N3    N8    1.398525 A    
C29   O33   1.380691 S    
N2    Ni2   1.872385 S    
C53   C55   1.543665 S    
C55   C58   1.541602 S    
C26   N18   1.325528 A    
C15   C24   1.360650 A    
C23   C63   1.424564 S    
C59   C62   1.558303 S    
C87   C91   1.542113 S    
C115  H93   1.109031 S    
C68   C84   1.578572 S    
N5    Ni5   1.888077 S    
C34   N26   1.323117 A    
C7    N7    1.321535 A    
C40   O40   1.382512 S    
C8    N8    1.316588 A    
C52   C60   1.529720 S    
C37   N29   1.330421 A    
C2    H2    1.075222 S    
N6    Ni6   1.901175 S    
C10   N10   1.327140 A    
C136  H155  1.100791 S    
H81   C111  1.114698 S    
C104  H72   1.109466 S    
H49   C89   1.114394 S    
C116  H95   1.109274 S    
C128  H132  1.108903 S    
C15   H15   1.077702 S    
C52   O4    1.414487 S    
C89   H65   1.113467 S    
C102  H70   1.110977 S    
C79   C83   1.558177 S    
N15   Ni4   1.893951 S    
C68   O8    1.430236 S    
N8    Ni8   1.901175 S    
C56   C60   1.537901 S    
C117  H98   1.110000 S    
C44   C56   1.433524 S    
C130  H137  1.114496 S    
N25   N30   1.383807 A    
C80   H60   1.112456 S    
N15   N16   1.408730 A    
C119  H105  1.109876 S    
C97   C101  1.573010 S    
N27   N32   1.383807 A    
N9    N10   1.388188 A    
C34   C46   1.376147 A    
C109  C111  1.544665 S    
C136  H154  1.113322 S    
C69   H39   1.112307 S    
C52   C54   1.530609 S    
C70   H40   1.112993 S    
N40   O31   1.302437 A    
C121  H110  1.109960 S    
C117  H99   1.109284 S    
C2    N2    1.325371 A    
C10   C21   1.378559 A    
N28   Ni7   1.880432 S    
C127  H127  1.109233 S    
C59   H29   1.110018 S    
C69   H41   1.104880 S    
O14   C126  1.411233 S    
C67   C69   1.552976 S    
C77   C81   1.563137 S    
C87   C95   1.597304 S    
C85   C93   1.596674 S    
C48   C88   1.477640 S    
N36   O24   1.300925 A    
O3    C115  1.404751 S    
C73   C83   1.558867 S    
O37   C133  1.406111 S    
C74   C84   1.556224 S    
C51   C59   1.538416 S    
C103  C110  1.550991 S    
C35   C47   1.396566 A    
C123  H115  1.108903 S    
N17   Ni1   1.886074 S    
C124  H119  1.111266 S    
C95   O15   1.442466 S    
C31   N23   1.326922 A    
O34   C130  1.410981 S    
C49   O1    1.411188 S    
O36   C132  1.410492 S    
C42   C108  1.499489 S    
N33   O17   1.302784 A    
C101  C109  1.548330 S    
H84   C112  1.114752 S    
C88   C96   1.579846 S    
N17   N18   1.388188 A    
C93   O13   1.440023 S    
O9    C121  1.412380 S    
N26   Ni5   1.880432 S    
C1    C17   1.390463 A    
N29   Ni2   1.914286 S    
