data_mof_unit_15343.cif
_audit_creation_date              2012-12-10T18:23:59-0500
_audit_creation_method            fapswitch 2.2
_symmetry_space_group_name_H-M    P1
_symmetry_Int_Tables_number       1
_space_group_crystal_system       triclinic
_cell_length_a                    15.739186
_cell_length_b                    15.012525
_cell_length_c                    13.999212
_cell_angle_alpha                 89.881986
_cell_angle_beta                  89.93535
_cell_angle_gamma                 89.976547
_cell_volume                      3307.79333737

loop_
_atom_site_label
_atom_site_type_symbol
_atom_type_description
_atom_site_fract_x
_atom_site_fract_y
_atom_site_fract_z
_atom_type_partial_charge
C1    C     C_R   0.500309 0.326446 0.500060 0.904252
C2    C     C_R   0.501736 0.046368 0.499915 0.067100
C3    C     C_R   0.502458 0.907554 0.412175 0.118666
C4    C     C_R   0.500499 0.092496 0.587613 0.118245
C5    C     C_R   0.498914 0.953368 0.674253 -0.186696
C6    C     C_R   0.504264 0.046718 0.325525 -0.204260
C7    C     C_R   0.499240 0.045903 0.674312 -0.201059
C8    C     C_R   0.503982 0.954168 0.325472 -0.195561
C9    C     C_R   0.451581 0.560790 0.797829 -0.030513
C10   C     C_R   0.546917 0.437926 0.202220 -0.024916
C11   C     C_R   0.547322 0.438484 0.798186 -0.007079
C12   C     C_R   0.499966 0.673568 0.499911 0.902838
C13   C     C_R   0.452212 0.561090 0.201820 -0.009330
C14   C     C_R   0.547396 0.436179 0.898788 -0.032625
C15   C     C_R   0.450294 0.561771 0.101244 -0.030428
C16   C     C_R   0.337828 0.500281 0.500042 0.905425
C17   C     C_R   0.662195 0.499863 0.499957 0.906583
C18   C     C_R   0.498038 0.498536 0.949401 0.024926
C19   C     C_R   0.498257 0.498225 0.050642 0.024113
C20   C     C_R   0.448953 0.561538 0.898725 -0.099978
C21   C     C_R   0.546891 0.434856 0.101336 -0.103505
C22   C     C_R   0.595402 0.373010 0.949455 -0.283555
C23   C     C_R   0.500296 0.769454 0.499806 -0.073781
C24   C     C_R   0.401516 0.624257 0.050608 -0.283334
C25   C     C_R   0.593926 0.370404 0.049940 0.522500
C26   C     C_R   0.398761 0.623262 0.950138 0.511495
C27   C     C_3   0.972457 0.425094 0.543742 -0.461059
C28   C     C_3   0.027704 0.577226 0.455897 -0.478818
C29   C     C_3   0.028469 0.429788 0.453061 0.446184
C30   C     C_3   0.971686 0.572527 0.546597 0.383553
C31   C     C_1   0.249122 0.501467 0.500171 -0.145118
C32   C     C_1   0.750951 0.499549 0.499798 -0.134108
C33   C     C_3   0.027796 0.499075 0.589171 0.408241
C34   C     C_R   0.501121 0.230588 0.500050 -0.066022
C35   C     C_3   0.972372 0.503242 0.410460 0.437001
C36   C     C_3   0.083313 0.502496 0.499414 -0.115800
C37   C     C_3   0.916831 0.499816 0.500240 -0.107034
C38   C     C_1   0.173987 0.502345 0.500054 0.130431
C39   C     C_1   0.826116 0.499438 0.499792 0.139511
C40   C     C_R   0.501851 0.815402 0.412795 -0.242092
C41   C     C_R   0.500264 0.184622 0.587032 -0.244167
C42   C     C_3   0.592164 0.234750 0.125139 0.077108
C43   C     C_3   0.593405 0.162137 0.049124 -0.836239
C44   C     C_3   0.270373 0.650923 0.879369 0.096700
C45   C     C_R   0.499311 0.815071 0.586823 -0.226186
C46   C     C_3   0.205661 0.670574 0.957764 -0.839177
C47   C     C_3   0.993825 0.537292 0.251340 0.141382
C48   C     C_3   0.964848 0.513698 0.150917 -0.742498
C49   C     C_3   0.007836 0.462555 0.747968 0.130816
C50   C     C_3   0.034126 0.489422 0.848350 -0.810261
C51   C     C_R   0.502778 0.185019 0.412986 -0.237477
C52   C     C_R   0.499903 0.907181 0.587500 0.114019
C53   C     C_R   0.503033 0.092903 0.412279 0.120528
C54   C     C_R   0.501434 0.953697 0.499861 0.065164
H1    H     H_    0.633786 0.324945 0.911105 0.167208
H2    H     H_    0.505210 0.082122 0.258001 0.139402
H3    H     H_    0.498352 0.080986 0.741895 0.149573
H4    H     H_    0.504809 0.919095 0.257890 0.151028
H5    H     H_    0.414922 0.608340 0.756824 0.158055
H6    H     H_    0.584086 0.390872 0.243286 0.161543
H7    H     H_    0.584754 0.391033 0.757948 0.127832
H8    H     H_    0.415502 0.609164 0.242046 0.127072
H9    H     H_    0.013184 0.235133 0.298280 0.385071
H10   H     H_    0.036940 0.684232 0.706678 0.365383
H11   H     H_    0.525142 0.253103 0.142429 0.115972
H12   H     H_    0.364886 0.673780 0.088980 0.165537
H13   H     H_    0.619615 0.206604 0.191735 0.177189
H14   H     H_    0.659973 0.143793 0.031597 0.275642
H15   H     H_    0.559748 0.102170 0.076174 0.214936
H16   H     H_    0.560915 0.185599 0.983394 0.239129
H17   H     H_    0.271621 0.577979 0.863925 0.130205
H18   H     H_    0.248422 0.683996 0.812785 0.187219
H19   H     H_    0.206220 0.742667 0.975355 0.274419
H20   H     H_    0.141116 0.652041 0.933035 0.221652
H21   H     H_    0.220464 0.631350 0.022930 0.238343
H22   H     H_    0.059471 0.511070 0.261015 0.169790
H23   H     H_    0.948306 0.363548 0.578458 0.197649
H24   H     H_    0.994654 0.611099 0.258097 0.141090
H25   H     H_    0.900008 0.540307 0.137977 0.259821
H26   H     H_    0.009131 0.543045 0.097637 0.194314
H27   H     H_    0.964102 0.440203 0.141958 0.275967
H28   H     H_    0.011570 0.388775 0.742196 0.159111
H29   H     H_    0.940797 0.484200 0.737105 0.173048
H30   H     H_    0.027685 0.562632 0.856756 0.253322
H31   H     H_    0.992635 0.455929 0.901634 0.218731
H32   H     H_    0.101145 0.469866 0.861743 0.258405
H33   H     H_    0.051932 0.638801 0.421318 0.200339
H34   H     H_    0.502625 0.779646 0.345550 0.162830
H35   H     H_    0.499164 0.220347 0.654294 0.160266
H36   H     H_    0.498043 0.779086 0.654081 0.171307
H37   H     H_    0.503690 0.221034 0.345738 0.149691
H38   H     H_    0.497789 0.917967 0.741791 0.161062
N1    N     N_R   0.500040 0.500070 0.750030 -0.109074
N2    N     N_R   0.499960 0.499930 0.249970 -0.110047
O1    O     O_R   0.500020 0.367860 0.580280 -0.633940
O2    O     O_2   0.105812 0.270691 0.461152 -0.276995
O3    O     O_3   0.986919 0.285619 0.332906 -0.513962
O4    O     O_2   0.885942 0.726752 0.539520 -0.237257
O5    O     O_2   0.871782 0.638864 0.686159 -0.316261
O6    O     O_3   0.013494 0.724249 0.656924 -0.502291
O7    O     O_3   0.643285 0.307877 0.096914 -0.608496
O8    O     O_3   0.350826 0.686861 0.903016 -0.628727
O9    O     O_3   0.936496 0.500557 0.318118 -0.559850
O10   O     O_3   0.063718 0.502035 0.681461 -0.604067
O11   O     O_R   0.499980 0.632140 0.419720 -0.632716
O12   O     O_R   0.500020 0.367840 0.419730 -0.632001
O13   O     O_R   0.499980 0.632160 0.580270 -0.627180
O14   O     O_R   0.376770 0.500000 0.580260 -0.617678
O15   O     O_R   0.623230 0.500000 0.419740 -0.606476
O16   O     O_R   0.376780 0.499980 0.419710 -0.608744
O17   O     O_R   0.623220 0.500020 0.580290 -0.608751
O18   O     O_2   0.134449 0.363282 0.320073 -0.328960
S1    S     S_3+6 0.067735 0.334886 0.390694 0.042280
S2    S     S_3+6 0.932139 0.667490 0.608741 0.061989
Zn1   Zn    Zn3+2 0.499990 0.500020 0.607200 0.966468
Zn2   Zn    Zn3+2 0.500010 0.499980 0.392800 0.969474

loop_
_geom_bond_atom_site_label_1
_geom_bond_atom_site_label_2
_ccdc_geom_bond_type
C41   H35   S    
C23   C45   A    
O16   Zn2   S    
C27   C29   S    
C33   O10   S    
C14   C18   A    
O11   Zn2   S    
C10   H6    S    
C49   O10   S    
C16   O16   A    
C27   C33   S    
C16   C31   S    
C15   C19   A    
C29   C36   S    
C34   C51   A    
C48   H25   S    
C19   C21   A    
C24   C26   A    
C47   H22   S    
C35   O9    S    
C12   O11   A    
C3    C54   A    
O4    S2    D    
C4    C41   A    
C10   N2    A    
C23   C40   A    
C33   C36   S    
C48   H27   S    
C44   H17   S    
C18   C19   A    
N1    Zn1   S    
C32   C39   T    
C46   H21   S    
C29   S1    S    
C50   H31   S    
C8    H4    S    
C13   H8    S    
C28   C35   S    
O1    Zn1   S    
C43   H14   S    
C22   C25   A    
C42   H11   S    
C5    C52   A    
O15   Zn2   S    
C24   H12   S    
C1    O12   A    
C51   H37   S    
C11   N1    A    
C43   H15   S    
C34   C41   A    
O5    S2    D    
C4    C7    A    
C17   O17   A    
O18   S1    D    
C44   C46   S    
C1    C34   S    
C10   C21   A    
C47   O9    S    
C50   H30   S    
C49   H29   S    
O6    S2    S    
C3    C8    A    
C2    C54   A    
C5    C7    A    
N2    Zn2   S    
C6    C8    A    
C45   C52   A    
C27   H23   S    
C30   C37   S    
O12   Zn2   S    
C9    H5    S    
C49   H28   S    
C2    C4    A    
C9    C20   A    
C47   C48   S    
C12   C23   S    
C1    O1    A    
C28   H33   S    
C52   C54   A    
C45   H36   S    
O13   Zn1   S    
C15   C24   A    
C3    C40   A    
C43   H16   S    
C13   C15   A    
C42   H13   S    
O2    S1    D    
C42   C43   S    
C6    C53   A    
O3    S1    S    
C42   O7    S    
C9    N1    A    
C46   H20   S    
O14   Zn1   S    
C16   O14   A    
C30   S2    S    
C21   C25   A    
C44   O8    S    
C30   C33   S    
C35   C37   S    
C6    H2    S    
C11   H7    S    
C2    C53   A    
C17   O15   A    
C12   O13   A    
C22   H1    S    
C29   C35   S    
C31   C38   T    
C13   N2    A    
C14   C22   A    
C28   C30   S    
C37   C39   S    
C48   H26   S    
C26   O8    S    
C25   O7    S    
C20   C26   A    
C27   C37   S    
C36   C38   S    
C11   C14   A    
C44   H18   S    
C18   C20   A    
C5    H38   S    
C50   H32   S    
H10   O6    S    
C28   C36   S    
H9    O3    S    
C49   C50   S    
C17   C32   S    
O17   Zn1   S    
C47   H24   S    
C51   C53   A    
C7    H3    S    
C46   H19   S    
C40   H34   S    
