data_mof_unit_65626.cif
_audit_creation_date              2012-10-26T18:01:19-0400
_audit_creation_method            fapswitch 2.2
_symmetry_space_group_name_H-M    P1
_symmetry_Int_Tables_number       1
_space_group_crystal_system       triclinic
_cell_length_a                    30.782051
_cell_length_b                    30.734352
_cell_length_c                    24.925431
_cell_angle_alpha                 90.029998
_cell_angle_beta                  128.831011
_cell_angle_gamma                 90.024153
_cell_volume                      18369.6451108

loop_
_atom_site_label
_atom_site_type_symbol
_atom_type_description
_atom_site_fract_x
_atom_site_fract_y
_atom_site_fract_z
_atom_type_partial_charge
C1    C     C_R   0.809463 0.809459 0.500329 0.546892
C2    C     C_R   0.535331 0.751225 0.070002 0.344316
C3    C     C_R   0.906584 0.093241 0.497915 -0.002960
C4    C     C_R   0.588616 0.603441 0.444498 0.015267
C5    C     C_R   0.411327 0.603436 0.555530 0.015275
C6    C     C_R   0.088626 0.103431 0.444501 0.015075
C7    C     C_R   0.911268 0.103389 0.555503 0.015013
C8    C     C_3   0.558413 0.592619 0.370581 -0.256231
C9    C     C_3   0.441339 0.592572 0.629358 -0.256261
C10   C     C_3   0.058439 0.092599 0.370594 -0.256111
C11   C     C_3   0.941203 0.092466 0.629292 -0.256242
C12   C     C_3   0.594878 0.627698 0.371916 -0.282719
C13   C     C_R   0.964696 0.251463 0.929936 0.344170
C14   C     C_3   0.404872 0.627626 0.628009 -0.282935
C15   C     C_3   0.094901 0.127680 0.371928 -0.282975
C16   C     C_3   0.904739 0.127522 0.627943 -0.282923
C17   C     C_R   0.440357 0.559630 0.499585 0.555536
C18   C     C_R   0.559667 0.559626 0.500454 0.555605
C19   C     C_R   0.940353 0.059626 0.499585 0.555089
C20   C     C_R   0.059669 0.059624 0.500454 0.554986
C21   C     C_R   0.940336 0.940476 0.499648 0.551568
C22   C     C_R   0.059623 0.940674 0.500177 0.553187
C23   C     C_R   0.440263 0.440720 0.499786 0.554969
C24   C     C_R   0.035548 0.251455 0.070091 0.344171
C25   C     C_R   0.559706 0.440712 0.500175 0.554911
C26   C     C_R   0.816322 0.749816 0.632573 0.540883
C27   C     C_R   0.183657 0.749796 0.367418 0.540937
C28   C     C_R   0.316324 0.249820 0.632572 0.540290
C29   C     C_R   0.683655 0.249798 0.367418 0.540447
C30   C     C_R   0.630125 0.791963 0.254979 0.003409
C31   C     C_R   0.368333 0.791821 0.744947 0.002284
C32   C     C_R   0.132218 0.291885 0.255266 0.002352
C33   C     C_R   0.868134 0.291917 0.744901 0.002355
C34   C     C_R   0.593227 0.791015 0.182655 -0.103739
C35   C     C_R   0.851168 0.842206 0.451444 0.005944
C36   C     C_R   0.405221 0.790939 0.817276 -0.104175
C37   C     C_R   0.095330 0.291072 0.182918 -0.104177
C38   C     C_R   0.905073 0.291098 0.817247 -0.104178
C39   C     C_R   0.573944 0.751447 0.146351 0.016083
C40   C     C_R   0.426027 0.751448 0.853520 0.015995
C41   C     C_R   0.074197 0.251626 0.146456 0.015949
C42   C     C_R   0.926021 0.251643 0.853571 0.015957
C43   C     C_R   0.592252 0.712320 0.183557 -0.127082
C44   C     C_R   0.409260 0.712351 0.816250 -0.126908
C45   C     C_R   0.090670 0.212507 0.183530 -0.126680
C46   C     C_R   0.144640 0.841419 0.543281 0.010944
C47   C     C_R   0.909325 0.212521 0.816362 -0.126724
C48   C     C_R   0.628596 0.712736 0.255417 -0.147563
C49   C     C_R   0.372934 0.712730 0.744399 -0.147133
C50   C     C_R   0.126953 0.212822 0.255388 -0.146940
C51   C     C_R   0.872993 0.212841 0.744505 -0.146973
C52   C     C_3   0.652173 0.835745 0.290256 -0.268226
C53   C     C_3   0.609494 0.859377 0.292007 -0.417034
C54   C     C_3   0.344549 0.835328 0.709579 -0.270809
C55   C     C_3   0.386386 0.860776 0.708163 -0.415637
C56   C     C_3   0.156431 0.335316 0.290895 -0.271538
C57   C     C_R   0.350496 0.343687 0.452137 0.008738
C58   C     C_3   0.114768 0.361097 0.292220 -0.415199
C59   C     C_3   0.844121 0.335367 0.709434 -0.271432
C60   C     C_3   0.885852 0.361020 0.708051 -0.415319
C61   C     C_3   0.709757 0.672775 0.631782 -0.281554
C62   C     C_3   0.767521 0.652936 0.668884 -0.429081
C63   C     C_3   0.290589 0.672810 0.368407 -0.281583
C64   C     C_3   0.232727 0.653039 0.331144 -0.429077
C65   C     C_3   0.209746 0.172781 0.631775 -0.281609
C66   C     C_3   0.267512 0.152943 0.668882 -0.429004
C67   C     C_3   0.790690 0.172883 0.368449 -0.281633
C68   C     C_R   0.648943 0.343482 0.547346 0.009010
C69   C     C_3   0.732809 0.153133 0.331108 -0.428868
C70   C     C_R   0.841433 0.843474 0.499061 0.013145
C71   C     C_R   0.157575 0.842770 0.499152 0.016658
C72   C     C_R   0.342311 0.342683 0.500771 0.019328
C73   C     C_R   0.190816 0.809337 0.500072 0.546946
C74   C     C_R   0.657642 0.342689 0.499169 0.019011
C75   C     C_R   0.858239 0.880470 0.541136 -0.151519
C76   C     C_R   0.137687 0.878517 0.453866 -0.152181
C77   C     C_R   0.366894 0.376036 0.550664 -0.152032
C78   C     C_R   0.633527 0.376240 0.449702 -0.152021
C79   C     C_R   0.890800 0.912536 0.541549 -0.154334
C80   C     C_R   0.104913 0.910758 0.453518 -0.153378
C81   C     C_R   0.399584 0.408315 0.550906 -0.154042
C82   C     C_R   0.600811 0.408498 0.449424 -0.154024
C83   C     C_R   0.904986 0.908477 0.498088 0.017256
C84   C     C_R   0.309098 0.309307 0.499820 0.546861
C85   C     C_R   0.093460 0.908263 0.500132 0.017392
C86   C     C_R   0.406361 0.408276 0.499840 0.015522
C87   C     C_R   0.593550 0.408250 0.500062 0.015656
C88   C     C_R   0.881803 0.874538 0.450304 0.024147
C89   C     C_R   0.115074 0.873110 0.544757 0.014587
C90   C     C_R   0.380086 0.375455 0.450824 0.016892
C91   C     C_R   0.619347 0.375229 0.548658 0.016839
C92   C     C_3   0.909871 0.842846 0.435532 -0.274799
C93   C     C_3   0.117719 0.851834 0.600386 -0.268701
C94   C     C_3   0.371291 0.357146 0.389333 -0.265035
C95   C     C_R   0.690880 0.309314 0.500152 0.546930
C96   C     C_3   0.627565 0.356686 0.609640 -0.265264
C97   C     C_3   0.876273 0.807310 0.436987 -0.266675
C98   C     C_3   0.152088 0.815895 0.599258 -0.271616
C99   C     C_3   0.336938 0.321149 0.390427 -0.275060
C100  C     C_3   0.661922 0.320713 0.608556 -0.274750
C101  C     C_R   0.684354 0.750778 0.367646 0.540031
C102  C     C_R   0.315700 0.750732 0.632336 0.538655
C103  C     C_R   0.184346 0.250736 0.367671 0.538301
C104  C     C_R   0.815682 0.250754 0.632343 0.538419
C105  C     C_R   0.836140 0.764303 0.744787 -0.140647
C106  C     C_R   0.647362 0.752187 0.291826 0.029498
C107  C     C_R   0.163809 0.764252 0.255217 -0.140679
C108  C     C_R   0.336128 0.264276 0.744782 -0.140736
C109  C     C_R   0.663800 0.264278 0.255218 -0.140726
C110  C     C_R   0.871832 0.763186 0.816727 -0.122747
C111  C     C_R   0.128088 0.763143 0.183277 -0.122765
C112  C     C_R   0.371820 0.263163 0.816722 -0.122826
C113  C     C_R   0.628079 0.263173 0.183278 -0.122795
C114  C     C_R   0.926691 0.747746 0.853865 0.032846
C115  C     C_R   0.073194 0.747707 0.146119 0.032837
C116  C     C_R   0.426696 0.247765 0.853864 0.032781
C117  C     C_R   0.352687 0.752118 0.708097 0.030004
C118  C     C_R   0.573190 0.247724 0.146118 0.032827
C119  C     C_R   0.944876 0.732875 0.817596 -0.120726
C120  C     C_R   0.055002 0.732827 0.182372 -0.120567
C121  C     C_R   0.444899 0.232933 0.817597 -0.120671
C122  C     C_R   0.555002 0.232828 0.182369 -0.120615
C123  C     C_R   0.908821 0.733177 0.745636 -0.134642
C124  C     C_R   0.091089 0.733119 0.254338 -0.134300
C125  C     C_R   0.408844 0.233229 0.745636 -0.134540
C126  C     C_R   0.591089 0.233116 0.254335 -0.134491
C127  C     C_R   0.854258 0.749182 0.708581 0.011170
C128  C     C_R   0.147484 0.252167 0.291907 0.030098
C129  C     C_R   0.145688 0.749128 0.291409 0.011128
C130  C     C_R   0.354262 0.249191 0.708579 0.010941
C131  C     C_R   0.645683 0.249136 0.291409 0.010937
C132  C     C_R   0.035029 0.747366 0.069980 0.341404
C133  C     C_R   0.964840 0.747391 0.930004 0.341385
C134  C     C_R   0.535028 0.247384 0.069978 0.341407
C135  C     C_R   0.464844 0.247411 0.930002 0.341398
C136  C     C_R   0.620621 0.633888 0.445632 -0.002161
C137  C     C_R   0.379306 0.633864 0.554377 -0.001962
C138  C     C_R   0.120629 0.133881 0.445635 -0.002049
C139  C     C_R   0.852629 0.252193 0.708118 0.030016
C140  C     C_R   0.879248 0.133819 0.554348 -0.001975
C141  C     C_R   0.659877 0.657859 0.503932 0.039034
C142  C     C_R   0.340167 0.657852 0.496130 0.039012
C143  C     C_R   0.159876 0.157858 0.503930 0.039120
C144  C     C_R   0.840166 0.157850 0.496127 0.039010
C145  C     C_R   0.666789 0.649167 0.564875 -0.015252
C146  C     C_R   0.333409 0.649191 0.435265 -0.015171
C147  C     C_R   0.166783 0.149170 0.564869 -0.015241
C148  C     C_R   0.833461 0.149228 0.435289 -0.015183
C149  C     C_R   0.691210 0.690795 0.500743 0.553964
C150  C     C_R   0.464619 0.751232 0.929866 0.344241
C151  C     C_R   0.308815 0.690788 0.499292 0.553595
C152  C     C_R   0.191209 0.190795 0.500741 0.553493
C153  C     C_R   0.808813 0.190788 0.499289 0.553497
C154  C     C_R   0.633458 0.616609 0.563353 -0.140538
C155  C     C_R   0.366745 0.616652 0.436803 -0.140466
C156  C     C_R   0.133452 0.116611 0.563347 -0.140447
C157  C     C_R   0.866796 0.116687 0.436827 -0.140240
C158  C     C_R   0.593483 0.593228 0.502178 -0.002846
C159  C     C_R   0.406588 0.593246 0.497915 -0.002859
C160  C     C_R   0.093485 0.093225 0.502176 -0.002941
Cu1   Cu    Cu3+1 0.780910 0.719090 0.500000 0.915170
Cu2   Cu    Cu3+1 0.534240 0.500000 0.568430 0.919855
Cu3   Cu    Cu3+1 0.965760 1.000000 0.431570 0.925626
Cu4   Cu    Cu3+1 0.034240 1.000000 0.568430 0.920559
Cu5   Cu    Cu3+1 0.219090 0.719090 0.500000 0.918628
Cu6   Cu    Cu3+1 0.280910 0.219090 0.500000 0.919961
Cu7   Cu    Cu3+1 0.719090 0.219090 0.500000 0.920005
Cu8   Cu    Cu3+1 0.719070 0.780890 0.500010 0.910317
Cu9   Cu    Cu3+1 0.280930 0.780890 0.499990 0.910806
Cu10  Cu    Cu3+1 0.219070 0.280890 0.500010 0.911448
Cu11  Cu    Cu3+1 0.780930 0.280890 0.499990 0.911324
Cu12  Cu    Cu3+1 0.465760 0.500000 0.431570 0.919773
H1    H     H_    0.902425 0.784305 0.480710 0.151302
H2    H     H_    0.143220 0.774923 0.156726 0.134399
H3    H     H_    0.233152 0.618058 0.320242 0.155513
H4    H     H_    0.289659 0.707958 0.377950 0.164178
H5    H     H_    0.301765 0.670725 0.333847 0.138312
H6    H     H_    0.281271 0.156104 0.637210 0.176320
H7    H     H_    0.297996 0.170069 0.718552 0.147876
H8    H     H_    0.266959 0.117971 0.679680 0.155583
H9    H     H_    0.210807 0.207918 0.622326 0.164070
H10   H     H_    0.198621 0.170747 0.666390 0.138448
H11   H     H_    0.718956 0.156331 0.362677 0.176120
H12   H     H_    0.702474 0.170293 0.281496 0.147785
H13   H     H_    0.356682 0.274905 0.843287 0.134400
H14   H     H_    0.733220 0.118155 0.320178 0.155918
H15   H     H_    0.789776 0.208026 0.378026 0.164238
H16   H     H_    0.801904 0.170812 0.333926 0.138457
H17   H     H_    0.643208 0.274966 0.156729 0.134430
H18   H     H_    0.986833 0.720582 0.844836 0.133769
H19   H     H_    0.013017 0.720536 0.155112 0.133974
H20   H     H_    0.486870 0.220674 0.844839 0.134084
H21   H     H_    0.513021 0.220527 0.155108 0.134016
H22   H     H_    0.923877 0.721365 0.719003 0.129995
H23   H     H_    0.076032 0.721307 0.280963 0.130747
H24   H     H_    0.423912 0.221449 0.719005 0.130898
H25   H     H_    0.130439 0.783931 0.580820 0.148403
H26   H     H_    0.576035 0.221291 0.280959 0.130839
H27   H     H_    0.638889 0.609618 0.609839 0.135162
H28   H     H_    0.361412 0.609688 0.390364 0.135131
H29   H     H_    0.138878 0.109624 0.609831 0.135250
H30   H     H_    0.861505 0.109753 0.390409 0.135335
H31   H     H_    0.567519 0.559051 0.363524 0.139247
H32   H     H_    0.432109 0.558992 0.636202 0.139253
H33   H     H_    0.067556 0.059031 0.363556 0.139022
H34   H     H_    0.931919 0.058880 0.636041 0.138905
H35   H     H_    0.513496 0.601375 0.337812 0.146169
H36   H     H_    0.356359 0.288392 0.402934 0.149572
H37   H     H_    0.486282 0.601330 0.662302 0.146202
H38   H     H_    0.013521 0.101347 0.337814 0.146412
H39   H     H_    0.986157 0.101195 0.662308 0.146399
H40   H     H_    0.624934 0.614429 0.365449 0.140163
H41   H     H_    0.374696 0.614327 0.634261 0.140093
H42   H     H_    0.124966 0.114412 0.365478 0.140027
H43   H     H_    0.874512 0.114221 0.634105 0.140066
H44   H     H_    0.580227 0.821515 0.154776 0.134781
H45   H     H_    0.417008 0.821386 0.845193 0.134697
H46   H     H_    0.083827 0.321526 0.155156 0.134484
H47   H     H_    0.642269 0.287992 0.595482 0.149549
H48   H     H_    0.916753 0.321557 0.845117 0.134476
H49   H     H_    0.571089 0.656799 0.340238 0.138542
H50   H     H_    0.428685 0.656715 0.659854 0.138313
H51   H     H_    0.071110 0.156775 0.340236 0.138347
H52   H     H_    0.928566 0.156586 0.659860 0.138278
H53   H     H_    0.578328 0.681260 0.157211 0.139029
H54   H     H_    0.424366 0.681351 0.842537 0.139026
H55   H     H_    0.075309 0.181537 0.157079 0.139099
H56   H     H_    0.924543 0.181545 0.842704 0.139087
H57   H     H_    0.641495 0.682043 0.282799 0.118541
H58   H     H_    0.794114 0.776470 0.717464 0.126515
H59   H     H_    0.361187 0.682095 0.716932 0.117204
H60   H     H_    0.138425 0.182175 0.282689 0.117058
H61   H     H_    0.861345 0.182189 0.717101 0.117162
H62   H     H_    0.848587 0.883472 0.575960 0.130216
H63   H     H_    0.146606 0.881111 0.418291 0.129392
H64   H     H_    0.361621 0.376716 0.589736 0.126806
H65   H     H_    0.639184 0.377096 0.410975 0.127048
H66   H     H_    0.905698 0.939893 0.576483 0.125387
H67   H     H_    0.089242 0.937659 0.417732 0.126817
H68   H     H_    0.418864 0.433343 0.590208 0.129665
H69   H     H_    0.205860 0.776423 0.282551 0.126541
H70   H     H_    0.581909 0.433682 0.410460 0.129343
H71   H     H_    0.897891 0.847856 0.383626 0.145578
H72   H     H_    0.142049 0.871286 0.648671 0.147682
H73   H     H_    0.345905 0.378987 0.343893 0.146687
H74   H     H_    0.652875 0.378366 0.655377 0.146772
H75   H     H_    0.955514 0.840441 0.478287 0.128979
H76   H     H_    0.076059 0.840675 0.582078 0.131259
H77   H     H_    0.410734 0.345195 0.401674 0.139193
H78   H     H_    0.587890 0.344758 0.596723 0.139109
H79   H     H_    0.844986 0.791818 0.385937 0.140584
H80   H     H_    0.294087 0.276410 0.717456 0.126552
H81   H     H_    0.196395 0.814840 0.646644 0.132859
H82   H     H_    0.291647 0.322441 0.345942 0.130090
H83   H     H_    0.707144 0.321862 0.653351 0.130402
H84   H     H_    0.570771 0.865664 0.238840 0.147925
H85   H     H_    0.599083 0.839666 0.319904 0.177510
H86   H     H_    0.626995 0.891031 0.318949 0.138044
H87   H     H_    0.692002 0.832609 0.343407 0.166763
H88   H     H_    0.661872 0.856115 0.262106 0.134398
H89   H     H_    0.424735 0.867602 0.761414 0.148136
H90   H     H_    0.397728 0.842082 0.680412 0.177389
H91   H     H_    0.705847 0.276458 0.282553 0.126623
H92   H     H_    0.367655 0.892215 0.681209 0.138085
H93   H     H_    0.305040 0.831543 0.656278 0.163246
H94   H     H_    0.333770 0.854696 0.737462 0.131828
H95   H     H_    0.076577 0.368055 0.238947 0.147980
H96   H     H_    0.103098 0.342580 0.319747 0.177338
H97   H     H_    0.133814 0.392474 0.319364 0.138149
H98   H     H_    0.195802 0.331392 0.344253 0.162642
H99   H     H_    0.167573 0.354504 0.263261 0.130632
H100  H     H_    0.924132 0.367942 0.761310 0.147978
H101  H     H_    0.897341 0.342427 0.680379 0.177312
H102  H     H_    0.856708 0.774959 0.843295 0.134458
H103  H     H_    0.866951 0.392414 0.681028 0.138066
H104  H     H_    0.804674 0.331480 0.656108 0.162660
H105  H     H_    0.833168 0.354631 0.737219 0.130788
H106  H     H_    0.781277 0.656096 0.637207 0.176351
H107  H     H_    0.798009 0.670063 0.718553 0.147815
H108  H     H_    0.766968 0.617964 0.679684 0.155458
H109  H     H_    0.710818 0.707912 0.622335 0.164077
H110  H     H_    0.698635 0.670741 0.666400 0.138420
H111  H     H_    0.218913 0.656247 0.362752 0.176194
H112  H     H_    0.202355 0.670179 0.281520 0.147660
N1    N     N_R   0.518018 0.713233 0.034189 -0.231156
N2    N     N_R   0.978881 0.747257 0.033683 -0.230579
N3    N     N_R   0.520991 0.247311 0.966303 -0.230701
N4    N     N_R   0.478879 0.247247 0.033678 -0.230710
N5    N     N_R   0.055385 0.747433 0.034896 -0.232543
N6    N     N_R   0.944483 0.747453 0.965087 -0.232384
N7    N     N_R   0.555386 0.247481 0.034898 -0.232392
N8    N     N_R   0.444484 0.247443 0.965082 -0.232424
N9    N     N_R   0.483403 0.713238 0.965567 -0.231205
N10   N     N_R   0.017355 0.213461 0.034257 -0.231083
N11   N     N_R   0.982688 0.213465 0.965637 -0.231086
N12   N     N_R   0.481939 0.789173 0.965720 -0.236402
N13   N     N_R   0.516535 0.789168 0.034258 -0.236331
N14   N     N_R   0.982887 0.289416 0.965804 -0.236483
N15   N     N_R   0.017562 0.289412 0.034356 -0.236485
N16   N     N_R   0.020988 0.747262 0.966301 -0.230809
O1    O     O_R   0.821190 0.768980 0.500000 -0.508654
O2    O     O_R   0.074010 0.954920 0.557790 -0.507416
O3    O     O_R   0.425990 0.454920 0.442210 -0.507040
O4    O     O_R   0.574010 0.454920 0.557790 -0.507031
O5    O     O_R   0.983760 0.954940 0.557800 -0.514649
O6    O     O_R   0.016240 0.954940 0.442200 -0.514347
O7    O     O_R   0.483760 0.454940 0.557800 -0.515528
O8    O     O_R   0.516240 0.454940 0.442200 -0.515377
O9    O     O_R   0.768960 0.821170 0.500020 -0.514112
O10   O     O_R   0.231040 0.821170 0.499980 -0.514974
O11   O     O_R   0.268960 0.321170 0.500020 -0.514131
O12   O     O_R   0.178810 0.768980 0.500000 -0.504934
O13   O     O_R   0.731040 0.321170 0.499980 -0.514203
O14   O     O_R   0.726180 0.723900 0.400140 -0.508498
O15   O     O_R   0.273820 0.723900 0.599860 -0.509423
O16   O     O_R   0.226180 0.223900 0.400140 -0.509207
O17   O     O_R   0.773820 0.223900 0.599860 -0.509259
O18   O     O_R   0.673950 0.776090 0.400160 -0.510311
O19   O     O_R   0.326050 0.776090 0.599840 -0.509670
O20   O     O_R   0.173950 0.276090 0.400160 -0.509659
O21   O     O_R   0.826050 0.276090 0.599840 -0.509685
O22   O     O_R   0.731010 0.678810 0.499990 -0.511453
O23   O     O_R   0.321190 0.268980 0.500000 -0.504518
O24   O     O_R   0.268990 0.678810 0.500010 -0.511697
O25   O     O_R   0.231010 0.178810 0.499990 -0.511734
O26   O     O_R   0.768990 0.178810 0.500010 -0.511719
O27   O     O_R   0.678790 0.731000 0.500010 -0.512812
O28   O     O_R   0.321210 0.731000 0.499990 -0.512927
O29   O     O_R   0.178790 0.231000 0.500010 -0.512924
O30   O     O_R   0.821210 0.231000 0.499990 -0.512990
O31   O     O_R   0.826030 0.723890 0.599860 -0.515031
O32   O     O_R   0.173970 0.723890 0.400140 -0.514579
O33   O     O_R   0.326030 0.223890 0.599860 -0.514613
O34   O     O_R   0.678810 0.268980 0.500000 -0.504552
O35   O     O_R   0.673970 0.223890 0.400140 -0.514559
O36   O     O_R   0.773800 0.776080 0.599870 -0.512577
O37   O     O_R   0.226200 0.776080 0.400130 -0.512714
O38   O     O_R   0.273800 0.276080 0.599870 -0.512806
O39   O     O_R   0.726200 0.276080 0.400130 -0.512836
O40   O     O_R   0.425940 0.545090 0.442170 -0.517268
O41   O     O_R   0.574060 0.545090 0.557830 -0.517221
O42   O     O_R   0.925940 0.045090 0.442170 -0.516957
O43   O     O_R   0.074060 0.045090 0.557830 -0.517223
O44   O     O_R   0.483700 0.545120 0.557760 -0.510558
O45   O     O_R   0.516300 0.545120 0.442240 -0.510640
O46   O     O_R   0.983700 0.045120 0.557760 -0.510573
O47   O     O_R   0.016300 0.045120 0.442240 -0.510933
O48   O     O_R   0.925990 0.954920 0.442210 -0.503100

loop_
_geom_bond_atom_site_label_1
_geom_bond_atom_site_label_2
_ccdc_geom_bond_type
C105  C110  A    
C60   H103  S    
C87   C91   A    
C142  C146  A    
C107  C129  A    
C56   H98   S    
C121  H20   S    
Cu7   O26   S    
C154  C158  A    
C138  C143  A    
Cu9   O10   S    
C27   O32   A    
C55   H90   S    
Cu6   O23   S    
C82   H70   S    
Cu8   O9    S    
C91   C96   S    
C110  H102  S    
C47   H56   S    
C21   C83   S    
C100  H47   S    
C134  N4    A    
C3    C19   S    
C103  O20   A    
Cu8   O27   S    
C149  O22   A    
C65   C147  S    
Cu1   O1    S    
C63   C146  S    
C81   C86   A    
C141  C145  A    
C115  C132  S    
C122  C126  A    
C83   C88   A    
C46   C98   S    
C59   C60   S    
C33   C59   S    
C24   C41   S    
C37   H46   S    
C13   C42   S    
C67   H15   S    
Cu5   Cu9   S    
C97   H1    S    
C116  C121  A    
C134  N7    A    
C153  O30   A    
C86   C90   A    
C71   C73   S    
C105  C127  A    
Cu7   Cu11  S    
C34   C39   A    
C14   H41   S    
C61   H109  S    
C142  C151  S    
C16   H43   S    
Cu4   O2    S    
C136  C141  A    
C17   O44   A    
C78   C82   A    
C24   N10   A    
C14   C137  S    
C19   O42   A    
Cu12  O8    S    
C40   C150  S    
C73   O10   A    
C12   H40   S    
C72   C84   S    
N12   N13   A    
Cu7   O17   S    
C16   H52   S    
N14   N15   A    
C101  O18   A    
C53   H86   S    
C10   H33   S    
C1    C70   S    
C93   H72   S    
C36   H45   S    
C6    C160  A    
C5    C137  A    
C119  C123  A    
Cu10  O11   S    
C66   H7    S    
C33   C38   A    
C81   H68   S    
C22   O6    A    
C51   H61   S    
C105  H58   S    
C61   H110  S    
C52   H87   S    
Cu5   O15   S    
C45   C50   A    
C33   C139  A    
Cu6   O16   S    
C28   C130  S    
C94   H73   S    
Cu2   O4    S    
Cu9   O19   S    
Cu10  O20   S    
C27   O37   A    
C20   C160  S    
Cu4   O46   S    
C41   C45   A    
C31   C36   A    
C107  H69   S    
Cu10  O29   S    
C75   C79   A    
C151  O28   A    
C82   C87   A    
C137  C142  A    
C49   H59   S    
C29   O35   A    
C97   H79   S    
C46   C89   A    
C121  C125  A    
C108  H80   S    
C104  O17   A    
C22   O2    A    
C68   C74   A    
C52   H88   S    
C118  C122  A    
C22   C85   S    
C73   O12   A    
C146  C155  A    
C10   H38   S    
C49   C117  A    
Cu12  O45   S    
C58   H95   S    
C123  H22   S    
C50   H60   S    
C53   H84   S    
Cu11  O39   S    
C110  C114  A    
C108  C130  A    
C114  C119  A    
C118  C134  S    
N10   N11   A    
C126  H26   S    
C102  O19   A    
Cu3   O48   S    
Cu2   O7    S    
C16   C140  S    
C149  O27   A    
C156  H29   S    
C20   O47   A    
C92   C97   S    
C65   H10   S    
C54   H93   S    
C30   C34   A    
C155  C159  A    
C55   H92   S    
C156  C160  A    
C120  H19   S    
C112  H13   S    
Cu1   O31   S    
C8    H35   S    
C68   C100  S    
C5    C9    S    
C9    H32   S    
C64   H112  S    
C123  C127  A    
C8    C12   S    
C59   H104  S    
C32   C37   A    
C102  C117  S    
C69   H11   S    
C2    N1    A    
C48   H57   S    
C11   H34   S    
Cu1   O22   S    
C29   O39   A    
C62   H107  S    
C145  C154  A    
C2    N13   A    
Cu7   O34   S    
C112  C116  A    
C52   C53   S    
C101  C106  S    
C30   C52   S    
C54   C55   S    
C98   H25   S    
C132  N5    A    
C107  C111  A    
C76   C80   A    
Cu2   O41   S    
Cu6   Cu10  S    
C32   C128  A    
C34   H44   S    
C29   C131  S    
C96   C100  S    
Cu5   O32   S    
C56   C58   S    
C148  C157  A    
C31   C54   S    
C37   C41   A    
C61   C62   S    
C17   C159  S    
C18   O41   A    
C101  O14   A    
C7    C140  A    
C40   C44   A    
Cu2   Cu12  S    
C12   C136  S    
C70   C75   A    
C3    C157  A    
C79   H66   S    
C44   H54   S    
C98   H81   S    
C26   O36   A    
Cu12  O40   S    
C51   C139  A    
C20   O43   A    
Cu6   O33   S    
C111  H2    S    
C23   O7    A    
C119  H18   S    
C96   H78   S    
C95   O34   A    
C63   H4    S    
C25   O4    A    
N4    N8    A    
C80   H67   S    
C99   H82   S    
C3    C7    A    
C71   C76   A    
C92   H71   S    
Cu11  O13   S    
C25   C87   S    
C75   H62   S    
C61   C145  S    
C18   O45   A    
C48   C106  A    
Cu4   O5    S    
C23   C86   S    
C109  C131  A    
Cu1   O14   S    
C135  N8    A    
C144  C148  A    
C4    C136  A    
C96   H74   S    
C90   C94   S    
C152  O29   A    
C13   N11   A    
C53   H85   S    
N2    N6    A    
C84   O23   A    
C57   C90   A    
C116  C135  S    
C24   N15   A    
C85   C89   A    
C47   C51   A    
C66   H8    S    
C77   H64   S    
C108  C112  A    
C143  C147  A    
C9    C14   S    
C80   C85   A    
C18   C158  S    
C11   C16   S    
C102  O15   A    
Cu12  O3    S    
C77   C81   A    
C147  C156  A    
C46   C71   A    
C143  C152  S    
C78   H65   S    
C59   H105  S    
Cu4   O43   S    
C50   C128  A    
C122  H21   S    
C67   H16   S    
C1    O9    A    
C150  N9    A    
C8    H31   S    
C140  C144  A    
Cu7   O35   S    
C6    C10   S    
C113  H17   S    
C104  C139  S    
C99   H36   S    
Cu11  O21   S    
Cu9   O37   S    
C133  N6    A    
Cu3   O6    S    
Cu2   O44   S    
C79   C83   A    
C154  H27   S    
C13   N14   A    
C124  C129  A    
C57   C72   A    
C15   H51   S    
C28   O38   A    
C74   C78   A    
C58   H96   S    
C67   C148  S    
C56   H99   S    
C69   H14   S    
C32   C56   S    
C57   C99   S    
C44   C49   A    
Cu3   Cu4   S    
C4    C8    S    
C26   O31   A    
C141  C149  S    
C65   H9    S    
C7    C11   S    
C28   O33   A    
C66   H6    S    
C58   H97   S    
C54   H94   S    
C126  C131  A    
C38   C42   A    
C10   C15   S    
C45   H55   S    
C68   C91   A    
C144  C153  S    
C31   C117  A    
C153  O26   A    
C11   H39   S    
C2    C39   S    
C133  N16   A    
C4    C158  A    
C88   C92   S    
C35   C70   A    
C9    H37   S    
C5    C159  A    
Cu3   O47   S    
C109  H91   S    
C100  H83   S    
C43   C48   A    
Cu10  O38   S    
C109  C113  A    
C26   C127  S    
C17   O40   A    
C25   O8    A    
C19   O46   A    
C30   C106  A    
C89   C93   S    
C1    O1    A    
C62   H108  S    
C15   H42   S    
C125  C130  A    
C92   H75   S    
Cu3   O42   S    
C132  N2    A    
C60   H101  S    
Cu5   O24   S    
C38   H48   S    
C36   C40   A    
Cu8   O18   S    
C95   O13   A    
C39   C43   A    
C125  H24   S    
Cu5   O12   S    
C103  O16   A    
C63   C64   S    
C67   C69   S    
C21   O48   A    
C6    C138  A    
C104  O21   A    
Cu8   O36   S    
C72   C77   A    
C93   H76   S    
C35   C88   A    
Cu11  O30   S    
C21   O5    A    
Cu6   O25   S    
C60   H100  S    
C64   H3    S    
C103  C128  S    
C152  O25   A    
C65   C66   S    
C27   C129  S    
N3    N7    A    
C135  N3    A    
C94   H77   S    
C55   H89   S    
N5    N16   A    
C74   C95   S    
C14   H50   S    
C151  O24   A    
C63   H5    S    
C150  N12   A    
C15   C138  S    
C64   H111  S    
C94   C99   S    
Cu9   O28   S    
C124  H23   S    
C114  C133  S    
C76   H63   S    
C42   C47   A    
C84   O11   A    
C12   H49   S    
Cu1   Cu8   S    
C23   O3    A    
C69   H12   S    
C113  C118  A    
C120  C124  A    
C115  C120  A    
N1    N9    A    
C111  C115  A    
C157  H30   S    
C62   H106  S    
C35   C97   S    
C93   C98   S    
C155  H28   S    
C43   H53   S    
