data_mof_unit_16722.cif
_audit_creation_date              2012-12-10T17:11:59-0500
_audit_creation_method            fapswitch 2.2
_symmetry_space_group_name_H-M    P1
_symmetry_Int_Tables_number       1
_space_group_crystal_system       triclinic
_cell_length_a                    11.660378
_cell_length_b                    12.980035
_cell_length_c                    15.872942
_cell_angle_alpha                 92.419658
_cell_angle_beta                  74.110314
_cell_angle_gamma                 100.282584
_cell_volume                      2273.44288371

loop_
_atom_site_label
_atom_site_type_symbol
_atom_type_description
_atom_site_fract_x
_atom_site_fract_y
_atom_site_fract_z
_atom_type_partial_charge
C1    C     C_R   0.522929 0.700989 0.498189 0.817162
C2    C     C_R   0.477080 0.299002 0.501781 0.816940
C3    C     C_R   0.357479 0.521149 0.087183 -0.221403
C4    C     C_R   0.649616 0.540134 0.913483 -0.220133
C5    C     C_R   0.274954 0.517068 0.038082 -0.231624
C6    C     C_R   0.732431 0.546725 0.962614 -0.231158
C7    C     C_R   0.461013 0.185090 0.507191 -0.061048
C8    C     C_R   0.539003 0.814885 0.492718 -0.060440
C9    C     C_R   0.659301 0.985956 0.446988 -0.188708
C10   C     C_R   0.340708 0.013992 0.552833 -0.188781
C11   C     C_R   0.652301 0.877659 0.452410 0.158180
C12   C     C_R   0.347674 0.122275 0.547364 0.157398
C13   C     C_R   0.436243 0.861093 0.525779 -0.296783
C14   C     C_R   0.563797 0.138891 0.474172 -0.296820
C15   C     C_R   0.443923 0.968609 0.519719 0.126511
C16   C     C_R   0.556111 0.031363 0.480181 0.126454
C17   C     C_R   0.941547 0.597148 0.581611 -0.345595
C18   C     C_R   0.058437 0.402838 0.418417 -0.345287
C19   C     C_R   0.822944 0.587730 0.573812 0.079658
C20   C     C_R   0.177038 0.412250 0.426212 0.079761
C21   C     C_R   0.859009 0.457896 0.464814 0.025958
C22   C     C_R   0.140997 0.542111 0.535189 0.026210
C23   C     C_R   0.427036 0.495833 0.668153 0.798175
C24   C     C_R   0.573115 0.505476 0.331860 0.797726
C25   C     C_R   0.979171 0.464685 0.470375 0.070508
C26   C     C_R   0.020827 0.535320 0.529636 0.071437
C27   C     C_R   0.384755 0.498558 0.764211 -0.054496
C28   C     C_R   0.616666 0.513799 0.235925 -0.054678
C29   C     C_R   0.227069 0.504925 0.898885 -0.196671
C30   C     C_R   0.778212 0.540723 0.101614 -0.196531
C31   C     C_R   0.263056 0.499079 0.807822 -0.198831
C32   C     C_R   0.740326 0.530248 0.192503 -0.200253
C33   C     C_R   0.469751 0.504198 0.812492 -0.249816
C34   C     C_R   0.531693 0.508258 0.187635 -0.246857
C35   C     C_R   0.436827 0.514409 0.904018 0.087505
C36   C     C_R   0.567492 0.522894 0.096383 0.087714
C37   C     C_R   0.312657 0.512107 0.947190 0.168192
C38   C     C_R   0.693002 0.536783 0.053341 0.168194
C39   C     C_R   0.523309 0.524789 0.953698 0.066896
C40   C     C_R   0.482122 0.522103 0.046808 0.066116
Cu1   Cu    Cu3+1 0.386820 0.492450 0.493500 0.932747
Cu2   Cu    Cu3+1 0.613180 0.507550 0.506500 0.932625
H1    H     H_    0.180477 0.516883 0.071736 0.139160
H2    H     H_    0.828292 0.558863 0.929093 0.138386
H3    H     H_    0.237548 0.364212 0.386060 0.125330
H4    H     H_    0.762416 0.635739 0.613988 0.125286
H5    H     H_    0.970889 0.652312 0.627825 0.134369
H6    H     H_    0.029077 0.347652 0.372225 0.135709
H7    H     H_    0.437498 0.490268 0.222768 0.150730
H8    H     H_    0.561206 0.498362 0.777084 0.153646
H9    H     H_    0.807545 0.534854 0.228621 0.152516
H10   H     H_    0.195887 0.494920 0.771709 0.151548
H11   H     H_    0.132227 0.504182 0.931632 0.127058
H12   H     H_    0.874309 0.552275 0.068984 0.126755
H13   H     H_    0.320604 0.526792 0.156921 0.144727
H14   H     H_    0.688369 0.550744 0.843930 0.140554
H15   H     H_    0.650356 0.186995 0.443385 0.150010
H16   H     H_    0.349698 0.813000 0.556617 0.149875
H17   H     H_    0.745151 0.035024 0.416300 0.133237
H18   H     H_    0.254844 0.964906 0.583462 0.133070
H19   H     H_    0.174139 0.595990 0.580630 0.113002
H20   H     H_    0.825871 0.404012 0.419376 0.113945
N1    N     N_R   0.216750 0.481110 0.483710 -0.178116
N2    N     N_R   0.783250 0.518890 0.516290 -0.178108
O1    O     O_R   0.419950 0.645670 0.495380 -0.585320
O2    O     O_R   0.580050 0.354330 0.504620 -0.585006
O3    O     O_R   0.611110 0.658410 0.506370 -0.584157
O4    O     O_R   0.388890 0.341590 0.493630 -0.583938
O5    O     O_R   0.350820 0.490050 0.621260 -0.589067
O6    O     O_R   0.649180 0.509950 0.378740 -0.589427
O7    O     O_R   0.541970 0.502800 0.632250 -0.587610
O8    O     O_R   0.458030 0.497200 0.367750 -0.587568
C41   C     C_3   0.234909 0.168182 0.587413 -0.826909
H21   H     H_    0.158655 0.108037 0.623046 0.215458
H22   H     H_    0.252775 0.229891 0.635104 0.233693
H23   H     H_    0.205292 0.201697 0.535344 0.244921
C42   C     C_3   0.764947 0.831674 0.412125 -0.827959
H24   H     H_    0.841126 0.891777 0.376340 0.215481
H25   H     H_    0.794805 0.798161 0.464072 0.244877
H26   H     H_    0.746809 0.769940 0.364517 0.233682

loop_
_geom_bond_atom_site_label_1
_geom_bond_atom_site_label_2
_ccdc_geom_bond_type
C8    C13   A    
C5    C37   A    
C1    C8    S    
C17   H5    S    
Cu1   Cu2   S    
C23   O5    A    
C10   H18   S    
C2    C7    S    
C31   H10   S    
C19   H4    S    
C24   O6    A    
C42   H24   S    
C27   C33   A    
C30   H12   S    
C17   C26   A    
C35   C37   A    
C9    C16   A    
C2    O4    A    
C10   C15   A    
C15   C16   A    
Cu2   O6    S    
C30   C38   A    
C41   H21   S    
C21   N2    A    
C11   C42   S    
C33   C35   A    
C22   N1    A    
C3    H13   S    
C7    C14   A    
C1    O1    A    
C6    C38   A    
C23   C27   S    
C34   C36   A    
C20   H3    S    
C5    H1    S    
C28   C34   A    
C6    H2    S    
C12   C41   S    
C4    H14   S    
C41   H22   S    
C18   C25   A    
Cu1   O4    S    
C42   H25   S    
C7    C12   A    
C27   C31   A    
C23   O7    A    
C28   C32   A    
C4    C6    A    
C39   C40   A    
Cu1   O1    S    
C13   H16   S    
C3    C5    A    
C25   C26   A    
C9    H17   S    
C35   C39   A    
C32   H9    S    
C4    C39   A    
C36   C40   A    
C19   N2    A    
C9    C11   A    
C21   H20   S    
C10   C12   A    
Cu1   O8    S    
C3    C40   A    
C13   C15   A    
Cu2   O3    S    
C41   H23   S    
C14   C16   A    
Cu1   N1    S    
Cu2   N2    S    
C24   O8    A    
Cu1   O5    S    
C42   H26   S    
C14   H15   S    
C21   C25   A    
C34   H7    S    
C24   C28   S    
C2    O2    A    
C18   H6    S    
C1    O3    A    
C20   N1    A    
C36   C38   A    
C33   H8    S    
C29   C31   A    
C22   H19   S    
C30   C32   A    
C29   H11   S    
C8    C11   A    
Cu2   O7    S    
C17   C19   A    
C18   C20   A    
C22   C26   A    
C29   C37   A    
Cu2   O2    S    
