data_mof_unit_65957.cif
_audit_creation_date              2012-12-10T21:15:20-0500
_audit_creation_method            fapswitch 2.2
_symmetry_space_group_name_H-M    P1
_symmetry_Int_Tables_number       1
_space_group_crystal_system       monoclinic
_cell_length_a                    17.58694
_cell_length_b                    16.731489
_cell_length_c                    14.174903
_cell_angle_alpha                 90.0
_cell_angle_beta                  90.120681
_cell_angle_gamma                 90.0
_cell_volume                      4171.0366554

loop_
_atom_site_label
_atom_site_type_symbol
_atom_type_description
_atom_site_fract_x
_atom_site_fract_y
_atom_site_fract_z
_atom_type_partial_charge
C1    C     C_R   0.353116 0.500000 0.500793 0.924553
C2    C     C_R   0.552069 0.251931 0.552874 0.031735
C3    C     C_R   0.552065 0.748068 0.552879 0.031735
C4    C     C_R   0.447939 0.251905 0.447144 0.031115
C5    C     C_R   0.500017 0.875578 0.500033 0.143473
C6    C     C_R   0.500017 0.124422 0.500033 0.143472
C7    C     C_1   0.500025 0.963420 0.500043 -0.014415
C8    C     C_1   0.500025 0.036580 0.500043 -0.014416
C9    C     C_R   0.499966 0.500000 0.328716 0.905175
C10   C     C_R   0.500034 0.500000 0.671284 0.903979
C11   C     C_1   0.499961 0.500000 0.227395 -0.190857
C12   C     C_R   0.646881 0.500000 0.501029 0.925793
C13   C     C_1   0.500039 0.500000 0.772602 -0.188869
C14   C     C_1   0.499969 0.500000 0.142279 0.010024
C15   C     C_1   0.500031 0.500000 0.857717 0.010830
C16   C     C_1   0.499989 0.500000 0.042554 0.029017
C17   C     C_1   0.500010 0.500000 0.957442 0.029270
C18   C     C_R   0.847024 0.572909 0.526207 0.386320
C19   C     C_R   0.152999 0.427091 0.525212 0.386415
C20   C     C_R   0.152999 0.572909 0.525213 0.386415
C21   C     C_R   0.847024 0.427090 0.526207 0.386321
C22   C     C_R   0.768681 0.572632 0.514849 -0.235711
C23   C     C_1   0.966287 0.500000 0.536595 0.174194
C24   C     C_R   0.231309 0.427368 0.513910 -0.234341
C25   C     C_R   0.231309 0.572632 0.513911 -0.234341
C26   C     C_R   0.768681 0.427368 0.514850 -0.235711
C27   C     C_R   0.729270 0.500000 0.508962 -0.175400
C28   C     C_R   0.270722 0.500000 0.508252 -0.176330
C29   C     C_R   0.886034 0.500000 0.531750 -0.096877
C30   C     C_R   0.114019 0.500000 0.530880 -0.097241
C31   C     C_1   0.033807 0.500000 0.536308 0.174083
C32   C     C_R   0.446991 0.832346 0.446205 -0.241103
C33   C     C_R   0.553039 0.167680 0.553840 -0.240615
C34   C     C_R   0.553035 0.832320 0.553846 -0.240615
C35   C     C_R   0.446987 0.167654 0.446210 -0.241102
C36   C     C_R   0.447943 0.748094 0.447139 0.031115
Cl1   Cl    Cl    0.894571 0.665493 0.532307 -0.500824
Cl2   Cl    Cl    0.105466 0.334507 0.531248 -0.499497
Cl3   Cl    Cl    0.105466 0.665493 0.531251 -0.499496
Cl4   Cl    Cl    0.894571 0.334507 0.532308 -0.500825
H1    H     H_    0.738802 0.629173 0.510968 0.196887
H2    H     H_    0.593119 0.284713 0.594610 0.134479
H3    H     H_    0.593113 0.715286 0.594620 0.134478
H4    H     H_    0.406884 0.284666 0.405395 0.134275
H5    H     H_    0.261173 0.370828 0.509993 0.197831
H6    H     H_    0.261173 0.629172 0.509994 0.197833
H7    H     H_    0.738802 0.370827 0.510969 0.196886
H8    H     H_    0.405136 0.863421 0.403717 0.157062
H9    H     H_    0.594904 0.136626 0.596335 0.158099
H10   H     H_    0.594897 0.863374 0.596345 0.158098
H11   H     H_    0.405129 0.136579 0.403726 0.157063
H12   H     H_    0.406891 0.715334 0.405385 0.134274
N1    N     N_R   0.500000 0.707230 0.500000 -0.090570
N2    N     N_R   0.500000 0.292770 0.500000 -0.090570
O1    O     O_R   0.389110 0.566570 0.500000 -0.620839
O2    O     O_R   0.610890 0.433430 0.500000 -0.620775
O3    O     O_R   0.610890 0.566570 0.500000 -0.620774
O4    O     O_R   0.389110 0.433430 0.500000 -0.620841
O5    O     O_R   0.500000 0.566560 0.373710 -0.598111
O6    O     O_R   0.500000 0.433440 0.626290 -0.598554
O7    O     O_R   0.500000 0.566560 0.626290 -0.598556
O8    O     O_R   0.500000 0.433440 0.373710 -0.598109
Zn1   Zn    Zn3+2 0.500000 0.588860 0.500000 0.956993
Zn2   Zn    Zn3+2 0.500000 0.411140 0.500000 0.956994

loop_
_geom_bond_atom_site_label_1
_geom_bond_atom_site_label_2
_ccdc_geom_bond_type
C1    C28   S    
C10   O6    A    
C21   C26   A    
O2    Zn2   S    
C19   Cl2   S    
N1    Zn1   S    
O5    Zn1   S    
C36   H12   S    
C6    C33   A    
O6    Zn2   S    
C5    C32   A    
C5    C34   A    
C13   C15   T    
C19   C24   A    
C1    O1    A    
C4    C35   A    
C7    C8    T    
C18   C29   A    
C20   C30   A    
C1    O4    A    
C3    N1    A    
C25   C28   A    
C35   H11   S    
C32   H8    S    
C3    H3    S    
C26   C27   A    
C12   O2    A    
C21   Cl4   S    
N2    Zn2   S    
C26   H7    S    
C2    H2    S    
C6    C8    S    
C24   H5    S    
C32   C36   A    
C2    C33   A    
C18   Cl1   S    
O3    Zn1   S    
C5    C7    S    
C22   C27   A    
C9    C11   S    
O4    Zn2   S    
C30   C31   S    
C11   C14   T    
C14   C16   S    
C34   H10   S    
C22   H1    S    
C20   C25   A    
C12   O3    A    
C12   C27   S    
C33   H9    S    
C9    O8    A    
C10   O7    A    
C23   C29   S    
C6    C35   A    
O7    Zn1   S    
C2    N2    A    
C15   C17   S    
C20   Cl3   S    
O8    Zn2   S    
C36   N1    A    
C4    H4    S    
C3    C34   A    
C4    N2    A    
C18   C22   A    
C19   C30   A    
C21   C29   A    
C25   H6    S    
C24   C28   A    
O1    Zn1   S    
C16   C17   T    
C9    O5    A    
C10   C13   S    
C23   C31   T    
