data_mof_unit_66964.cif
_audit_creation_date              2012-12-11T17:40:57-0500
_audit_creation_method            fapswitch 2.2
_symmetry_space_group_name_H-M    P1
_symmetry_Int_Tables_number       1
_space_group_crystal_system       triclinic
_cell_length_a                    8.218462
_cell_length_b                    12.787118
_cell_length_c                    14.203424
_cell_angle_alpha                 93.293927
_cell_angle_beta                  90.7487
_cell_angle_gamma                 98.61554
_cell_volume                      1473.00742292

loop_
_atom_site_label
_atom_site_type_symbol
_atom_type_description
_atom_site_fract_x
_atom_site_fract_y
_atom_site_fract_z
_atom_type_partial_charge
Ba1   Ba    Ba6+2 0.855630 0.555280 0.454520 1.729671
Ba2   Ba    Ba6+2 0.334200 0.444810 0.545490 1.788496
C1    C     C_3   0.610297 0.946007 0.180310 -0.331647
C2    C     C_R   0.181524 0.500418 0.196299 0.030863
C3    C     C_R   0.334766 0.555067 0.227405 -0.218456
C4    C     C_3   0.146566 0.803473 0.196504 0.437431
C5    C     C_R   0.446718 0.603383 0.164245 0.005473
C6    C     C_R   0.401202 0.607190 0.069689 -0.173094
C7    C     C_R   0.246453 0.556281 0.035831 0.000037
C8    C     C_R   0.137058 0.498701 0.098078 -0.063700
C9    C     C_R   0.055263 0.502685 0.901232 0.010821
C10   C     C_R   0.948037 0.443308 0.962920 0.067306
C11   C     C_R   0.009451 0.500973 0.803269 0.098806
C12   C     C_3   0.653221 0.856289 0.236841 0.340017
C13   C     C_R   0.856861 0.446649 0.771981 -0.226940
C14   C     C_R   0.747674 0.396363 0.834599 -0.060480
C15   C     C_R   0.796678 0.388977 0.927841 -0.082808
C16   C     C_3   0.133163 0.841130 0.097396 -0.275708
C17   C     C_R   0.203564 0.559705 0.939606 -0.035385
C18   C     C_R   0.755204 0.176327 0.548222 -0.264253
C19   C     C_R   0.430568 0.812346 0.462547 -0.403459
C20   C     C_R   0.400516 0.991967 0.434627 0.546773
C21   C     C_R   0.340493 0.885086 0.426475 -0.048685
C22   C     C_R   0.576191 0.846262 0.514486 0.064246
C23   C     C_3   0.452527 0.253057 0.242757 1.115036
C24   C     C_R   0.637740 0.957004 0.527167 -0.090295
C25   C     C_R   0.548857 0.031104 0.485355 -0.121421
C26   C     C_R   0.610678 0.141365 0.496464 0.083339
C27   C     C_R   0.847465 0.104839 0.584523 -0.065644
C28   C     C_3   0.222860 0.761201 0.656915 0.238646
C29   C     C_R   0.786996 0.996114 0.577338 -0.061952
C30   C     C_3   0.236383 0.879681 0.679027 -0.299651
C31   C     C_3   0.967172 0.241721 0.349274 0.590112
C32   C     C_3   0.910411 0.122925 0.330281 0.584681
C33   C     C_3   0.715365 0.672349 0.736880 0.309107
C34   C     C_3   0.353206 0.166235 0.175253 0.581278
C35   C     C_3   0.733151 0.694755 0.843245 -0.393221
C36   C     C_3   0.504994 0.358062 0.112794 0.075490
C37   C     C_3   0.042647 0.177651 0.809185 1.072244
C38   C     C_3   0.057203 0.127216 0.902918 0.555025
C39   C     C_3   0.542521 0.145750 0.772972 0.949963
C40   C     C_3   0.576232 0.057760 0.834810 -0.349701
C41   C     C_R   0.989908 0.440644 0.059367 0.012530
F1    F     F_    0.977038 0.085301 0.248777 -0.610013
F2    F     F_    0.346189 0.313101 0.287050 -0.765546
F3    F     F_    0.280600 0.082165 0.223734 -0.613534
F4    F     F_    0.124554 0.280378 0.817220 -0.678149
F5    F     F_    0.988076 0.184102 0.973545 -0.711195
F6    F     F_    0.440077 0.103136 0.698338 -0.708614
F7    F     F_    0.305007 0.054993 0.395303 -0.636810
H1    H     H_    0.744031 0.889075 0.293562 0.084497
H2    H     H_    0.613038 0.606018 0.722194 0.058348
H3    H     H_    0.555561 0.002729 0.227445 0.133019
H4    H     H_    0.841115 0.756605 0.860376 0.123834
H5    H     H_    0.750484 0.621847 0.878288 0.038926
H6    H     H_    0.620488 0.722766 0.871008 0.120929
H7    H     H_    0.538706 0.820353 0.270647 -0.073059
H8    H     H_    0.519687 0.914084 0.123285 0.097215
H9    H     H_    0.254870 0.198254 0.136694 0.040236
H10   H     H_    0.436431 0.134914 0.123295 -0.108416
H11   H     H_    0.722296 0.987814 0.148253 0.191271
H12   H     H_    0.329801 0.904430 0.736049 0.144152
H13   H     H_    0.169234 0.781300 0.045149 0.021814
H14   H     H_    0.910777 0.178617 0.794112 -0.379891
H15   H     H_    0.188670 0.126258 0.921430 0.011872
H16   H     H_    0.991699 0.044468 0.897691 -0.097847
H17   H     H_    0.661206 0.180640 0.743435 -0.108524
H18   H     H_    0.663133 0.091036 0.893265 0.101284
H19   H     H_    0.631714 0.997025 0.792329 0.080645
H20   H     H_    0.063681 0.726797 0.199879 0.038531
H21   H     H_    0.460003 0.019914 0.865502 0.096641
H22   H     H_    0.371553 0.554323 0.300755 0.088054
H23   H     H_    0.273290 0.923089 0.615680 0.112835
H24   H     H_    0.488553 0.647097 0.022167 0.071423
H25   H     H_    0.716369 0.341376 0.972782 0.069307
H26   H     H_    0.818852 0.448277 0.698907 0.036352
H27   H     H_    0.905894 0.393256 0.103606 0.127693
H28   H     H_    0.287941 0.606720 0.895286 0.087305
H29   H     H_    0.860680 0.943651 0.608540 0.090060
H30   H     H_    0.803439 0.260047 0.553561 0.044633
H31   H     H_    0.275647 0.791502 0.209602 -0.120369
H32   H     H_    0.381655 0.728818 0.454973 0.088124
H33   H     H_    0.004632 0.852588 0.081447 0.150779
H34   H     H_    0.115753 0.899806 0.702337 0.116193
H35   H     H_    0.215784 0.917327 0.091026 0.149983
H36   H     H_    0.344014 0.741574 0.635899 0.010158
H37   H     H_    0.131960 0.739219 0.598055 0.075825
H38   H     H_    0.380851 0.378461 0.123977 0.030106
H39   H     H_    0.495919 0.297415 0.053244 0.023293
H40   H     H_    0.586621 0.429426 0.092168 0.097310
H41   H     H_    0.869319 0.277683 0.386001 -0.360809
H42   H     H_    0.077180 0.252392 0.396154 0.042022
H43   H     H_    0.775205 0.106171 0.322241 -0.105936
H44   H     H_    0.947217 0.079220 0.390311 -0.014602
H45   H     H_    0.831421 0.649940 0.709570 -0.004285
O1    O     O_2   0.887370 0.460630 0.272300 -0.431370
O2    O     O_2   0.181168 0.111858 0.561004 -0.406992
O3    O     O_3   0.113134 0.118452 0.738593 -0.632226
O4    O     O_3   0.129410 0.451380 0.388510 -0.480041
O5    O     O_3   0.575400 0.626570 0.547370 -0.497337
O6    O     O_2   0.344320 0.238700 0.455090 -0.365977
O7    O     O_3   0.537789 0.199910 0.306989 -0.634909
O8    O     O_2   0.415853 0.416695 0.836627 -0.434854
O9    O     O_3   0.465080 0.219123 0.827035 -0.595638
O10   O     O_3   0.670210 0.653170 0.329170 -0.475361
O11   O     O_2   0.784843 0.590510 0.164648 -0.500720
O12   O     O_3   0.682440 0.764190 0.696076 -0.638742
O13   O     O_3   0.004696 0.289775 0.264288 -0.559116
O14   O     O_3   0.723624 0.785119 0.176372 -0.598093
O15   O     O_2   0.845380 0.761330 0.544970 -0.483374
O16   O     O_3   0.088930 0.704860 0.376040 -0.532127
O17   O     O_2   0.002419 0.886745 0.436174 -0.472050
O18   O     O_3   0.572218 0.320309 0.194043 -0.672027
O19   O     O_3   0.099884 0.879579 0.261942 -0.473050
O20   O     O_2   0.302330 0.539400 0.727760 -0.458608
O21   O     O_3   0.060300 0.548700 0.611500 -0.511024
O22   O     O_3   0.519500 0.346920 0.670840 -0.463764
O23   O     O_3   0.174360 0.709842 0.738457 -0.650776
O24   O     O_3   0.614310 0.373510 0.452640 -0.452681
O25   O     O_3   0.100780 0.295230 0.623970 -0.440648
P1    P     P_3+3 0.054400 0.427280 0.286870 1.101131
P2    P     P_3+3 0.668300 0.742890 0.573060 0.970226
P3    P     P_3+3 0.133353 0.840898 0.376019 1.073252
P4    P     P_3+3 0.135310 0.572810 0.713130 0.977886
P5    P     P_3+3 0.058474 0.156941 0.627515 1.057429
P6    P     P_3+3 0.656505 0.655564 0.206992 0.972880
P7    P     P_3+3 0.529036 0.240194 0.427496 1.158994
P8    P     P_3+3 0.536958 0.346859 0.793315 1.031747

loop_
_geom_bond_atom_site_label_1
_geom_bond_atom_site_label_2
_ccdc_geom_bond_type
C12   O14   S    
C27   P5    S    
C1    H3    S    
C39   C40   S    
C32   H43   S    
O13   P1    S    
C34   H9    S    
Ba1   O4    S    
C5    C6    A    
C39   H17   S    
C37   H14   S    
C36   H39   S    
C9    C17   A    
C24   C25   A    
O1    P1    D    
C33   C35   S    
C22   C24   A    
C3    H22   S    
C31   H41   S    
C16   H13   S    
C13   C14   A    
C4    H20   S    
Ba1   Ba2   S    
Ba1   O24   S    
Ba1   P2    S    
C4    O19   S    
C35   H6    S    
Ba2   O21   S    
C10   C41   A    
C7    C17   A    
O3    P5    S    
C14   C15   A    
C10   C15   A    
C34   F3    S    
Ba1   O21   S    
C28   H36   S    
C7    C8    A    
C26   P7    S    
O4    P1    S    
C13   H26   S    
C36   O18   S    
Ba2   O5    S    
C24   C29   A    
C4    H31   S    
C38   H16   S    
C40   H18   S    
C31   O13   S    
C4    C16   S    
Ba1   O5    S    
C39   F6    S    
Ba2   O22   S    
C16   H33   S    
C18   C27   A    
C1    H11   S    
C30   H34   S    
C16   H35   S    
C18   H30   S    
O16   P3    S    
C32   F1    S    
O17   P3    D    
O2    P5    D    
O7    P7    S    
C31   H42   S    
C37   C38   S    
C3    C5    A    
C11   P4    S    
Ba2   O25   S    
O25   P5    S    
C6    C7    A    
C37   O3    S    
C21   P3    S    
C18   C26   A    
Ba2   O6    S    
C40   H19   S    
C36   H38   S    
C17   H28   S    
C23   O18   S    
Ba1   O15   S    
Ba2   O20   S    
C12   H1    S    
O9    P8    S    
C9    C10   A    
C6    H24   S    
C31   C32   S    
O23   P4    S    
O8    P8    D    
C14   P8    S    
C1    C12   S    
O19   P3    S    
O10   P6    S    
Ba2   O4    S    
Ba2   P4    S    
C20   C25   A    
C19   C21   A    
C35   H4    S    
C2    C8    A    
C23   F2    S    
C33   H2    S    
C37   F4    S    
C38   F5    S    
C12   H7    S    
C36   H40   S    
O20   P4    D    
O21   P4    S    
C8    C41   A    
C32   H44   S    
C2    C3    A    
C34   H10   S    
Ba2   O24   S    
C29   H29   S    
C33   H45   S    
C41   H27   S    
C28   O23   S    
C22   P2    S    
O11   P6    D    
C39   O9    S    
C20   F7    S    
C38   H15   S    
C11   C13   A    
C30   H12   S    
C27   C29   A    
O15   P2    D    
C28   C30   S    
C9    C11   A    
Ba1   O1    S    
C40   H21   S    
O6    P7    D    
C2    P1    S    
O5    P2    S    
C5    P6    S    
C23   O7    S    
O22   P8    S    
Ba1   P1    S    
C33   O12   S    
C23   C34   S    
C35   H5    S    
C1    H8    S    
O14   P6    S    
C19   H32   S    
C19   C22   A    
C25   C26   A    
C15   H25   S    
C20   C21   A    
O12   P2    S    
C28   H37   S    
C30   H23   S    
Ba1   O16   S    
Ba1   O10   S    
O24   P7    S    
