data_mof_unit_47668.cif
_audit_creation_date              2012-10-26T18:43:31-0400
_audit_creation_method            fapswitch 2.2
_symmetry_space_group_name_H-M    P1
_symmetry_Int_Tables_number       1
_space_group_crystal_system       triclinic
_cell_length_a                    10.735332
_cell_length_b                    10.806689
_cell_length_c                    9.541839
_cell_angle_alpha                 89.766213
_cell_angle_beta                  89.721269
_cell_angle_gamma                 90.238455
_cell_volume                      1106.94913691

loop_
_atom_site_label
_atom_site_type_symbol
_atom_type_description
_atom_site_fract_x
_atom_site_fract_y
_atom_site_fract_z
_atom_type_partial_charge
C1    C     C_R   0.497406 0.262418 0.500343 0.543817
C2    C     C_R   0.505919 0.935640 0.622073 0.012011
C3    C     C_3   0.615340 0.926740 0.717734 -0.267518
C4    C     C_R   0.259832 0.500061 0.500066 0.544682
C5    C     C_3   0.617707 0.067307 0.718659 -0.263477
C6    C     C_R   0.565033 0.588138 0.072825 0.201796
C7    C     C_R   0.426686 0.420476 0.075237 -0.007026
C8    C     C_R   0.426740 0.420409 0.926297 -0.011745
C9    C     C_R   0.564930 0.588239 0.925341 0.178405
C10   C     C_3   0.701953 0.610191 0.918472 -0.287356
C11   C     C_3   0.702104 0.609498 0.077128 -0.283169
C12   C     C_3   0.878319 0.500778 0.499226 0.050323
C13   C     C_R   0.493947 0.737600 0.499468 0.561717
C14   C     C_R   0.740247 0.500592 0.499663 0.540747
C15   C     C_3   0.071000 0.383535 0.575839 -0.235826
C16   C     C_3   0.927201 0.383217 0.574419 -0.232689
C17   C     C_3   0.072356 0.617183 0.575125 -0.231587
C18   C     C_3   0.072240 0.500522 0.347026 -0.228841
C19   C     C_3   0.121932 0.500342 0.499689 0.045240
C20   C     C_3   0.928501 0.616878 0.575994 -0.237426
C21   C     C_3   0.929798 0.502621 0.346951 -0.236138
C22   C     C_R   0.507854 0.062646 0.623408 0.017267
C23   C     C_R   0.483371 0.129591 0.501873 -0.019588
C24   C     C_R   0.436211 0.067101 0.384736 -0.138800
C25   C     C_R   0.431810 0.937764 0.382960 0.057312
C26   C     C_R   0.478366 0.870783 0.499704 0.011580
Cu1   Cu    Cu3+1 0.499990 0.499980 0.640670 0.932454
Cu2   Cu    Cu3+1 0.500010 0.500020 0.359330 0.952983
H1    H     H_    0.104027 0.381375 0.686223 0.125065
H2    H     H_    0.369234 0.354469 0.131771 0.111580
H3    H     H_    0.106283 0.298619 0.523556 0.111882
H4    H     H_    0.369386 0.354316 0.871007 0.116477
H5    H     H_    0.753787 0.530796 0.873464 0.145099
H6    H     H_    0.725783 0.701893 0.872462 0.116279
H7    H     H_    0.752818 0.528848 0.120444 0.138346
H8    H     H_    0.726469 0.700608 0.123423 0.133567
H9    H     H_    0.892864 0.298880 0.519990 0.109588
H10   H     H_    0.891619 0.379312 0.684125 0.121591
H11   H     H_    0.106720 0.619942 0.684945 0.135305
H12   H     H_    0.898370 0.588028 0.292345 0.121894
H13   H     H_    0.894514 0.618040 0.686211 0.119931
H14   H     H_    0.108132 0.582965 0.288894 0.152363
H15   H     H_    0.105066 0.416645 0.290584 0.122487
H16   H     H_    0.894478 0.421200 0.287807 0.123498
H17   H     H_    0.107346 0.702032 0.521063 0.128041
H18   H     H_    0.893751 0.702368 0.524063 0.108865
H19   H     H_    0.405869 0.118300 0.293274 0.148362
H20   H     H_    0.589518 0.885917 0.821044 0.156757
H21   H     H_    0.698302 0.885086 0.666301 0.122535
H22   H     H_    0.593782 0.107231 0.822506 0.148725
H23   H     H_    0.701823 0.107722 0.667237 0.127904
I1    I     I_    0.353981 0.856765 0.199834 -0.438231
N1    N     N_R   0.500800 0.500930 0.147930 -0.226128
N2    N     N_R   0.500800 0.500890 0.852020 -0.234582
O1    O     O_R   0.500000 0.319640 0.618810 -0.502391
O2    O     O_R   0.500010 0.319680 0.381230 -0.513472
O3    O     O_R   0.317690 0.499960 0.618790 -0.509877
O4    O     O_R   0.317700 0.500000 0.381210 -0.501569
O5    O     O_R   0.499990 0.680320 0.618770 -0.498295
O6    O     O_R   0.500000 0.680360 0.381190 -0.464139
O7    O     O_R   0.682300 0.500000 0.618790 -0.514220
O8    O     O_R   0.682310 0.500040 0.381210 -0.512384

loop_
_geom_bond_atom_site_label_1
_geom_bond_atom_site_label_2
_ccdc_geom_bond_type
C4    O3    A    
C2    C22   A    
Cu2   N1    S    
Cu2   O8    S    
C1    C23   S    
C13   O5    A    
Cu2   O4    S    
C21   H16   S    
C9    C10   S    
C16   H9    S    
C23   C24   A    
C12   C20   S    
C6    C9    A    
C11   H7    S    
C2    C3    S    
C1    O1    A    
C25   I1    S    
C7    C8    A    
C10   H6    S    
C13   O6    A    
Cu1   O5    S    
C18   H15   S    
Cu1   O3    S    
C15   C19   S    
C24   H19   S    
C21   H12   S    
Cu2   O2    S    
C20   H13   S    
C12   C21   S    
C11   H8    S    
C17   C19   S    
C1    O2    A    
C12   C14   S    
C15   H1    S    
C10   H5    S    
C18   H14   S    
C3    H21   S    
C13   C26   S    
Cu1   O1    S    
C5    H22   S    
Cu1   N2    S    
C10   C11   S    
C7    N1    A    
C6    N1    A    
C4    O4    A    
C15   C16   S    
C18   C21   S    
C3    H20   S    
Cu1   Cu2   S    
C17   C20   S    
Cu2   O6    S    
C24   C25   A    
C2    C26   A    
C18   C19   S    
C17   H11   S    
C8    N2    A    
C6    C11   S    
C7    H2    S    
C8    H4    S    
C22   C23   A    
C5    H23   S    
C9    N2    A    
Cu1   O7    S    
C16   H10   S    
C25   C26   A    
C14   O7    A    
C4    C19   S    
C15   H3    S    
C20   H18   S    
C5    C22   S    
C12   C16   S    
C17   H17   S    
C3    C5    S    
C14   O8    A    
