data_mof_unit_40649.cif
_audit_creation_date              2013-03-05T16:48:41-0500
_audit_creation_method            fapswitch 2.2
_symmetry_space_group_name_H-M    P1
_symmetry_Int_Tables_number       1
_space_group_crystal_system       triclinic
_cell_length_a                    27.723758
_cell_length_b                    8.994528
_cell_length_c                    8.092195
_cell_angle_alpha                 90.000167
_cell_angle_beta                  89.999967
_cell_angle_gamma                 89.999985
_cell_volume                      2017.88688119

loop_
_atom_site_label
_atom_site_type_symbol
_atom_site_description
_atom_site_fract_x
_atom_site_fract_y
_atom_site_fract_z
_atom_type_partial_charge
O1    O     O_R   0.500000 0.285350 0.636850 -0.614587
O2    O     O_R   0.500000 0.714650 0.363150 -0.614587
O3    O     O_R   0.500000 0.714650 0.636850 -0.614584
O4    O     O_R   0.500000 0.285350 0.363150 -0.614584
C1    C     C_R   0.500000 0.217830 0.500000 0.939879
C2    C     C_R   0.500000 0.782170 0.500000 0.939879
O5    O     O_R   0.428760 0.500000 0.636860 -0.623079
O6    O     O_R   0.571240 0.500000 0.363140 -0.623078
O7    O     O_R   0.571240 0.500000 0.636860 -0.623078
O8    O     O_R   0.428760 0.500000 0.363140 -0.623079
C3    C     C_R   0.405701 0.500000 0.500000 0.956651
C4    C     C_R   0.594299 0.500000 0.500000 0.956651
Zn1   Zn    Zn3+2 0.500000 0.500000 0.682780 1.013732
Zn2   Zn    Zn3+2 0.500000 0.500000 0.317220 1.013732
C5    C     C_R   0.177312 0.370592 0.533512 0.731279
C6    C     C_R   0.822687 0.629413 0.533513 0.731278
C7    C     C_R   0.177312 0.629414 0.466485 0.731280
C8    C     C_R   0.822687 0.370593 0.466480 0.731278
O9    O     O_2   0.202720 0.245663 0.564426 -0.404882
O10   O     O_2   0.797279 0.754342 0.564432 -0.404892
O11   O     O_2   0.202720 0.754344 0.435572 -0.404881
O12   O     O_2   0.797279 0.245664 0.435562 -0.404891
N1    N     N_R   0.201107 0.500003 0.499999 -0.343214
N2    N     N_R   0.798892 0.500003 0.499997 -0.343207
C9    C     C_R   0.277516 0.498312 0.349882 0.681252
C10   C     C_R   0.722483 0.501760 0.349885 0.681246
C11   C     C_R   0.277516 0.501693 0.650117 0.681253
C12   C     C_R   0.722484 0.498244 0.650111 0.681246
C13   C     C_R   0.327634 0.498364 0.349814 -0.275551
C14   C     C_R   0.672365 0.501706 0.349817 -0.275550
C15   C     C_R   0.327634 0.501639 0.650186 -0.275552
C16   C     C_R   0.672365 0.498296 0.650181 -0.275549
C17   C     C_R   0.252490 0.500003 0.499999 -0.040740
C18   C     C_R   0.747509 0.500003 0.499998 -0.040709
C19   C     C_R   0.101432 0.500003 0.499998 -0.227066
C20   C     C_R   0.898567 0.500003 0.499996 -0.227064
C21   C     C_R   0.126784 0.367566 0.534174 -0.236944
C22   C     C_R   0.873215 0.632441 0.534174 -0.236941
C23   C     C_R   0.126784 0.632441 0.465822 -0.236944
C24   C     C_R   0.873216 0.367566 0.465819 -0.236940
C25   C     C_R   0.100961 0.237500 0.571606 0.641029
C26   C     C_R   0.899038 0.762506 0.571607 0.641029
C27   C     C_R   0.100961 0.762506 0.428389 0.641029
C28   C     C_R   0.899038 0.237500 0.428385 0.641028
C29   C     C_R   0.353002 0.500001 0.500000 -0.236093
C30   C     C_R   0.646998 0.500001 0.499999 -0.236097
H1    H     H_    0.346480 0.503044 0.767439 0.209917
H2    H     H_    0.653520 0.496837 0.767431 0.209918
H3    H     H_    0.346481 0.496959 0.232561 0.209917
H4    H     H_    0.653519 0.503165 0.232568 0.209918
C31   C     C_R   0.974808 0.364378 0.486092 -0.085465
C32   C     C_R   0.025192 0.635629 0.486094 -0.085466
C33   C     C_R   0.974807 0.635629 0.513900 -0.085465
C34   C     C_R   0.025192 0.364378 0.513900 -0.085466
C35   C     C_R   0.949447 0.500003 0.499996 -0.060855
C36   C     C_R   0.050553 0.500003 0.499997 -0.060854
C37   C     C_R   0.949135 0.236135 0.438003 0.648442
C38   C     C_R   0.050865 0.763872 0.438005 0.648443
C39   C     C_R   0.949134 0.763872 0.561989 0.648442
C40   C     C_R   0.050865 0.236135 0.561989 0.648442
C41   C     C_1   0.500000 0.065046 0.500000 -0.163714
C42   C     C_1   0.500000 0.934954 0.500000 -0.163714
N3    N     N_1   0.500000 0.500000 0.073640 -0.028017
N4    N     N_1   0.500000 0.500000 0.926360 -0.028017
F1    F     F_    0.253194 0.503971 0.795640 -0.568572
F2    F     F_    0.746806 0.495900 0.795629 -0.568583
F3    F     F_    0.253194 0.496035 0.204359 -0.568572
F4    F     F_    0.746806 0.504105 0.204366 -0.568583
F5    F     F_    0.123752 0.111733 0.621853 -0.509867
F6    F     F_    0.876247 0.888274 0.621853 -0.509866
F7    F     F_    0.123752 0.888273 0.378143 -0.509867
F8    F     F_    0.876248 0.111733 0.378139 -0.509866
F9    F     F_    0.972309 0.114354 0.380468 -0.498255
F10   F     F_    0.027690 0.885653 0.380471 -0.498255
F11   F     F_    0.972309 0.885653 0.619524 -0.498255
F12   F     F_    0.027690 0.114354 0.619523 -0.498255

loop_
_geom_bond_atom_site_label_1
_geom_bond_atom_site_label_2
_geom_bond_distance
_ccdc_geom_bond_type
C12   F2    1.357125 S    
C9    F3    1.357147 S    
O3    C2    1.263010 A    
C33   C39   1.410155 A    
C13   H3    1.083250 S    
C11   C17   1.399032 A    
O5    C3    1.278766 A    
C7    N1    1.365140 A    
O1    C1    1.263009 A    
C19   C21   1.410486 A    
C22   C26   1.404597 A    
C26   F6    1.358016 S    
C7    C23   1.401115 A    
C37   F9    1.352542 S    
O7    Zn1   2.009690 S    
C5    C21   1.401115 A    
C20   C24   1.410487 A    
C8    C24   1.401112 A    
C27   C38   1.391087 A    
C5    O9    1.349603 S    
C10   C18   1.399008 A    
N1    C17   1.424538 S    
O6    Zn2   2.009691 S    
C31   C37   1.410157 A    
O3    Zn1   1.966126 S    
C6    O10   1.349603 S    
C5    N1    1.365140 A    
C14   H4    1.083230 S    
C12   C18   1.399010 A    
C6    N2    1.365138 A    
C15   H1    1.083249 S    
C21   C25   1.404597 A    
C16   H2    1.083231 S    
O2    C2    1.263009 A    
C33   C35   1.412493 A    
C9    C13   1.389462 A    
C34   C36   1.412492 A    
C11   C15   1.389465 A    
C12   C16   1.389462 A    
C4    C30   1.461012 S    
O8    Zn2   2.009693 S    
C34   C40   1.410155 A    
C40   F12   1.352541 S    
C7    O11   1.349604 S    
C13   C29   1.404226 A    
C19   C23   1.410486 A    
C11   F1    1.357145 S    
C24   C28   1.404597 A    
C28   C37   1.391085 A    
O6    C4    1.278766 A    
C1    C41   1.374224 S    
C32   C38   1.410155 A    
C10   C14   1.389462 A    
C8    N2    1.365138 A    
C3    C29   1.461014 S    
O1    Zn1   1.966125 S    
C39   F11   1.352541 S    
C32   C33   1.414853 A    
C38   F10   1.352540 S    
C25   F5    1.358018 S    
C27   F7    1.358016 S    
C19   C36   1.410563 A    
C8    O12   1.349603 S    
C16   C30   1.404204 A    
C14   C30   1.404207 A    
C25   C40   1.391085 A    
O4    C1    1.263010 A    
C26   C39   1.391088 A    
C23   C27   1.404597 A    
C31   C34   1.414851 A    
C10   F4    1.357127 S    
C2    C42   1.374224 S    
C20   C22   1.410486 A    
C20   C35   1.410563 A    
Zn1   N4    1.971097 S    
Zn2   N3    1.971097 S    
C28   F8    1.358016 S    
C31   C35   1.412494 A    
O4    Zn2   1.966127 S    
C41   C42   1.170113 T    
O2    Zn2   1.966124 S    
O7    C4    1.278766 A    
N2    C18   1.424533 S    
O8    C3    1.278766 A    
N3    N4    1.191818 T    
O5    Zn1   2.009694 S    
C15   C29   1.404227 A    
C6    C22   1.401112 A    
C32   C36   1.412493 A    
C9    C17   1.399033 A    
