data_mof_unit_47302.cif
_audit_creation_date              2012-12-10T17:32:13-0500
_audit_creation_method            fapswitch 2.2
_symmetry_space_group_name_H-M    P1
_symmetry_Int_Tables_number       1
_space_group_crystal_system       triclinic
_cell_length_a                    12.413697
_cell_length_b                    13.191278
_cell_length_c                    15.009754
_cell_angle_alpha                 77.71578
_cell_angle_beta                  101.091697
_cell_angle_gamma                 117.164319
_cell_volume                      2123.85151673

loop_
_atom_site_label
_atom_site_type_symbol
_atom_type_description
_atom_site_fract_x
_atom_site_fract_y
_atom_site_fract_z
_atom_type_partial_charge
C1    C     C_R   0.855235 0.287232 0.503091 0.836155
C2    C     C_R   0.060805 0.611222 0.082597 0.025603
C3    C     C_R   0.898652 0.292699 0.073823 0.190711
C4    C     C_R   0.890183 0.289263 0.979848 0.343913
C5    C     C_R   0.949852 0.392356 0.919725 -0.047442
C6    C     C_R   0.004546 0.499913 0.954113 -0.087228
C7    C     C_R   0.057504 0.604476 0.894756 0.052278
C8    C     C_R   0.109765 0.709366 0.929086 -0.214343
C9    C     C_R   0.110105 0.714513 0.020662 0.242962
C10   C     C_R   0.955079 0.392754 0.826005 0.151956
C11   C     C_R   0.000466 0.498137 0.767433 -0.193639
C12   C     C_R   0.999119 0.498608 0.670553 0.886381
C13   C     C_R   0.055373 0.603029 0.801461 0.289927
C14   C     C_R   0.277398 0.041550 0.453975 0.255995
C15   C     C_R   0.230054 0.837442 0.475200 -0.216613
C16   C     C_R   0.817067 0.082396 0.536130 -0.242504
C17   C     C_R   0.737302 0.966975 0.554150 -0.225367
C18   C     C_R   0.611434 0.930977 0.536034 0.313437
C19   C     C_R   0.565097 0.010270 0.485531 0.059069
C20   C     C_R   0.648175 0.126846 0.461364 -0.012576
C21   C     C_R   0.438393 0.980837 0.464695 -0.068675
C22   C     C_R   0.398651 0.068496 0.444264 -0.048197
C23   C     C_R   0.145472 0.713891 0.487274 0.934734
C24   C     C_R   0.480168 0.178915 0.409704 -0.114882
C25   C     C_R   0.600685 0.202318 0.407084 0.395909
C26   C     C_R   0.349841 0.868706 0.458532 0.379774
C27   C     C_R   0.195859 0.925411 0.479424 0.165384
C28   C     C_R   0.773254 0.164484 0.496095 -0.065372
C29   C     C_R   0.384460 0.409743 0.680890 0.166975
C30   C     C_R   0.748614 0.633645 0.367127 0.406676
C31   C     C_R   0.652678 0.666990 0.344041 0.119122
C32   C     C_R   0.555603 0.616010 0.395980 -0.168649
C33   C     C_R   0.553726 0.536762 0.474115 -0.067515
C34   C     C_R   0.001855 0.501776 0.329630 0.918388
C35   C     C_R   0.659926 0.516907 0.503849 0.110111
C36   C     C_R   0.453997 0.486129 0.529054 -0.138075
C37   C     C_R   0.478705 0.453761 0.623762 -0.039182
C38   C     C_R   0.596241 0.462052 0.657119 0.207499
C39   C     C_R   0.666544 0.459833 0.595143 0.361917
C40   C     C_R   0.332343 0.469229 0.494229 0.574546
C41   C     C_R   0.271240 0.406752 0.643983 -0.072061
C42   C     C_R   0.063740 0.610379 0.177783 0.324701
C43   C     C_R   0.006551 0.505489 0.233561 -0.128921
C44   C     C_R   0.954264 0.401848 0.199496 -0.197838
C45   C     C_R   0.954013 0.398962 0.107221 0.032253
C46   C     C_R   0.006170 0.503477 0.047859 -0.057982
Cu1   Cu    Cu3+1 0.098270 0.475420 0.521130 1.021187
Cu2   Cu    Cu3+1 0.901730 0.524580 0.478870 1.035390
H1    H     H_    0.449136 0.243963 0.377856 0.196366
H2    H     H_    0.912744 0.108115 0.559867 0.172218
H3    H     H_    0.773284 0.906727 0.590391 0.153032
H4    H     H_    0.202507 0.377627 0.689380 0.156386
H5    H     H_    0.912490 0.323163 0.246206 0.198792
H6    H     H_    0.485429 0.645606 0.377435 0.251885
H7    H     H_    0.148617 0.790341 0.884576 0.204822
N1    N     N_R   0.246280 0.438190 0.553160 -0.225242
N2    N     N_R   0.754320 0.561190 0.447410 -0.215058
O1    O     O_R   0.972510 0.318130 0.526570 -0.611640
O2    O     O_R   0.806530 0.359650 0.490890 -0.495522
O3    O     O_R   0.082980 0.479210 0.647590 -0.599145
O4    O     O_R   0.917000 0.520730 0.611900 -0.563878
O5    O     O_R   0.193470 0.640350 0.509110 -0.521193
O6    O     O_R   0.027490 0.681870 0.473430 -0.577893
O7    O     O_R   0.083000 0.479270 0.388100 -0.511544
O8    O     O_R   0.917020 0.520790 0.352410 -0.526655
Cl1   Cl    Cl    0.140463 0.735817 0.232412 -0.569912
N3    N     N_2   0.241528 0.131780 0.445583 -0.408848
H8    H     H_    0.191838 0.124287 0.496335 0.281601
C47   C     C_3   0.194180 0.165506 0.353933 -0.645762
H9    H     H_    0.104328 0.163947 0.355508 0.225730
H10   H     H_    0.183060 0.107826 0.305062 0.220248
H11   H     H_    0.257743 0.254126 0.327769 0.276645
Cl2   Cl    Cl    0.381966 0.782162 0.401849 -0.575597
N4    N     N_2   0.533864 0.818381 0.576023 -0.413666
H12   H     H_    0.566783 0.758132 0.580636 0.252664
C48   C     C_3   0.492688 0.814159 0.661171 -0.604223
H13   H     H_    0.426791 0.724660 0.683917 0.238338
H14   H     H_    0.446155 0.870937 0.651923 0.248427
H15   H     H_    0.571185 0.841424 0.715133 0.224297
Cl3   Cl    Cl    0.678059 0.310242 0.319958 -0.665532
N5    N     N_2   0.650000 0.488821 0.747207 -0.440075
H16   H     H_    0.612322 0.527043 0.776923 0.263885
C49   C     C_3   0.681202 0.404455 0.810082 -0.516555
H17   H     H_    0.598640 0.324416 0.826325 0.260516
H18   H     H_    0.729696 0.439787 0.874703 0.201208
H19   H     H_    0.741577 0.383657 0.780167 0.258776
N6    N     N_2   0.399237 0.361842 0.774062 -0.435204
H20   H     H_    0.367836 0.390416 0.817858 0.247330
C50   C     C_3   0.350562 0.237565 0.788130 -0.652578
H21   H     H_    0.392076 0.209260 0.744804 0.268494
H22   H     H_    0.372045 0.206970 0.861149 0.230450
H23   H     H_    0.249977 0.198146 0.771021 0.210709
Cl4   Cl    Cl    0.285334 0.458850 0.376683 -0.619162
N7    N     N_2   0.841401 0.678750 0.307706 -0.357284
H24   H     H_    0.890651 0.766760 0.302757 0.248051
C51   C     C_3   0.801147 0.641256 0.217916 -0.569182
H25   H     H_    0.881216 0.666635 0.181829 0.221337
H26   H     H_    0.744711 0.682332 0.174652 0.217439
H27   H     H_    0.748383 0.546245 0.224258 0.268366
N8    N     N_2   0.651841 0.750415 0.266627 -0.438194
H28   H     H_    0.569891 0.723929 0.225413 0.289205
C52   C     C_3   0.690874 0.864383 0.288677 -0.648190
H29   H     H_    0.629167 0.863575 0.333804 0.266533
H30   H     H_    0.785028 0.896554 0.323427 0.211411
H31   H     H_    0.689257 0.924087 0.224535 0.246926
Cl5   Cl    Cl    0.657509 0.320703 0.612264 -0.657796
N9    N     N_2   0.853987 0.188549 0.136482 -0.413615
H32   H     H_    0.767997 0.127925 0.117344 0.303604
C53   C     C_3   0.941426 0.141232 0.169240 -0.673681
H33   H     H_    0.908359 0.071570 0.227402 0.219277
H34   H     H_    0.954354 0.105535 0.113543 0.255717
H35   H     H_    0.030411 0.208762 0.193804 0.239111
Cl6   Cl    Cl    0.794331 0.154542 0.941293 -0.632081
N10   N     N_2   0.914169 0.288141 0.789538 -0.353815
H36   H     H_    0.861316 0.282238 0.727097 0.276906
C54   C     C_3   0.002662 0.242403 0.798498 -0.580606
H37   H     H_    0.967438 0.154577 0.837976 0.262016
H38   H     H_    0.091724 0.296914 0.834313 0.204036
H39   H     H_    0.016803 0.235560 0.729603 0.191860
Cl7   Cl    Cl    0.128862 0.731848 0.726650 -0.724440
N11   N     N_2   0.157908 0.825339 0.047725 -0.360092
H40   H     H_    0.240059 0.882170 0.023320 0.264791
C55   C     C_3   0.071936 0.875036 0.029976 -0.604582
H41   H     H_    0.113077 0.956885 0.059320 0.235874
H42   H     H_    0.987669 0.815612 0.062532 0.234378
H43   H     H_    0.048341 0.893405 0.954909 0.203328
N12   N     N_2   0.084465 0.899526 0.512435 -0.402990
H44   H     H_    0.054466 0.830201 0.563193 0.311144
C56   C     C_3   0.988495 0.912069 0.446133 -0.670791
H45   H     H_    0.903901 0.830503 0.451171 0.214083
H46   H     H_    0.013031 0.934133 0.374874 0.229618
H47   H     H_    0.969688 0.980631 0.461685 0.228504

loop_
_geom_bond_atom_site_label_1
_geom_bond_atom_site_label_2
_ccdc_geom_bond_type
C16   C28   A    
C39   Cl5   S    
C21   C26   A    
C30   N2    A    
C25   Cl3   S    
C55   H41   S    
C19   C20   A    
C48   H15   S    
C40   Cl4   S    
N6    H20   S    
C17   H3    S    
Cu1   O5    S    
N5    H16   S    
Cu2   N2    S    
C45   C46   A    
C2    C46   A    
N4    C48   S    
C36   C37   A    
C19   C21   A    
C48   H14   S    
C56   H45   S    
C1    O2    A    
C30   C31   A    
C55   H42   S    
C20   C25   A    
C51   H27   S    
C33   C36   A    
C54   H37   S    
C34   O8    A    
C52   H31   S    
C18   C19   A    
C47   H10   S    
Cu1   O3    S    
C27   N12   S    
C44   H5    S    
C23   O5    A    
Cu1   Cu2   S    
C16   C17   A    
C40   N1    A    
C51   H26   S    
C1    C28   S    
C9    N11   S    
C14   N3    S    
Cu2   O8    S    
C50   H22   S    
C41   H4    S    
C10   N10   S    
N7    C51   S    
C56   H47   S    
C15   C23   S    
C18   N4    S    
C21   C22   A    
N9    C53   S    
C47   H9    S    
C8    H7    S    
C32   H6    S    
N5    C49   S    
N10   H36   S    
C38   C39   A    
N11   C55   S    
N4    H12   S    
N3    H8    S    
C4    Cl6   S    
C36   C40   A    
C48   H13   S    
C53   H35   S    
Cu1   O7    S    
C8    C9    A    
Cu2   O6    S    
C20   C28   A    
C3    N9    S    
C26   Cl2   S    
C3    C45   A    
C55   H43   S    
N3    C47   S    
C47   H11   S    
C35   C39   A    
C43   C44   A    
N12   C56   S    
C41   N1    A    
C37   C38   A    
C15   C27   A    
C49   H17   S    
N9    H32   S    
C51   H25   S    
C34   O7    A    
C17   C18   A    
N7    H24   S    
C31   N8    S    
C24   C25   A    
C50   H23   S    
C52   H30   S    
N11   H40   S    
C49   H18   S    
N6    C50   S    
C38   N5    S    
C14   C27   A    
C22   C24   A    
C42   C43   A    
N12   H44   S    
C13   Cl7   S    
C44   C45   A    
Cu2   O2    S    
N8    C52   S    
C24   H1    S    
C6    C46   A    
C29   C41   A    
C31   C32   A    
C34   C43   S    
C16   H2    S    
C4    C5    A    
C15   C26   A    
N10   C54   S    
C11   C12   S    
C6    C7    A    
C54   H39   S    
C35   N2    A    
C32   C33   A    
C14   C22   A    
C53   H34   S    
C5    C10   A    
C30   N7    S    
C1    O1    A    
Cu1   O1    S    
C12   O4    A    
C11   C13   A    
Cu2   O4    S    
C5    C6    A    
C2    C42   A    
C23   O6    A    
N8    H28   S    
C33   C35   A    
C54   H38   S    
C52   H29   S    
C29   N6    S    
C7    C8    A    
C10   C11   A    
C12   O3    A    
C7    C13   A    
C49   H19   S    
C29   C37   A    
C42   Cl1   S    
C50   H21   S    
C53   H33   S    
C2    C9    A    
C3    C4    A    
Cu1   N1    S    
C56   H46   S    
