data_mof_unit_41252.cif
_audit_creation_date              2012-12-11T16:24:29-0500
_audit_creation_method            fapswitch 2.2
_symmetry_space_group_name_H-M    P1
_symmetry_Int_Tables_number       1
_space_group_crystal_system       triclinic
_cell_length_a                    14.75093
_cell_length_b                    14.768549
_cell_length_c                    33.29103
_cell_angle_alpha                 96.099175
_cell_angle_beta                  96.249936
_cell_angle_gamma                 61.191356
_cell_volume                      6305.01229959

loop_
_atom_site_label
_atom_site_type_symbol
_atom_type_description
_atom_site_fract_x
_atom_site_fract_y
_atom_site_fract_z
_atom_type_partial_charge
C1    C     C_R   0.390932 0.699714 0.446115 0.567470
C2    C     C_1   0.313336 0.339893 0.229254 0.142216
C3    C     C_1   0.318573 0.344053 0.265563 0.058777
C4    C     C_R   0.405725 0.386256 0.434011 0.565231
C5    C     C_R   0.290908 0.294737 0.101869 -0.098532
C6    C     C_R   0.756922 0.372482 0.410174 -0.040747
C7    C     C_R   0.800109 0.427724 0.395096 0.434940
C8    C     C_R   0.829985 0.406864 0.355402 0.431836
C9    C     C_R   0.817326 0.330348 0.330228 -0.026886
C10   C     C_R   0.784312 0.268416 0.346669 -0.179040
C11   C     C_R   0.754370 0.289277 0.386269 -0.196731
C12   C     C_R   0.328253 0.348148 0.308817 -0.031887
C13   C     C_R   0.835484 0.311572 0.204851 0.337777
C14   C     C_R   0.828552 0.321394 0.286352 0.371038
C15   C     C_R   0.835973 0.390145 0.142336 -0.089167
C16   C     C_R   0.700909 0.409884 0.447538 0.567578
C17   C     C_R   0.865866 0.379001 0.103127 -0.107747
C18   C     C_R   0.909923 0.197755 0.099252 -0.109604
C19   C     C_R   0.880033 0.208910 0.138566 -0.089339
C20   C     C_R   0.847450 0.304078 0.161094 0.034111
C21   C     C_R   0.907715 0.281612 0.081981 0.015503
C22   C     C_R   0.370237 0.755376 0.409165 -0.042406
C23   C     C_R   0.405611 0.263039 0.328746 -0.054013
C24   C     C_R   0.276256 0.783233 0.385973 -0.142215
C25   C     C_R   0.264448 0.811810 0.346455 0.382001
C26   C     C_R   0.346955 0.813201 0.329411 -0.026521
C27   C     C_R   0.436683 0.796052 0.353993 -0.116438
C28   C     C_R   0.393560 0.701192 0.561293 0.545938
C29   C     C_R   0.448579 0.767366 0.393552 0.376654
C30   C     C_R   0.346130 0.828518 0.204537 0.353337
C31   C     C_R   0.344092 0.823054 0.285647 0.357911
C32   C     C_R   0.265383 0.826486 0.135042 -0.128185
C33   C     C_R   0.244110 0.856877 0.095441 0.367968
C34   C     C_R   0.426188 0.271628 0.370484 0.388517
C35   C     C_R   0.380783 0.905200 0.104948 -0.139478
C36   C     C_R   0.402018 0.874936 0.144587 0.387927
C37   C     C_R   0.340500 0.840379 0.160716 -0.028378
C38   C     C_R   0.298066 0.901892 0.080774 -0.041385
C39   C     C_R   0.371379 0.369778 0.585146 -0.100506
C40   C     C_R   0.407311 0.388917 0.549000 0.554863
C41   C     C_R   0.286608 0.450466 0.604388 -0.104875
C42   C     C_R   0.267682 0.441987 0.643548 0.342323
C43   C     C_R   0.333556 0.351921 0.664097 0.036002
C44   C     C_R   0.412152 0.267269 0.643176 0.345212
C45   C     C_R   0.395255 0.258700 0.165728 0.385337
C46   C     C_R   0.430769 0.276443 0.604079 -0.085346
C47   C     C_R   0.319645 0.350887 0.789035 0.341921
C48   C     C_R   0.326876 0.349487 0.707831 0.375407
C49   C     C_R   0.215937 0.397888 0.849291 -0.187438
C50   C     C_R   0.204322 0.377816 0.887758 -0.205580
C51   C     C_R   0.388476 0.258807 0.895268 0.417040
C52   C     C_R   0.701410 0.413588 0.562708 0.564644
C53   C     C_R   0.400287 0.279224 0.856755 0.428104
C54   C     C_R   0.312885 0.344883 0.832520 -0.022364
C55   C     C_R   0.289359 0.304049 0.910209 -0.033787
C56   C     C_R   0.386889 0.240200 0.123836 0.410751
C57   C     C_R   0.753985 0.381147 0.603109 -0.040158
C58   C     C_R   0.770233 0.452457 0.630352 -0.135375
C59   C     C_R   0.797728 0.432884 0.671195 0.417903
C60   C     C_R   0.810134 0.341355 0.685279 -0.028343
C61   C     C_R   0.800981 0.266879 0.658083 -0.132407
C62   C     C_R   0.773400 0.286101 0.617169 0.372886
C63   C     C_R   0.885763 0.213281 0.822857 -0.160712
C64   C     C_R   0.369356 0.366517 0.392571 0.021372
C65   C     C_R   0.913840 0.201569 0.864175 -0.125710
C66   C     C_R   0.870189 0.382806 0.873796 -0.084236
C67   C     C_R   0.206558 0.373578 0.122221 -0.163938
C68   C     C_R   0.841935 0.394456 0.832525 0.416517
C69   C     C_R   0.852684 0.308899 0.806831 0.041669
C70   C     C_1   0.837309 0.317586 0.763825 0.088785
C71   C     C_1   0.825749 0.326891 0.727904 0.088508
C72   C     C_R   0.909809 0.285427 0.889803 -0.036118
C73   C     C_R   0.376786 0.754154 0.602120 -0.042297
C74   C     C_R   0.281585 0.789287 0.619296 -0.125232
C75   C     C_R   0.272440 0.817999 0.660555 -0.159262
C76   C     C_R   0.286403 0.448960 0.372514 -0.164290
C77   C     C_R   0.358035 0.812218 0.685101 0.040514
C78   C     C_R   0.215134 0.391680 0.164050 0.335291
C79   C     C_R   0.451400 0.783377 0.667903 0.426709
C80   C     C_R   0.460593 0.754892 0.626559 -0.077259
C81   C     C_R   0.397484 0.883022 0.832914 -0.077019
C82   C     C_R   0.377445 0.910938 0.873680 -0.112060
C83   C     C_R   0.228014 0.881743 0.862812 -0.115118
C84   C     C_R   0.248332 0.853761 0.822097 -0.108744
C85   C     C_R   0.331327 0.857116 0.806904 0.032684
C86   C     C_1   0.343865 0.840891 0.764187 0.028316
C87   C     C_1   0.351352 0.828607 0.728171 0.072566
C88   C     C_R   0.266418 0.439882 0.330816 -0.100742
C89   C     C_R   0.308487 0.331885 0.185944 -0.015964
C90   C     C_R   0.290467 0.913812 0.888756 0.015178
C91   C     C_R   0.963551 0.264210 0.045550 0.547447
C92   C     C_R   0.272808 0.259543 0.060035 0.579141
C93   C     C_R   0.259435 0.959371 0.043716 0.570271
C94   C     C_R   0.962548 0.267631 0.930746 0.549433
C95   C     C_R   0.270968 0.264242 0.945478 0.576153
C96   C     C_R   0.256105 0.965043 0.928947 0.539157
Cr1   Cr    Cr6+3 0.576280 0.580550 0.506370 1.144774
Cr2   Cr    Cr6+3 0.346780 0.572400 0.496520 1.050858
Cr3   Cr    Cr6+3 0.576960 0.347070 0.497150 1.142440
Cr4   Cr    Cr6+3 0.087320 0.083240 0.984860 1.085757
Cr5   Cr    Cr6+3 0.087720 0.316210 0.996740 1.046939
Cr6   Cr    Cr6+3 0.317350 0.090340 0.995890 1.116401
F1    F     F_    0.471118 0.165429 0.105301 -0.532573
F2    F     F_    0.473379 0.190903 0.917006 -0.551508
F3    F     F_    0.496646 0.230770 0.842736 -0.547114
F4    F     F_    0.760948 0.213778 0.591983 -0.584861
F5    F     F_    0.809251 0.487844 0.817355 -0.568946
F6    F     F_    0.505222 0.189077 0.388607 -0.584365
F7    F     F_    0.807224 0.505475 0.697289 -0.531065
F8    F     F_    0.534954 0.777747 0.691407 -0.557502
F9    F     F_    0.130821 0.463538 0.183374 -0.578030
F10   F     F_    0.808717 0.505429 0.417912 -0.520562
F11   F     F_    0.867651 0.464277 0.341286 -0.535513
F12   F     F_    0.539535 0.744790 0.415280 -0.547750
F13   F     F_    0.166620 0.847760 0.072523 -0.585142
F14   F     F_    0.486604 0.201593 0.186827 -0.543447
F15   F     F_    0.173903 0.833515 0.324560 -0.569884
F16   F     F_    0.478222 0.886149 0.167586 -0.548781
F17   F     F_    0.189992 0.525165 0.662171 -0.580649
F18   F     F_    0.473978 0.176842 0.660986 -0.567020
H1    H     H_    0.722592 0.244518 0.397116 0.199492
H2    H     H_    0.944586 0.125457 0.875505 0.158855
H3    H     H_    0.811444 0.195457 0.668788 0.169756
H4    H     H_    0.866124 0.448771 0.892776 0.164498
H5    H     H_    0.462071 0.885588 0.821380 0.171859
H6    H     H_    0.535070 0.727681 0.614272 0.167629
H7    H     H_    0.160392 0.883312 0.873415 0.147834
H8    H     H_    0.241024 0.522868 0.388512 0.167344
H9    H     H_    0.131833 0.417060 0.106239 0.190955
H10   H     H_    0.809067 0.465078 0.158636 0.172605
H11   H     H_    0.888448 0.141478 0.152052 0.172859
H12   H     H_    0.861984 0.445338 0.090348 0.157555
H13   H     H_    0.213662 0.777060 0.397485 0.183878
H14   H     H_    0.218833 0.797122 0.146151 0.192459
H15   H     H_    0.238939 0.523108 0.590301 0.181356
H16   H     H_    0.453120 0.191451 0.311737 0.179388
H17   H     H_    0.894117 0.146745 0.803175 0.143514
H18   H     H_    0.755935 0.526164 0.620625 0.188083
H19   H     H_    0.426857 0.935504 0.892802 0.164900
H20   H     H_    0.215703 0.789521 0.601328 0.171821
H21   H     H_    0.196871 0.833499 0.802132 0.135269
H22   H     H_    0.199823 0.840524 0.673619 0.150425
H23   H     H_    0.775091 0.208094 0.328183 0.195838
H24   H     H_    0.206050 0.505976 0.315514 0.185182
H25   H     H_    0.941370 0.121809 0.083550 0.171728
H26   H     H_    0.500615 0.798673 0.341937 0.203311
H27   H     H_    0.424906 0.937870 0.094231 0.201783
H28   H     H_    0.495500 0.212308 0.589582 0.205033
H29   H     H_    0.127130 0.414770 0.898606 0.174662
H30   H     H_    0.147439 0.450372 0.831833 0.193086
N1    N     N_R   0.824368 0.397455 0.227781 -0.192012
N2    N     N_R   0.415740 0.839827 0.270170 -0.210250
N3    N     N_R   0.416278 0.843166 0.230428 -0.086622
N4    N     N_R   0.235071 0.415173 0.766129 -0.214271
N5    N     N_R   0.238775 0.414889 0.726365 -0.113246
N6    N     N_R   0.411421 0.285587 0.730749 -0.123195
N7    N     N_R   0.407710 0.285872 0.770460 -0.105599
N8    N     N_R   0.820521 0.402421 0.267673 -0.102880
N9    N     N_R   0.838999 0.235576 0.263437 -0.195090
N10   N     N_R   0.843179 0.230456 0.223472 -0.188834
N11   N     N_R   0.275064 0.811034 0.220071 -0.220568
N12   N     N_R   0.274405 0.807850 0.259758 -0.098653
O1    O     O_R   0.679450 0.499830 0.463150 -0.404371
O2    O     O_R   0.340240 0.172500 0.045430 -0.424353
O3    O     O_R   0.309670 0.000990 0.032050 -0.517142
O4    O     O_R   0.480650 0.664000 0.464630 -0.416307
O5    O     O_R   0.168330 0.982130 0.939200 -0.511946
O6    O     O_R   0.000140 0.178170 0.944610 -0.493941
O7    O     O_R   0.983010 0.336750 0.948660 -0.513916
O8    O     O_R   0.181800 0.312190 0.959860 -0.512716
O9    O     O_R   0.338500 0.175680 0.956950 -0.435270
O10   O     O_R   0.308050 0.003930 0.950020 -0.501895
O11   O     O_3   0.164130 0.163270 0.992500 -0.278692
O12   O     O_R   0.356040 0.477400 0.534170 -0.501007
O13   O     O_R   0.323930 0.675950 0.455370 -0.528672
O14   O     O_R   0.354700 0.475360 0.451930 -0.517133
O15   O     O_R   0.494470 0.320860 0.448390 -0.431166
O16   O     O_R   0.662580 0.357570 0.460050 -0.514841
O17   O     O_R   0.680900 0.502040 0.551870 -0.525440
O18   O     O_R   0.481990 0.666040 0.546870 -0.503156
O19   O     O_R   0.325370 0.678160 0.544080 -0.505602
O20   O     O_R   0.495910 0.323070 0.537100 -0.476249
O21   O     O_R   0.663920 0.359620 0.542290 -0.424728
O22   O     O_3   0.500010 0.500010 0.500010 -0.295224
O23   O     O_R   0.170070 0.978950 0.027680 -0.427782
O24   O     O_R   0.001760 0.175230 0.026640 -0.494004
O25   O     O_R   0.984760 0.333570 0.037150 -0.511015
O26   O     O_R   0.183410 0.309240 0.041890 -0.512878

loop_
_geom_bond_atom_site_label_1
_geom_bond_atom_site_label_2
_ccdc_geom_bond_type
C24   H13   S    
C66   C68   A    
C29   F12   S    
C63   C65   A    
C31   N2    A    
C22   C29   A    
C27   C29   A    
C18   C21   A    
C41   C42   A    
C5    C56   A    
Cr5   O11   S    
C35   C36   A    
C28   O18   A    
C52   O21   A    
C4    O15   A    
C5    C67   A    
C18   H25   S    
C81   C82   A    
C7    C8    A    
C39   C41   A    
C11   H1    S    
C53   C54   A    
Cr6   O11   S    
C32   H14   S    
C12   C23   A    
C26   C27   A    
C49   H30   S    
C14   N8    A    
Cr4   O5    S    
C84   H21   S    
C36   C37   A    
Cr3   O15   S    
C69   C70   S    
C94   O7    A    
C21   C91   S    
Cr2   O12   S    
C42   F17   S    
Cr1   O17   S    
C44   F18   S    
Cr1   O4    S    
C7    F10   S    
C18   C19   A    
C73   C74   A    
Cr3   O20   S    
C3    C12   S    
C30   N3    A    
C46   H28   S    
C63   C69   A    
C45   C56   A    
C16   O16   A    
C8    C9    A    
Cr1   O1    S    
Cr5   O7    S    
C78   F9    S    
C68   F5    S    
Cr5   O26   S    
C36   F16   S    
C43   C48   S    
C76   C88   A    
C13   N10   A    
Cr3   O21   S    
C79   F8    S    
C72   C94   S    
C92   O2    A    
C48   N6    A    
C31   N12   A    
C93   O3    A    
C59   C60   A    
C78   C89   A    
C17   H12   S    
C19   H11   S    
C63   H17   S    
N9    N10   A    
C67   H9    S    
C67   C78   A    
C28   C73   S    
C44   C46   A    
N11   N12   A    
C40   O20   A    
C77   C79   A    
C16   O1    A    
Cr6   O10   S    
C15   C20   A    
C66   C72   A    
C33   F13   S    
C74   C75   A    
C12   C88   A    
N1    N8    A    
C57   C62   A    
C35   C38   A    
C84   C85   A    
C13   N1    A    
Cr3   O16   S    
C55   C95   S    
C52   C57   S    
C94   O6    A    
C6    C11   A    
C86   C87   T    
C68   C69   A    
Cr1   O18   S    
C60   C71   S    
C25   C26   A    
C85   C86   S    
C74   H20   S    
C17   C21   A    
C30   C37   S    
C60   C61   A    
C51   C53   A    
N6    N7    A    
C2    C89   S    
Cr4   O24   S    
C9    C14   S    
C82   H19   S    
C75   H22   S    
Cr2   O14   S    
C50   H29   S    
C1    C22   S    
C83   C84   A    
C23   C34   A    
C34   C64   A    
C64   C76   A    
C96   O5    A    
Cr5   O8    S    
C35   H27   S    
C32   C37   A    
C24   C25   A    
C75   C77   A    
N4    N5    A    
Cr3   O22   S    
C70   C71   T    
C8    F11   S    
C47   C54   S    
C23   H16   S    
C91   O24   A    
C47   N7    A    
Cr6   O3    S    
C39   C46   A    
C43   C44   A    
C96   O10   A    
C28   O19   A    
C76   H8    S    
C66   H4    S    
C22   C24   A    
C58   C59   A    
C42   C43   A    
C41   H15   S    
C45   C89   A    
Cr1   O22   S    
C9    C10   A    
Cr6   O9    S    
C15   C17   A    
C83   C90   A    
C91   O25   A    
C1    O13   A    
C65   H2    S    
C13   C20   S    
C81   H5    S    
C48   N5    A    
C50   C55   A    
C56   F1    S    
C83   H7    S    
C25   F15   S    
C92   O26   A    
C90   C96   S    
C6    C7    A    
C62   F4    S    
C47   N4    A    
C65   C72   A    
C4    C64   S    
C33   C38   A    
C82   C90   A    
Cr4   O6    S    
C14   N9    A    
C61   H3    S    
C34   F6    S    
C32   C33   A    
C19   C20   A    
C2    C3    T    
C51   F2    S    
C52   O17   A    
C40   O12   A    
Cr2   O13   S    
C45   F14   S    
C58   H18   S    
C57   C58   A    
C15   H10   S    
C80   H6    S    
C1    O4    A    
Cr2   O19   S    
C27   H26   S    
C38   C93   S    
C59   F7    S    
C73   C80   A    
Cr4   O23   S    
C51   C55   A    
C10   H23   S    
Cr2   O22   S    
C61   C62   A    
C95   O8    A    
C5    C92   S    
C10   C11   A    
C6    C16   S    
C79   C80   A    
C39   C40   S    
C53   F3    S    
C26   C31   S    
N2    N3    A    
C77   C87   S    
Cr6   O2    S    
C49   C50   A    
C4    O14   A    
Cr4   O11   S    
C30   N11   A    
Cr5   O25   S    
C95   O9    A    
C88   H24   S    
C81   C85   A    
C49   C54   A    
C93   O23   A    
