data_mof_unit_35195.cif
_audit_creation_date              2012-12-11T16:28:28-0500
_audit_creation_method            fapswitch 2.2
_symmetry_space_group_name_H-M    P1
_symmetry_Int_Tables_number       1
_space_group_crystal_system       triclinic
_cell_length_a                    17.185033
_cell_length_b                    7.325594
_cell_length_c                    14.696624
_cell_angle_alpha                 89.990632
_cell_angle_beta                  94.938807
_cell_angle_gamma                 89.99845
_cell_volume                      1843.29714215

loop_
_atom_site_label
_atom_site_type_symbol
_atom_type_description
_atom_site_fract_x
_atom_site_fract_y
_atom_site_fract_z
_atom_type_partial_charge
O1    O     O_R   0.663460 0.361760 0.165970 -0.525807
O2    O     O_R   0.336540 0.638240 0.834030 -0.529356
O3    O     O_R   0.836540 0.861760 0.334030 -0.525806
O4    O     O_R   0.163460 0.138240 0.665970 -0.529409
O5    O     O_R   0.827100 0.689870 0.163730 -0.536364
O6    O     O_R   0.172900 0.310130 0.836270 -0.538043
O7    O     O_R   0.672900 0.189870 0.336270 -0.536414
O8    O     O_R   0.327100 0.810130 0.663730 -0.538005
C1    C     C_R   0.855195 0.523190 0.146383 0.719604
C2    C     C_R   0.146175 0.476898 0.855586 0.712794
C3    C     C_R   0.644797 0.023174 0.353603 0.719580
C4    C     C_R   0.353819 0.976906 0.644407 0.712797
O9    O     O_R   0.663490 0.691370 0.155500 -0.541622
O10   O     O_R   0.336510 0.308630 0.844500 -0.539690
O11   O     O_R   0.836510 0.191370 0.344500 -0.541574
O12   O     O_R   0.163490 0.808630 0.655500 -0.539696
O13   O     O_R   0.671770 0.863320 0.325740 -0.533031
O14   O     O_R   0.328230 0.136680 0.674260 -0.529340
O15   O     O_R   0.828230 0.363320 0.174260 -0.533082
O16   O     O_R   0.171770 0.636680 0.825740 -0.529318
C5    C     C_R   0.643500 0.523096 0.125234 0.651712
C6    C     C_R   0.360653 0.476492 0.871209 0.652999
C7    C     C_R   0.856477 0.023069 0.374787 0.651624
C8    C     C_R   0.139340 0.976508 0.628800 0.652981
H1    H     H_    0.048141 0.913497 0.196040 0.125064
H2    H     H_    0.937272 0.101749 0.807594 0.129983
H3    H     H_    0.451798 0.414124 0.304012 0.125064
H4    H     H_    0.562934 0.599853 0.692339 0.130050
O17   O     O_3   0.752910 0.528800 0.305860 -0.376044
O18   O     O_3   0.247090 0.471200 0.694140 -0.375426
O19   O     O_3   0.747090 0.028800 0.194140 -0.376113
O20   O     O_3   0.252910 0.971200 0.805860 -0.375412
V1    V     V_3+5 0.749460 0.803010 0.239640 1.394095
V2    V     V_3+5 0.250540 0.196990 0.760360 1.394644
V3    V     V_3+5 0.750540 0.303010 0.260360 1.394064
V4    V     V_3+5 0.249460 0.696990 0.739640 1.394679
C9    C     C_1   0.467452 0.994571 0.528262 -0.013743
C10   C     C_1   0.528165 0.004399 0.465758 -0.019954
C11   C     C_1   0.032527 0.494591 0.971711 -0.013790
C12   C     C_1   0.971813 0.504459 0.034211 -0.020114
C13   C     C_R   0.999655 0.989615 0.312179 -0.171128
C14   C     C_R   0.996271 0.061275 0.692031 -0.177367
C15   C     C_R   0.500295 0.490040 0.187841 -0.171241
C16   C     C_R   0.503778 0.560563 0.807930 -0.177065
C17   C     C_R   0.059576 0.921748 0.269064 -0.177333
C18   C     C_R   0.929786 0.092961 0.734074 -0.198195
C19   C     C_R   0.440377 0.422202 0.230981 -0.177276
C20   C     C_R   0.570308 0.591774 0.765893 -0.198403
C21   C     C_R   0.128140 0.862264 0.316649 0.151870
C22   C     C_R   0.856413 0.096643 0.686297 0.169272
C23   C     C_R   0.371849 0.362494 0.183409 0.151826
C24   C     C_R   0.643637 0.595806 0.813755 0.168853
C25   C     C_R   0.136018 0.878652 0.415866 0.046276
C26   C     C_R   0.851903 0.085572 0.587527 0.063698
C27   C     C_R   0.363964 0.378828 0.084186 0.046334
C28   C     C_R   0.648097 0.585378 0.912518 0.063506
C29   C     C_R   0.069305 0.947261 0.462869 -0.013834
C30   C     C_R   0.923197 0.045857 0.542011 -0.024801
C31   C     C_R   0.430672 0.447398 0.037165 -0.013848
C32   C     C_R   0.576792 0.545754 0.958016 -0.024795
C33   C     C_R   0.998699 0.985876 0.407568 0.076421
C34   C     C_R   0.995954 0.031110 0.597317 0.072622
C35   C     C_R   0.501267 0.486095 0.092459 0.076390
C36   C     C_R   0.504052 0.530861 0.902684 0.072592
C37   C     C_R   0.068121 0.982642 0.560495 -0.143370
C38   C     C_R   0.926180 0.019707 0.444478 -0.141584
C39   C     C_R   0.431869 0.482596 0.939519 -0.143400
C40   C     C_R   0.573793 0.519797 0.055551 -0.141510
C41   C     C_1   0.416034 0.986389 0.581331 -0.188270
C42   C     C_1   0.580536 0.013084 0.413939 -0.184660
C43   C     C_1   0.083950 0.486379 0.918650 -0.188348
C44   C     C_1   0.919441 0.513153 0.086029 -0.184564
H5    H     H_    0.951441 0.038628 0.266504 0.136140
H6    H     H_    0.048062 0.050731 0.738770 0.140035
H7    H     H_    0.548501 0.539165 0.233488 0.136107
H8    H     H_    0.451996 0.549866 0.761186 0.139882
C45   C     C_3   0.210605 0.820172 0.473786 -0.322400
C46   C     C_3   0.287057 0.769262 0.434738 -0.827608
H9    H     H_    0.280342 0.651995 0.389612 0.232176
H10   H     H_    0.313897 0.887250 0.402300 0.234581
H11   H     H_    0.329366 0.722734 0.491084 0.234261
H12   H     H_    0.229322 0.937911 0.516640 0.170402
H13   H     H_    0.194994 0.700170 0.514319 0.214839
C47   C     C_3   0.776313 0.123564 0.527419 -0.342567
C48   C     C_3   0.701397 0.192929 0.562993 -0.823655
H14   H     H_    0.665260 0.079255 0.585933 0.225314
H15   H     H_    0.714472 0.294226 0.615503 0.242121
H16   H     H_    0.665613 0.266382 0.508274 0.233673
H17   H     H_    0.791180 0.238110 0.483467 0.212740
H18   H     H_    0.759940 0.998325 0.488452 0.165037
C49   C     C_3   0.289376 0.320362 0.026281 -0.322453
C50   C     C_3   0.212918 0.269576 0.065352 -0.827508
H19   H     H_    0.219599 0.152320 0.110510 0.232140
H20   H     H_    0.186115 0.387620 0.097769 0.234593
H21   H     H_    0.170597 0.223080 0.009023 0.234227
H22   H     H_    0.270672 0.438097 0.983394 0.170384
H23   H     H_    0.304971 0.200338 0.985770 0.214760
C51   C     C_3   0.723666 0.623728 0.972591 -0.342382
C52   C     C_3   0.798559 0.693112 0.936915 -0.823190
H24   H     H_    0.834899 0.579335 0.914514 0.225041
H25   H     H_    0.785455 0.793335 0.883859 0.242415
H26   H     H_    0.834170 0.767499 0.991450 0.233653
H27   H     H_    0.708743 0.738336 0.016461 0.212647
H28   H     H_    0.740089 0.498605 0.011648 0.165062
C53   C     C_3   0.788938 0.061323 0.746236 -0.377264
C54   C     C_3   0.794465 0.153227 0.841530 -0.355942
C55   C     C_3   0.716782 0.143288 0.885922 -0.735948
H29   H     H_    0.670600 0.223792 0.847394 0.226877
H30   H     H_    0.694673 0.001687 0.888228 0.235460
H31   H     H_    0.724982 0.195658 0.956892 0.221183
H32   H     H_    0.838821 0.083683 0.888737 0.195345
H33   H     H_    0.813114 0.296976 0.836301 0.203140
H34   H     H_    0.730621 0.086573 0.715293 0.202545
H35   H     H_    0.789704 0.913898 0.757295 0.179654
C56   C     C_3   0.190814 0.787665 0.258544 -0.359550
C57   C     C_3   0.173945 0.788848 0.153307 -0.369093
C58   C     C_3   0.248406 0.761396 0.105853 -0.768713
H36   H     H_    0.287717 0.881058 0.115863 0.225890
H37   H     H_    0.279854 0.642372 0.135601 0.250841
H38   H     H_    0.233871 0.740595 0.031517 0.228507
H39   H     H_    0.131554 0.678921 0.132463 0.205232
H40   H     H_    0.148927 0.919497 0.127705 0.203023
H41   H     H_    0.244220 0.869748 0.272823 0.202569
H42   H     H_    0.199893 0.642368 0.276588 0.179299
C59   C     C_3   0.711118 0.560081 0.753945 -0.376629
C60   C     C_3   0.706027 0.653345 0.658984 -0.355516
C61   C     C_3   0.783886 0.643442 0.614956 -0.735622
H43   H     H_    0.830090 0.723012 0.654003 0.226771
H44   H     H_    0.805753 0.501681 0.612227 0.235294
H45   H     H_    0.776031 0.696880 0.544165 0.221088
H46   H     H_    0.661699 0.584778 0.611366 0.195028
H47   H     H_    0.687496 0.797116 0.664570 0.203085
H48   H     H_    0.769487 0.583531 0.785165 0.202738
H49   H     H_    0.709851 0.412777 0.742438 0.179017
C62   C     C_3   0.309210 0.287720 0.241519 -0.359481
C63   C     C_3   0.326104 0.288697 0.346753 -0.369116
C64   C     C_3   0.251657 0.261053 0.394210 -0.768854
H50   H     H_    0.212296 0.380642 0.384200 0.225919
H51   H     H_    0.220257 0.141988 0.364462 0.250844
H52   H     H_    0.266204 0.240231 0.468546 0.228501
H53   H     H_    0.368521 0.178774 0.367547 0.205285
H54   H     H_    0.351085 0.419313 0.372411 0.203021
H55   H     H_    0.255785 0.369770 0.227276 0.202546
H56   H     H_    0.300158 0.142445 0.223433 0.179311

loop_
_geom_bond_atom_site_label_1
_geom_bond_atom_site_label_2
_ccdc_geom_bond_type
C59   H49   S    
C30   C34   A    
C4    C41   S    
C10   C42   T    
O1    C5    A    
C60   C61   S    
C27   C31   A    
C53   C54   S    
O3    C7    A    
C1    C44   S    
C28   C51   S    
C26   C47   S    
C3    C42   S    
C15   C35   A    
C62   C63   S    
C54   H33   S    
C45   C46   S    
C16   C36   A    
O7    C3    A    
C64   H51   S    
C22   C26   A    
O13   V1    S    
C60   H46   S    
C7    C38   S    
C53   H34   S    
C9    C41   T    
C58   H37   S    
C14   C18   A    
O4    C8    A    
C46   H10   S    
C54   C55   S    
O3    V1    S    
C59   H48   S    
C56   C57   S    
C57   C58   S    
O8    V4    S    
C16   H8    S    
C63   H54   S    
C31   C39   A    
C49   H22   S    
C23   C62   S    
C33   C38   A    
C30   C38   A    
C3    O13   A    
C2    O16   A    
O5    V1    S    
C51   H27   S    
O2    C6    A    
C22   C53   S    
C27   C49   S    
C55   H29   S    
O19   V1    S    
C13   C33   A    
C14   C34   A    
C2    C43   S    
C62   H55   S    
O12   C8    A    
C55   H30   S    
C47   H18   S    
O11   V3    S    
C1    O15   A    
C54   H32   S    
C48   H15   S    
C15   H7    S    
C64   H52   S    
O4    V2    S    
C14   H6    S    
C56   H41   S    
C57   H39   S    
C36   C39   A    
C53   H35   S    
C47   C48   S    
C58   H38   S    
C49   C50   S    
C25   C29   A    
C46   H9    S    
C19   C23   A    
C48   H14   S    
C50   H21   S    
O6    V2    S    
O20   V2    S    
C25   C45   S    
C61   H44   S    
O5    C1    A    
C9    C10   S    
C52   H24   S    
C60   H47   S    
O8    C4    A    
C50   H20   S    
C17   C21   A    
O9    C5    A    
C49   H23   S    
O14   V2    S    
C57   H40   S    
C8    C37   S    
H3    C19   S    
C62   H56   S    
C52   H25   S    
C51   C52   S    
C5    C40   S    
C59   C60   S    
C55   H31   S    
C47   H17   S    
C61   H43   S    
H1    C17   S    
C11   C12   S    
O1    V3    S    
C26   C30   A    
C48   H16   S    
O2    V4    S    
O17   V3    S    
C35   C40   A    
H4    C20   S    
C11   C43   T    
C56   H42   S    
C12   C44   T    
C34   C37   A    
C21   C56   S    
O7    V3    S    
C45   H13   S    
C29   C37   A    
C63   C64   S    
O10   V2    S    
C24   C59   S    
C29   C33   A    
C64   H50   S    
C18   C22   A    
C31   C35   A    
O18   V4    S    
C32   C36   A    
O10   C6    A    
C61   H45   S    
O15   V3    S    
C58   H36   S    
O12   V4    S    
C46   H11   S    
C45   H12   S    
C21   C25   A    
O11   C7    A    
C50   H19   S    
C63   H53   S    
C23   C27   A    
C6    C39   S    
O6    C2    A    
H2    C18   S    
C13   H5    S    
O16   V4    S    
C16   C20   A    
C20   C24   A    
C52   H26   S    
C28   C32   A    
C32   C40   A    
O9    V1    S    
C4    O14   A    
C13   C17   A    
C15   C19   A    
C51   H28   S    
C24   C28   A    
