data_mof_unit_67004.cif
_audit_creation_date              2013-03-05T15:58:13-0500
_audit_creation_method            fapswitch 2.2
_symmetry_space_group_name_H-M    P1
_symmetry_Int_Tables_number       1
_space_group_crystal_system       triclinic
_cell_length_a                    8.251028
_cell_length_b                    12.802824
_cell_length_c                    14.311465
_cell_angle_alpha                 92.494918
_cell_angle_beta                  91.094203
_cell_angle_gamma                 99.069048
_cell_volume                      1490.9819615

loop_
_atom_site_label
_atom_site_type_symbol
_atom_site_description
_atom_site_fract_x
_atom_site_fract_y
_atom_site_fract_z
_atom_type_partial_charge
P1    P     P_3+3 0.054400 0.427280 0.286870 0.443889
O1    O     O_2   0.887370 0.460630 0.272300 -0.363297
O2    O     O_3   0.129410 0.451380 0.388510 -0.408496
O3    O     O_3   0.670210 0.653170 0.329170 -0.366811
O4    O     O_2   0.790132 0.595853 0.170541 -0.396390
O5    O     O_3   0.011958 0.290558 0.262333 -0.585256
O6    O     O_3   0.724235 0.789483 0.183405 -0.524584
H1    H     H_    0.730953 0.899155 0.293372 0.131565
C1    C     C_3   0.581478 0.937145 0.178282 -1.076240
H2    H     H_    0.506945 0.986456 0.219845 0.261150
H3    H     H_    0.686097 0.989193 0.148862 0.273425
P2    P     P_3+3 0.668300 0.742890 0.573060 0.483196
P3    P     P_3+3 0.132086 0.841730 0.374728 0.445940
O7    O     O_2   0.845380 0.761330 0.544970 -0.378587
O8    O     O_3   0.088930 0.704860 0.376040 -0.389241
O9    O     O_2   0.996906 0.885815 0.429990 -0.388749
O10   O     O_3   0.684545 0.729494 0.694137 -0.533374
O11   O     O_3   0.105181 0.880476 0.260483 -0.522031
C2    C     C_3   0.152007 0.803915 0.197737 0.527378
H4    H     H_    0.062876 0.729310 0.197983 0.151877
H5    H     H_    0.276457 0.787156 0.215411 0.012467
C3    C     C_3   0.153713 0.845002 0.099750 -1.064176
H6    H     H_    0.028554 0.856907 0.078507 0.288423
H7    H     H_    0.236080 0.922214 0.098184 0.272475
C4    C     C_3   0.237486 0.759276 0.650948 0.419756
H8    H     H_    0.369468 0.755615 0.648121 0.096058
H9    H     H_    0.175284 0.721992 0.585660 0.137007
C5    C     C_3   0.211604 0.874807 0.655601 -1.012262
H10   H     H_    0.165434 0.897691 0.724622 0.268935
H11   H     H_    0.327429 0.927799 0.641505 0.235020
H12   H     H_    0.120599 0.887630 0.601465 0.271575
Ba1   Ba    Ba6+2 0.855630 0.555280 0.454520 1.547376
C6    C     C_3   0.966171 0.238426 0.343708 0.410141
H13   H     H_    0.853961 0.264533 0.370750 0.095142
H14   H     H_    0.065417 0.253937 0.398072 0.140390
C7    C     C_3   0.932412 0.120195 0.319355 -0.959789
H15   H     H_    0.826282 0.102404 0.269477 0.259837
H16   H     H_    0.903922 0.075360 0.382849 0.243279
H17   H     H_    0.041824 0.094407 0.287052 0.283781
C8    C     C_3   0.763655 0.820978 0.743493 0.666876
H18   H     H_    0.865120 0.864192 0.705125 0.038380
C9    C     C_3   0.637986 0.891475 0.768011 -1.144425
H19   H     H_    0.604667 0.932137 0.705689 0.235188
H20   H     H_    0.686531 0.952033 0.823384 0.238083
H21   H     H_    0.525483 0.842877 0.793471 0.287251
P4    P     P_3+3 0.135310 0.572810 0.713130 0.483131
O12   O     O_2   0.302330 0.539400 0.727760 -0.335386
O13   O     O_3   0.060300 0.548700 0.611500 -0.393986
O14   O     O_3   0.519500 0.346920 0.670840 -0.372655
O15   O     O_3   0.179326 0.710509 0.732169 -0.594854
P5    P     P_3+3 0.059280 0.156976 0.623027 0.452489
O16   O     O_3   0.614310 0.373510 0.452640 -0.393047
O17   O     O_3   0.100780 0.295230 0.623970 -0.358013
O18   O     O_2   0.191212 0.115688 0.562936 -0.379434
O19   O     O_3   0.104632 0.118578 0.735569 -0.519989
Ba2   Ba    Ba6+2 0.334200 0.444810 0.545490 1.562441
P6    P     P_3+3 0.657353 0.657473 0.208835 0.438527
C10   C     C_3   0.642780 0.856853 0.239622 0.489556
H22   H     H_    0.536094 0.815707 0.276942 0.030933
H23   H     H_    0.505896 0.895076 0.119184 0.271512
O20   O     O_3   0.575400 0.626570 0.547370 -0.339895
C11   C     C_3   0.473155 0.309199 0.259405 0.446255
H24   H     H_    0.350096 0.323693 0.281298 0.090803
H25   H     H_    0.566198 0.380095 0.277962 0.122090
C12   C     C_3   0.469988 0.290729 0.153591 -1.017721
H26   H     H_    0.380479 0.219082 0.132393 0.271010
H27   H     H_    0.434049 0.360006 0.119189 0.224902
H28   H     H_    0.593688 0.279185 0.129998 0.259520
P7    P     P_3+3 0.525386 0.241998 0.422684 0.417051
O21   O     O_2   0.344320 0.238700 0.455090 -0.375227
O22   O     O_3   0.513108 0.219021 0.301045 -0.576900
H29   H     H_    0.196844 0.787556 0.049462 0.233729
C13   C     C_3   0.964642 0.107846 0.791018 0.248717
H30   H     H_    0.848832 0.086818 0.749508 0.027761
H31   H     H_    0.970424 0.040893 0.836605 0.088479
C14   C     C_3   0.958811 0.208859 0.851305 -0.402852
H32   H     H_    0.986268 0.276975 0.805877 0.196527
H33   H     H_    0.832130 0.207306 0.876312 0.154633
P8    P     P_3+3 0.535797 0.356227 0.794147 0.461016
C15   C     C_3   0.476574 0.152220 0.789781 0.503469
H34   H     H_    0.608122 0.153036 0.775257 -0.014065
O23   O     O_2   0.423095 0.432389 0.831583 -0.369571
O24   O     O_3   0.453596 0.239982 0.846151 -0.538473
H35   H     H_    0.407759 0.150125 0.722186 0.163879
H36   H     H_    0.497267 0.046052 0.902435 0.255379
C16   C     C_3   0.412755 0.054361 0.842848 -1.006097
H37   H     H_    0.398209 0.984528 0.795337 0.250913
H38   H     H_    0.289100 0.056076 0.869780 0.268110
C17   C     C_R   0.982062 0.452073 0.062190 -0.169172
C18   C     C_R   0.182541 0.499917 0.196446 0.240908
C19   C     C_R   0.338709 0.550031 0.226591 -0.513491
C20   C     C_R   0.449547 0.600801 0.164514 0.260240
C21   C     C_R   0.401900 0.607392 0.071089 -0.343031
C22   C     C_R   0.246985 0.557476 0.037054 0.082177
C23   C     C_R   0.135508 0.502032 0.099357 -0.005176
H39   H     H_    0.376561 0.546697 0.299065 0.175256
C24   C     C_R   0.053192 0.508635 0.903395 -0.017689
C25   C     C_R   0.939582 0.456418 0.966496 0.068690
C26   C     C_R   0.008015 0.506269 0.805627 0.250981
C27   C     C_R   0.853301 0.455700 0.775481 -0.464628
C28   C     C_R   0.741069 0.409830 0.838340 0.249566
C29   C     C_R   0.782892 0.409199 0.933207 -0.331163
C30   C     C_R   0.204864 0.561383 0.940997 -0.168821
H40   H     H_    0.485166 0.651554 0.024907 0.154562
H41   H     H_    0.693154 0.372040 0.980739 0.162673
H42   H     H_    0.817029 0.455329 0.702355 0.186660
H43   H     H_    0.894134 0.408289 0.106648 0.169273
H44   H     H_    0.291928 0.605570 0.896136 0.168478
C31   C     C_R   0.760589 0.177467 0.536849 -0.490191
C32   C     C_R   0.425357 0.815033 0.465053 -0.491723
C33   C     C_R   0.400420 0.995183 0.431817 -0.207643
C34   C     C_R   0.336583 0.888093 0.427217 0.219285
C35   C     C_R   0.573381 0.848008 0.514785 0.206643
C36   C     C_R   0.640938 0.958303 0.519308 -0.049160
C37   C     C_R   0.551563 0.032349 0.478278 -0.041786
C38   C     C_R   0.615670 0.141963 0.485701 0.269080
C39   C     C_R   0.854134 0.105953 0.571208 0.211151
C40   C     C_R   0.796123 0.997601 0.561082 -0.269207
H45   H     H_    0.328756 0.048252 0.399780 0.188881
H46   H     H_    0.876602 0.946128 0.583532 0.171211
H47   H     H_    0.807437 0.261383 0.543640 0.166965
H48   H     H_    0.374945 0.731661 0.459371 0.164116
C41   C     C_3   0.842904 0.788737 0.833269 -0.443756
C42   C     C_3   0.730485 0.703407 0.882947 -0.233879
C43   C     C_3   0.806501 0.685282 0.976477 -0.869782
H49   H     H_    0.792132 0.752092 0.025127 0.299588
H50   H     H_    0.938921 0.680864 0.971059 0.264675
H51   H     H_    0.742353 0.610372 0.002720 0.278286
H52   H     H_    0.608682 0.727315 0.894436 0.199889
H53   H     H_    0.711936 0.628277 0.839743 0.228822
H54   H     H_    0.955515 0.756911 0.815456 0.208630
H55   H     H_    0.881437 0.859195 0.881477 0.169266
C44   C     C_3   0.080796 0.225249 0.935558 -0.244661
C45   C     C_3   0.005021 0.187584 0.027876 -0.281913
C46   C     C_3   0.971061 0.067237 0.030835 -0.890077
H56   H     H_    0.857823 0.034821 0.989333 0.249356
H57   H     H_    0.076098 0.032097 0.003119 0.257277
H58   H     H_    0.953994 0.044615 0.104338 0.276246
H59   H     H_    0.092984 0.218843 0.085929 0.218918
H60   H     H_    0.889761 0.220079 0.040411 0.206457
H61   H     H_    0.189187 0.187935 0.922097 0.243379
H62   H     H_    0.130316 0.310564 0.945315 0.182548

loop_
_geom_bond_atom_site_label_1
_geom_bond_atom_site_label_2
_geom_bond_distance
_ccdc_geom_bond_type
C46   H58   1.108873 S    
P4    C26   1.857547 S    
P7    C38   1.839628 S    
C21   C22   1.403949 A    
P6    C20   1.842525 S    
C41   H55   1.112575 S    
Ba1   O13   2.796897 S    
C13   H30   1.105334 S    
C2    H4    1.110008 S    
C15   H35   1.109461 S    
C36   C37   1.428158 A    
C31   C39   1.386829 A    
C41   C42   1.527323 S    
H36   C16   1.110564 S    
C4    C5    1.526237 S    
C44   H62   1.106059 S    
P1    C18   1.872029 S    
P3    O11   1.749315 S    
O1    Ba1   2.861612 S    
C5    H10   1.109531 S    
C2    H5    1.108465 S    
C14   H33   1.108771 S    
Ba1   O20   2.936334 S    
O11   C2    1.404432 S    
P3    C34   1.833215 S    
P7    O21   1.567527 D    
C45   H60   1.111055 S    
C16   H38   1.100622 S    
C37   C38   1.418233 A    
C6    C7    1.519130 S    
C29   H41   1.083353 S    
C33   H45   1.079303 S    
P1    O1    1.519020 D    
P7    O22   1.751162 S    
C4    O15   1.400465 S    
Ba1   O16   2.812969 S    
C15   C16   1.521146 S    
O16   P7    1.758617 S    
C31   C38   1.392292 A    
H1    C10   1.110166 S    
C19   H39   1.082065 S    
C33   C34   1.387345 A    
C12   H27   1.110113 S    
P2    O10   1.753336 S    
C11   O22   1.403253 S    
C43   H51   1.104502 S    
C11   H25   1.111445 S    
C30   H44   1.081393 S    
C1    H2    1.110963 S    
O6    C10   1.409231 S    
C8    C9    1.514676 S    
C46   H57   1.109660 S    
P2    Ba1   3.457198 S    
C13   H31   1.105927 S    
O2    Ba1   2.946904 S    
C9    H20   1.107262 S    
C15   O24   1.394033 S    
C21   H40   1.075140 S    
C3    H29   1.109834 S    
C24   C26   1.438910 A    
C24   C25   1.424256 A    
C32   C34   1.396282 A    
C7    H17   1.111000 S    
P4    O13   1.568480 S    
C42   C43   1.509916 S    
P1    O5    1.748849 S    
C28   C29   1.395140 A    
C46   H56   1.110448 S    
C2    C3    1.518585 S    
C14   H32   1.107805 S    
C19   C20   1.393570 A    
C16   H37   1.089136 S    
C20   C21   1.396265 A    
C4    H8    1.098788 S    
C25   C29   1.403178 A    
P1    Ba1   3.433264 S    
O14   P8    1.764668 S    
P1    O2    1.568599 S    
O10   C8    1.402215 S    
C17   C23   1.408687 A    
C11   H24   1.109081 S    
C24   C30   1.409962 A    
O2    Ba2   2.797464 S    
C26   C27   1.388877 A    
C12   H28   1.110835 S    
C17   H43   1.079755 S    
C6    H13   1.103935 S    
C42   H53   1.108662 S    
O3    Ba1   2.797301 S    
C1    H3    1.106080 S    
C32   C35   1.398065 A    
C36   C40   1.411227 A    
C8    H18   1.098403 S    
P2    O7    1.508010 D    
C22   C30   1.416467 A    
Ba2   O21   2.901785 S    
P3    O8    1.733265 S    
C43   H49   1.101691 S    
P5    C39   1.844750 S    
C13   C14   1.530779 S    
C3    H7    1.109182 S    
C9    H19   1.103762 S    
C45   H59   1.110697 S    
C35   C36   1.432280 A    
O17   Ba2   2.783047 S    
O13   Ba2   2.947669 S    
C8    C41   1.532285 S    
P4    O12   1.519385 D    
C1    C10   1.519450 S    
C11   C12   1.521593 S    
C41   H54   1.101681 S    
C3    H6    1.106243 S    
C27   H42   1.082587 S    
C5    H12   1.103975 S    
O7    Ba1   2.901584 S    
C15   H34   1.107547 S    
O8    Ba1   2.782461 S    
P8    O23   1.536869 D    
C14   C44   1.541432 S    
C45   C46   1.524578 S    
C4    H9    1.109013 S    
O14   Ba2   2.796701 S    
P4    O15   1.751188 S    
C44   H61   1.094733 S    
O5    C6    1.396242 S    
O4    P6    1.542967 D    
C17   C25   1.412798 A    
C1    H23   1.108442 S    
P5    O18   1.543234 D    
C5    H11   1.108687 S    
C10   H22   1.110821 S    
C39   C40   1.394631 A    
C32   H48   1.081737 S    
P8    O24   1.739630 S    
P2    O20   1.588151 S    
C31   H47   1.082436 S    
C18   C19   1.397199 A    
C44   C45   1.536555 S    
C7    H16   1.105215 S    
C27   C28   1.384941 A    
C6    H14   1.107374 S    
Ba1   Ba2   4.583889 S    
C42   H52   1.108903 S    
P2    C35   1.877540 S    
P5    O19   1.754933 S    
C22   C23   1.423214 A    
C40   H46   1.061453 S    
C9    H21   1.110018 S    
O19   C13   1.406151 S    
C7    H15   1.107863 S    
C12   H26   1.110197 S    
P3    O9    1.543178 D    
P4    Ba2   3.433726 S    
C43   H50   1.106942 S    
Ba2   O20   2.812306 S    
P8    C28   1.815073 S    
C33   C37   1.406229 A    
P5    O17   1.748471 S    
O6    P6    1.749459 S    
C18   C23   1.438042 A    
O16   Ba2   2.935551 S    
O3    P6    1.727218 S    
O12   Ba2   2.862133 S    
