data_mof_unit_29529.cif
_audit_creation_date              2012-10-26T19:42:17-0400
_audit_creation_method            fapswitch 2.2
_symmetry_space_group_name_H-M    P1
_symmetry_Int_Tables_number       1
_space_group_crystal_system       triclinic
_cell_length_a                    9.636391
_cell_length_b                    10.87789
_cell_length_c                    17.396955
_cell_angle_alpha                 95.138905
_cell_angle_beta                  85.954538
_cell_angle_gamma                 92.025397
_cell_volume                      1810.98269145

loop_
_atom_site_label
_atom_site_type_symbol
_atom_type_description
_atom_site_fract_x
_atom_site_fract_y
_atom_site_fract_z
_atom_type_partial_charge
C1    C     C_R   0.501508 0.737584 0.497323 0.536842
C2    C     C_R   0.531803 0.529011 0.267838 -0.005027
C3    C     C_R   0.260646 0.870788 0.451682 -0.140101
C4    C     C_R   0.482006 0.502144 0.649494 0.541017
C5    C     C_R   0.131028 0.922638 0.457444 -0.097934
C6    C     C_R   0.112126 0.040283 0.495190 0.143788
C7    C     C_R   0.227835 0.106141 0.524477 -0.110934
C8    C     C_R   0.363020 0.058622 0.510746 -0.000737
C9    C     C_R   0.375137 0.932625 0.485885 0.018861
C10   C     C_R   0.499829 0.872726 0.497535 -0.007664
C11   C     C_R   0.614721 0.943475 0.522794 -0.161262
C12   C     C_R   0.360241 0.458373 0.775216 -0.132066
C13   C     C_R   0.609224 0.071464 0.532073 -0.162539
C14   C     C_R   0.487008 0.130912 0.520210 -0.018984
C15   C     C_R   0.860381 0.363801 0.381973 -0.072430
C16   C     C_R   0.496081 0.263898 0.508166 0.540011
C17   C     C_R   0.928475 0.324672 0.311821 0.063401
C18   C     C_R   0.071536 0.334258 0.305366 -0.150351
C19   C     C_R   0.146230 0.365886 0.371341 0.160715
C20   C     C_R   0.078381 0.433926 0.438605 0.144941
C21   C     C_R   0.928760 0.433613 0.440772 0.088269
C22   C     C_R   0.921912 0.564063 0.556206 -0.006099
C23   C     C_R   0.434250 0.570018 0.148353 -0.137472
C24   C     C_R   0.069328 0.563473 0.556456 -0.014729
C25   C     C_R   0.518725 0.509258 0.350964 0.562939
C26   C     C_R   0.474649 0.508898 0.733591 0.019453
C27   C     C_R   0.585186 0.565655 0.772708 -0.125945
C28   C     C_R   0.582936 0.570473 0.852633 -0.104259
C29   C     C_R   0.471161 0.515491 0.894764 0.043476
C30   C     C_R   0.359020 0.461065 0.855457 -0.115584
C31   C     C_3   0.893441 0.628307 0.105202 -0.328884
C32   C     C_3   0.909235 0.081444 0.427574 -0.324333
C33   C     C_3   0.774903 0.159129 0.258699 -0.320243
C34   C     C_R   0.418026 0.563319 0.228129 0.105454
C35   C     C_3   0.243997 0.715661 0.265351 -0.315756
C36   C     C_3   0.348470 0.248694 0.309304 -0.291438
C37   C     C_R   0.662763 0.516562 0.227426 -0.143050
C38   C     C_R   0.679531 0.527266 0.147862 0.147669
C39   C     C_R   0.562594 0.547899 0.107280 0.039835
C40   C     C_2   0.465652 0.515111 0.979525 -0.148184
C41   C     C_2   0.574402 0.546768 0.022263 -0.118662
Cu1   Cu    Cu3+1 0.359340 0.500010 0.500010 0.958605
Cu2   Cu    Cu3+1 0.640660 0.499990 0.499990 0.916506
H1    H     H_    0.673097 0.607657 0.741431 0.114872
H2    H     H_    0.870407 0.445941 0.128525 0.251272
H3    H     H_    0.917797 0.666502 0.164336 0.135997
H4    H     H_    0.834943 0.696936 0.077754 0.149890
H5    H     H_    0.992692 0.611263 0.070029 0.135506
H6    H     H_    0.269137 0.782298 0.419100 0.162336
H7    H     H_    0.045706 0.869341 0.432723 0.112399
H8    H     H_    0.977934 0.185384 0.524920 0.247094
H9    H     H_    0.820152 0.143191 0.431585 0.147894
H10   H     H_    0.866574 0.985856 0.417327 0.146974
H11   H     H_    0.981524 0.104013 0.377924 0.152955
H12   H     H_    0.709363 0.900091 0.534847 0.149525
H13   H     H_    0.211051 0.195549 0.555411 0.138343
H14   H     H_    0.863510 0.617092 0.602342 0.110935
H15   H     H_    0.754081 0.336053 0.389040 0.197796
H16   H     H_    0.910440 0.269247 0.195429 0.241518
H17   H     H_    0.846439 0.083288 0.264682 0.133099
H18   H     H_    0.714507 0.133741 0.207286 0.143393
H19   H     H_    0.699823 0.169415 0.309954 0.134935
H20   H     H_    0.209836 0.528296 0.248230 0.245471
H21   H     H_    0.148257 0.730991 0.303894 0.131317
H22   H     H_    0.219828 0.733791 0.205974 0.119997
H23   H     H_    0.700844 0.124557 0.548901 0.162161
H24   H     H_    0.327520 0.781632 0.285101 0.150616
H25   H     H_    0.122899 0.294706 0.252064 0.108669
H26   H     H_    0.232639 0.219546 0.408580 0.253425
H27   H     H_    0.451872 0.224447 0.326755 0.139007
H28   H     H_    0.363581 0.320140 0.267761 0.152076
H29   H     H_    0.299707 0.164378 0.280335 0.101924
H30   H     H_    0.270849 0.419695 0.886837 0.100672
H31   H     H_    0.273783 0.414556 0.745690 0.118980
H32   H     H_    0.120294 0.615953 0.602766 0.120767
H33   H     H_    0.753383 0.499047 0.257530 0.165317
H34   H     H_    0.675939 0.566508 0.994870 0.150121
H35   H     H_    0.345411 0.594450 0.118835 0.106004
H36   H     H_    0.368259 0.483387 0.007423 0.109438
H37   H     H_    0.668708 0.618358 0.880165 0.095340
N1    N     N_R   0.852190 0.498790 0.499250 -0.245706
N2    N     N_R   0.148060 0.498710 0.499220 -0.239744
N3    N     N_2   0.813524 0.513636 0.108721 -0.524036
N4    N     N_2   0.980199 0.096503 0.498664 -0.529109
N5    N     N_2   0.853647 0.272849 0.248063 -0.530585
N6    N     N_2   0.286440 0.589676 0.267221 -0.485387
N7    N     N_2   0.263156 0.292661 0.377812 -0.429889
O1    O     O_R   0.381190 0.680360 0.500010 -0.508770
O2    O     O_R   0.618760 0.680340 0.500000 -0.505597
O3    O     O_R   0.367440 0.500030 0.613600 -0.515256
O4    O     O_R   0.605010 0.500010 0.613590 -0.507700
O5    O     O_R   0.381240 0.319660 0.500000 -0.493361
O6    O     O_R   0.618810 0.319640 0.499990 -0.532733
O7    O     O_R   0.394990 0.499990 0.386410 -0.429051
O8    O     O_R   0.632560 0.499970 0.386400 -0.538226

loop_
_geom_bond_atom_site_label_1
_geom_bond_atom_site_label_2
_ccdc_geom_bond_type
C20   N2    A    
C38   N3    S    
C19   C20   A    
Cu1   N2    S    
C22   H14   S    
C3    H6    S    
C7    C8    A    
C39   C41   S    
C26   C27   A    
C29   C30   A    
C17   N5    S    
C28   C29   A    
C19   N7    S    
C41   H34   S    
C38   C39   A    
C35   N6    S    
C35   H22   S    
C18   H25   S    
C31   N3    S    
C18   C19   A    
C34   N6    S    
C33   N5    S    
C32   H9    S    
C24   N2    A    
C27   H1    S    
C33   H19   S    
C31   H3    S    
Cu2   O8    S    
C35   H21   S    
C9    C10   A    
Cu1   O5    S    
H26   N7    S    
C36   H28   S    
C4    O4    A    
C2    C34   A    
C1    O1    A    
C25   O7    A    
C31   H4    S    
C13   C14   A    
H2    N3    S    
C7    H13   S    
C32   H11   S    
C36   H27   S    
C4    O3    A    
C13   H23   S    
C36   N7    S    
C32   N4    S    
C6    N4    S    
C22   N1    A    
C30   H30   S    
C8    C9    A    
C8    C14   A    
Cu2   O4    S    
C12   C26   A    
Cu1   O3    S    
H16   N5    S    
C37   C38   A    
C3    C9    A    
C35   H24   S    
C23   C34   A    
C17   C18   A    
C16   O6    A    
C40   H36   S    
Cu2   O2    S    
C40   C41   D    
C37   H33   S    
C21   N1    A    
C25   O8    A    
C33   H17   S    
C31   H5    S    
H20   N6    S    
Cu2   N1    S    
C15   H15   S    
C14   C16   S    
C5    H7    S    
Cu1   O1    S    
Cu1   Cu2   S    
C32   H10   S    
C11   H12   S    
C15   C17   A    
C1    O2    A    
C12   C30   A    
Cu1   O7    S    
C1    C10   S    
C3    C5    A    
C4    C26   S    
C24   H32   S    
C16   O5    A    
C6    C7    A    
C12   H31   S    
C11   C13   A    
C2    C37   A    
C5    C6    A    
C23   C39   A    
C29   C40   S    
Cu2   O6    S    
C2    C25   S    
C22   C24   A    
C23   H35   S    
C28   H37   S    
C10   C11   A    
C15   C21   A    
C20   C21   A    
C33   H18   S    
C27   C28   A    
H8    N4    S    
C36   H29   S    
