data_mof_unit_65844.cif
_audit_creation_date              2012-12-10T20:50:05-0500
_audit_creation_method            fapswitch 2.2
_symmetry_space_group_name_H-M    P1
_symmetry_Int_Tables_number       1
_space_group_crystal_system       triclinic
_cell_length_a                    19.208965
_cell_length_b                    19.21945
_cell_length_c                    19.200412
_cell_angle_alpha                 94.554818
_cell_angle_beta                  90.345199
_cell_angle_gamma                 85.126972
_cell_volume                      7040.58835589

loop_
_atom_site_label
_atom_site_type_symbol
_atom_type_description
_atom_site_fract_x
_atom_site_fract_y
_atom_site_fract_z
_atom_type_partial_charge
C1    C     C_R   0.492442 0.492868 0.310655 0.510541
C2    C     C_R   0.122576 0.575541 0.487041 -0.108178
C3    C     C_R   0.513307 0.505959 0.765594 -0.030601
C4    C     C_R   0.507629 0.506860 0.689263 0.515487
C5    C     C_R   0.466959 0.469218 0.801889 -0.107199
C6    C     C_R   0.473267 0.465451 0.873732 0.416298
C7    C     C_R   0.526257 0.499127 0.910798 0.229343
C8    C     C_R   0.573320 0.534563 0.874407 -0.168533
C9    C     C_R   0.566601 0.538652 0.802385 -0.168000
C10   C     C_R   0.542959 0.464791 0.120348 -0.090885
C11   C     C_R   0.545514 0.462185 0.192752 -0.148211
C12   C     C_R   0.912895 0.476246 0.495210 0.224448
C13   C     C_R   0.483288 0.496520 0.088572 0.230632
C14   C     C_R   0.489013 0.491719 0.234211 0.030233
C15   C     C_R   0.429302 0.522213 0.202217 -0.143792
C16   C     C_R   0.492241 0.689947 0.507917 0.510083
C17   C     C_R   0.426334 0.523786 0.129933 -0.101093
C18   C     C_R   0.514230 0.233252 0.492999 0.018624
C19   C     C_R   0.456002 0.200555 0.513629 -0.159925
C20   C     C_R   0.459830 0.128378 0.517281 -0.091229
C21   C     C_R   0.522569 0.087102 0.500578 0.211949
C22   C     C_R   0.580946 0.119500 0.480737 -0.111252
C23   C     C_R   0.877436 0.422666 0.461216 -0.106822
C24   C     C_R   0.577441 0.192019 0.476377 -0.037169
C25   C     C_R   0.539125 0.876747 0.535682 -0.088735
C26   C     C_R   0.543033 0.804003 0.536622 -0.151279
C27   C     C_R   0.479078 0.913104 0.509129 0.226105
C28   C     C_R   0.508160 0.310137 0.492766 0.508029
C29   C     C_R   0.487535 0.766721 0.510544 0.030954
C30   C     C_R   0.427307 0.803284 0.485526 -0.143919
C31   C     C_R   0.422983 0.875930 0.485632 -0.108503
C32   C     C_R   0.310683 0.508248 0.507742 0.508592
C33   C     C_R   0.689331 0.491862 0.492376 0.510487
C34   C     C_R   0.804523 0.428137 0.458808 -0.140360
C35   C     C_R   0.766084 0.486907 0.491802 0.028075
C36   C     C_R   0.801561 0.540197 0.526750 -0.151214
C37   C     C_R   0.874201 0.535119 0.528454 -0.090568
C38   C     C_1   0.640228 0.222586 0.457714 0.224314
C39   C     C_R   0.126306 0.460192 0.530404 -0.088639
C40   C     C_R   0.199148 0.456983 0.532063 -0.149312
C41   C     C_R   0.087585 0.519508 0.506999 0.224901
C42   C     C_R   0.234085 0.512411 0.509660 0.031481
C43   C     C_R   0.195257 0.571802 0.487416 -0.144470
F1    F     F_    0.428810 0.427484 0.906530 -0.600714
H1    H     H_    0.228118 0.410770 0.549599 0.135782
H2    H     H_    0.629431 0.087785 0.468676 0.126713
H3    H     H_    0.100366 0.416763 0.547725 0.140016
H4    H     H_    0.383442 0.775720 0.465870 0.136876
H5    H     H_    0.413876 0.105193 0.533884 0.143992
H6    H     H_    0.376265 0.903358 0.465940 0.123522
H7    H     H_    0.407164 0.230999 0.526996 0.138123
H8    H     H_    0.906471 0.376841 0.436018 0.129205
H9    H     H_    0.778280 0.385977 0.432154 0.158838
H10   H     H_    0.221096 0.615533 0.470567 0.135245
H11   H     H_    0.899969 0.576855 0.556413 0.139183
H12   H     H_    0.587227 0.441784 0.089398 0.143020
H13   H     H_    0.093313 0.621793 0.469937 0.123755
H14   H     H_    0.773171 0.585897 0.552929 0.137429
H15   H     H_    0.592018 0.438261 0.216351 0.140405
H16   H     H_    0.614775 0.559811 0.902159 0.136388
H17   H     H_    0.603581 0.566553 0.775450 0.155302
H18   H     H_    0.384762 0.544768 0.233079 0.140863
H19   H     H_    0.379839 0.547361 0.106009 0.135421
H20   H     H_    0.425977 0.442754 0.774624 0.166373
H21   H     H_    0.589840 0.776872 0.556459 0.134635
H22   H     H_    0.582796 0.904378 0.555655 0.139370
N1    N     N_2   0.987040 0.468793 0.496193 -0.244155
N2    N     N_2   0.013635 0.525833 0.504838 -0.248770
N3    N     N_2   0.534320 0.497043 0.984037 -0.241537
N4    N     N_2   0.477348 0.500057 0.015355 -0.148988
N5    N     N_2   0.529473 0.013334 0.504184 -0.242821
N6    N     N_2   0.472574 0.986745 0.505781 -0.246649
N7    N     N_1   0.690574 0.247024 0.442800 -0.291466
O1    O     O_3   0.500000 0.500000 0.500000 -0.439441
O2    O     O_R   0.340900 0.545940 0.467290 -0.548078
O3    O     O_R   0.655960 0.450920 0.450930 -0.535486
O4    O     O_R   0.347180 0.467040 0.545670 -0.541665
O5    O     O_R   0.655970 0.536100 0.536110 -0.547985
O6    O     O_R   0.536480 0.656330 0.545680 -0.543374
O7    O     O_R   0.545300 0.340270 0.450920 -0.525094
O8    O     O_R   0.451550 0.536740 0.347440 -0.545341
O9    O     O_R   0.466670 0.466660 0.655960 -0.542866
O10   O     O_R   0.536460 0.451300 0.340640 -0.539409
O11   O     O_R   0.545320 0.545300 0.655970 -0.539948
O12   O     O_R   0.451560 0.656600 0.467300 -0.546578
O13   O     O_R   0.466660 0.346810 0.536100 -0.544439
Zn1   Zn    Zn3+2 0.558430 0.558420 0.558430 0.939577
Zn2   Zn    Zn3+2 0.437090 0.558800 0.446440 0.936840
Zn3   Zn    Zn3+2 0.446060 0.446060 0.558420 0.945231
Zn4   Zn    Zn3+2 0.558420 0.436720 0.436720 0.962015

loop_
_geom_bond_atom_site_label_1
_geom_bond_atom_site_label_2
_ccdc_geom_bond_type
O5    Zn1   S    
C35   C36   A    
O11   Zn1   S    
C32   O2    A    
O6    Zn1   S    
C2    H13   S    
C7    C8    A    
C39   C41   A    
C12   C23   A    
O4    Zn3   S    
C20   H5    S    
O9    Zn3   S    
C21   N5    S    
C9    H17   S    
O1    Zn3   S    
C30   H4    S    
C36   C37   A    
C18   C19   A    
C36   H14   S    
C5    C6    A    
C11   C14   A    
C33   O5    A    
C13   N4    S    
C2    C41   A    
C1    O8    A    
C34   C35   A    
C12   C37   A    
C33   O3    A    
C32   O4    A    
C19   C20   A    
C8    C9    A    
C24   C38   S    
O1    Zn1   S    
C10   H12   S    
C40   C42   A    
C6    F1    S    
C21   C22   A    
C11   H15   S    
C41   N2    S    
C40   H1    S    
C12   N1    S    
C27   C31   A    
N1    N2    D    
C18   C28   S    
C39   C40   A    
C25   C26   A    
O13   Zn3   S    
C5    H20   S    
C29   C30   A    
C3    C9    A    
C43   H10   S    
C4    O11   A    
C2    C43   A    
C23   C34   A    
C34   H9    S    
C22   H2    S    
C28   O13   A    
C16   O12   A    
C18   C24   A    
C1    O10   A    
C42   C43   A    
C31   H6    S    
C3    C4    S    
C39   H3    S    
O12   Zn2   S    
C15   C17   A    
O10   Zn4   S    
C26   H21   S    
C25   H22   S    
C3    C5    A    
C10   C13   A    
C7    N3    S    
C6    C7    A    
C25   C27   A    
C13   C17   A    
C16   O6    A    
O1    Zn4   S    
C16   C29   S    
N5    N6    D    
C17   H19   S    
C23   H8    S    
C30   C31   A    
C33   C35   S    
C15   H18   S    
C22   C24   A    
O7    Zn4   S    
N3    N4    D    
C28   O7    A    
O8    Zn2   S    
C10   C11   A    
C37   H11   S    
C19   H7    S    
O2    Zn2   S    
C4    O9    A    
C20   C21   A    
C26   C29   A    
C32   C42   S    
C14   C15   A    
C1    C14   S    
O1    Zn2   S    
C8    H16   S    
C27   N6    S    
O3    Zn4   S    
C38   N7    T    
