data_mof_unit_57544.cif
_audit_creation_date              2013-03-05T16:05:19-0500
_audit_creation_method            fapswitch 2.2
_symmetry_space_group_name_H-M    P1
_symmetry_Int_Tables_number       1
_space_group_crystal_system       triclinic
_cell_length_a                    10.79656
_cell_length_b                    9.651984
_cell_length_c                    15.864539
_cell_angle_alpha                 91.384166
_cell_angle_beta                  92.049048
_cell_angle_gamma                 88.524749
_cell_volume                      1651.16395735

loop_
_atom_site_label
_atom_site_type_symbol
_atom_site_description
_atom_site_fract_x
_atom_site_fract_y
_atom_site_fract_z
_atom_type_partial_charge
O1    O     O_R   0.319660 0.618740 0.500000 -0.591205
O2    O     O_R   0.319660 0.381260 0.500000 -0.579228
C1    C     C_R   0.262690 0.501208 0.500554 0.791640
O3    O     O_R   0.500020 0.618840 0.379440 -0.539286
O4    O     O_R   0.500020 0.381160 0.379440 -0.591235
C2    C     C_R   0.500344 0.498547 0.340583 0.816402
Cu1   Cu    Cu3+1 0.500020 0.640660 0.500000 1.017908
Cu2   Cu    Cu3+1 0.500020 0.359340 0.500000 1.009354
O5    O     O_R   0.680370 0.618830 0.500010 -0.551519
O6    O     O_R   0.680370 0.381170 0.500010 -0.549118
O7    O     O_R   0.500010 0.618730 0.620560 -0.575162
O8    O     O_R   0.500010 0.381270 0.620560 -0.554500
C3    C     C_R   0.737343 0.498590 0.500087 0.909978
C4    C     C_R   0.500143 0.501417 0.659491 0.840034
C5    C     C_3   0.446714 0.640413 0.052455 0.069841
C6    C     C_3   0.410047 0.382592 0.043571 0.070829
C7    C     C_3   0.419752 0.380322 0.944999 0.070320
C8    C     C_3   0.436449 0.641124 0.953505 0.069517
H1    H     H_    0.336014 0.637392 0.934881 0.077491
H2    H     H_    0.323681 0.396916 0.918240 0.100281
H3    H     H_    0.350434 0.653895 0.075189 0.095361
H4    H     H_    0.313616 0.417072 0.058050 0.068983
C9    C     C_1   0.499774 0.504406 0.749079 -0.063505
C10   C     C_3   0.498043 0.495709 0.083288 -0.031845
C11   C     C_3   0.498638 0.504656 0.916920 -0.038173
C12   C     C_3   0.633025 0.489946 0.954882 -0.326422
C13   C     C_3   0.630996 0.468458 0.050997 -0.319283
C14   C     C_1   0.499328 0.505401 0.824608 0.076767
C15   C     C_1   0.498863 0.494793 0.175556 0.073385
C16   C     C_1   0.499598 0.495601 0.251057 -0.093237
H5    H     H_    0.699159 0.536378 0.084422 0.226123
H6    H     H_    0.663647 0.361149 0.064536 0.248947
H7    H     H_    0.686507 0.583695 0.943133 0.246999
H8    H     H_    0.684916 0.403024 0.924027 0.227089
C17   C     C_R   0.070619 0.407118 0.550764 -0.215091
C18   C     C_R   0.059604 0.592858 0.450658 -0.250022
H9    H     H_    0.125615 0.337802 0.590736 0.193864
H10   H     H_    0.104745 0.661820 0.409935 0.178704
C19   C     C_R   0.941868 0.405627 0.552176 0.311993
C20   C     C_R   0.931238 0.588865 0.447103 0.317091
C21   C     C_R   0.871567 0.496455 0.499359 -0.265491
C22   C     C_R   0.128943 0.502121 0.501511 -0.137313
C23   C     C_R   0.432639 0.072350 0.439603 0.198059
C24   C     C_R   0.417172 0.927737 0.449377 0.231345
N1    N     N_R   0.500030 0.852070 0.500020 -0.180040
N2    N     N_R   0.500030 0.147930 0.500020 -0.189001
C25   C     C_R   0.577514 0.926005 0.553461 -0.005567
C26   C     C_R   0.572781 0.073985 0.556447 -0.002429
H11   H     H_    0.640255 0.871169 0.596453 0.164267
H12   H     H_    0.631328 0.128783 0.602104 0.196137
N3    N     N_R   0.426708 0.243213 0.079113 0.197405
O9    O     O_R   0.342826 0.151239 0.062124 -0.251544
O10   O     O_R   0.519110 0.210920 0.130447 -0.313648
N4    N     N_R   0.518602 0.756310 0.089044 0.203530
O11   O     O_R   0.465932 0.845141 0.140250 -0.297898
O12   O     O_R   0.631833 0.776772 0.067706 -0.270506
N5    N     N_R   0.465827 0.246299 0.910616 0.201493
O13   O     O_R   0.399155 0.179903 0.853716 -0.278800
O14   O     O_R   0.570517 0.190465 0.937383 -0.253756
N6    N     N_R   0.480659 0.770998 0.919324 0.201339
O15   O     O_R   0.418297 0.885833 0.933526 -0.200463
O16   O     O_R   0.576708 0.774061 0.872182 -0.309950
N7    N     N_R   0.884799 0.316264 0.609908 0.130824
O17   O     O_R   0.798353 0.364861 0.658370 -0.371067
O18   O     O_R   0.932683 0.193550 0.624057 -0.334671
N8    N     N_R   0.863560 0.674709 0.387586 0.142136
O19   O     O_R   0.901004 0.798792 0.373286 -0.331474
O20   O     O_R   0.777895 0.621643 0.337860 -0.353566
C27   C     C_3   0.390195 0.129087 0.353525 -0.300451
C28   C     C_3   0.268016 0.214313 0.352038 -0.718642
H13   H     H_    0.214704 0.198729 0.409440 0.246960
H14   H     H_    0.284079 0.326049 0.344849 0.238756
H15   H     H_    0.208743 0.181787 0.296721 0.240479
H16   H     H_    0.466350 0.176205 0.320964 0.245286
H17   H     H_    0.375104 0.041985 0.308036 0.204600
C29   C     C_3   0.293008 0.872087 0.416087 -0.362467
C30   C     C_3   0.296607 0.788932 0.332473 -0.712822
H18   H     H_    0.383679 0.804955 0.299356 0.278313
H19   H     H_    0.285739 0.677023 0.342540 0.224120
H20   H     H_    0.218075 0.822157 0.289823 0.244294
H21   H     H_    0.242639 0.823896 0.466066 0.225258
H22   H     H_    0.226726 0.959581 0.404611 0.186896

loop_
_geom_bond_atom_site_label_1
_geom_bond_atom_site_label_2
_geom_bond_distance
_ccdc_geom_bond_type
C5    C8    1.569917 S    
N8    O20   1.301067 A    
N7    O18   1.301363 A    
C1    C22   1.444419 S    
C18   C22   1.391226 A    
C6    N3    1.475468 S    
C3    C21   1.449236 S    
Cu1   Cu2   2.715296 S    
C25   H11   1.081711 S    
C30   H18   1.109244 S    
C11   C14   1.464968 S    
Cu1   O7    1.929384 S    
C12   C13   1.544812 S    
Cu1   N1    2.040521 S    
C17   H9    1.084163 S    
O4    C2    1.303019 A    
O7    C4    1.302770 A    
N5    O14   1.301412 A    
C7    H2    1.115777 S    
N6    O16   1.301424 A    
C8    H1    1.114899 S    
N1    C25   1.370654 A    
C24   C29   1.528812 S    
C17   C22   1.395505 A    
O5    C3    1.299429 A    
C10   C15   1.463742 S    
C12   H8    1.110371 S    
C6    C7    1.570625 S    
C10   C13   1.555229 S    
C28   H13   1.109862 S    
C26   H12   1.081621 S    
N8    O19   1.301489 A    
C6    C10   1.571306 S    
C20   N8    1.438485 S    
C8    C11   1.570996 S    
O3    Cu1   1.919126 S    
N2    C26   1.370920 A    
C30   H19   1.105518 S    
N4    O12   1.301299 A    
C13   H5    1.110263 S    
N3    O9    1.301262 A    
C5    N4    1.473706 S    
C18   C20   1.386536 A    
C29   C30   1.534896 S    
C19   C21   1.415091 A    
C29   H22   1.106975 S    
C11   C12   1.555339 S    
N6    O15   1.301139 A    
N3    O10   1.301458 A    
C4    C9    1.421019 S    
C17   C19   1.391501 A    
C23   C24   1.422850 A    
C15   C16   1.197371 T    
C12   H7    1.108910 S    
C25   C26   1.427601 A    
Cu2   O8    1.919219 S    
C28   H15   1.111349 S    
C27   H16   1.100307 S    
C9    C14   1.198222 T    
C8    N6    1.474923 S    
C20   C21   1.414695 A    
C2    C16   1.419629 S    
O8    C4    1.300643 A    
O3    C2    1.301325 A    
C24   N1    1.386530 A    
C30   H20   1.111316 S    
Cu1   O5    1.953122 S    
N4    O11   1.301046 A    
C5    C10   1.571886 S    
C6    H4    1.114913 S    
C13   H6    1.108926 S    
O1    Cu1   1.964135 S    
O2    Cu2   1.953305 S    
O6    C3    1.303295 A    
C29   H21   1.096558 S    
O4    Cu2   1.929239 S    
C19   N7    1.438175 S    
C7    C11   1.571491 S    
C18   H10   1.076079 S    
O2    C1    1.296918 A    
N5    O13   1.301156 A    
C27   H17   1.106102 S    
C27   C28   1.536273 S    
C23   N2    1.387055 A    
Cu2   N2    2.040532 S    
N7    O17   1.301374 A    
C5    H3    1.115858 S    
Cu2   O6    1.963907 S    
C28   H14   1.105975 S    
O1    C1    1.304644 A    
C23   C27   1.534011 S    
C7    N5    1.473287 S    
