data_mof_unit_24621.cif
_audit_creation_date              2012-12-10T17:51:32-0500
_audit_creation_method            fapswitch 2.2
_symmetry_space_group_name_H-M    P1
_symmetry_Int_Tables_number       1
_space_group_crystal_system       triclinic
_cell_length_a                    9.969862
_cell_length_b                    10.607539
_cell_length_c                    16.541436
_cell_angle_alpha                 92.31615
_cell_angle_beta                  86.24364
_cell_angle_gamma                 88.798663
_cell_volume                      1743.67763282

loop_
_atom_site_label
_atom_site_type_symbol
_atom_type_description
_atom_site_fract_x
_atom_site_fract_y
_atom_site_fract_z
_atom_type_partial_charge
C1    C     C_R   0.499099 0.739108 0.498386 0.825695
C2    C     C_R   0.523055 0.531384 0.260922 -0.049323
C3    C     C_R   0.392953 0.861500 0.361819 -0.145395
C4    C     C_R   0.481679 0.503310 0.653399 0.812431
C5    C     C_R   0.342847 0.923392 0.297102 -0.240653
C6    C     C_R   0.344199 0.054905 0.295552 0.059339
C7    C     C_R   0.397461 0.124009 0.359686 -0.160314
C8    C     C_R   0.447691 0.062123 0.426106 0.051562
C9    C     C_R   0.444915 0.930278 0.427256 0.116204
C10   C     C_R   0.498144 0.871226 0.493368 -0.041648
C11   C     C_R   0.557357 0.938136 0.555111 -0.194986
C12   C     C_R   0.369049 0.484530 0.792208 0.431660
C13   C     C_R   0.560617 0.066699 0.553896 -0.180453
C14   C     C_R   0.504182 0.127817 0.491111 -0.080025
C15   C     C_R   0.841997 0.629834 0.623626 -0.102709
C16   C     C_R   0.501455 0.260666 0.497076 0.861392
C17   C     C_R   0.896383 0.662338 0.696432 -0.191706
C18   C     C_R   0.034005 0.653462 0.701638 -0.197643
C19   C     C_R   0.116165 0.628919 0.630706 0.043050
C20   C     C_R   0.062807 0.564016 0.562675 0.136106
C21   C     C_R   0.919100 0.563654 0.561432 0.063509
C22   C     C_R   0.935970 0.437098 0.440879 0.503388
C23   C     C_R   0.402063 0.567996 0.142135 -0.146526
C24   C     C_R   0.079703 0.438301 0.440969 -0.231354
C25   C     C_R   0.517408 0.503169 0.346555 0.837828
C26   C     C_R   0.466837 0.539304 0.739281 -0.146325
C27   C     C_R   0.531914 0.648434 0.764703 -0.269863
C28   C     C_R   0.506873 0.699609 0.842663 -0.158436
C29   C     C_R   0.412962 0.644272 0.895565 0.098748
C30   C     C_R   0.341740 0.539450 0.869675 -0.161585
C31   C     C_2   0.290569 0.118281 0.226108 0.380791
C32   C     C_2   0.213946 0.728875 0.621211 0.504068
C33   C     C_R   0.405685 0.522907 0.219235 -0.150133
C34   C     C_R   0.638255 0.583692 0.223699 -0.175773
C35   C     C_R   0.634327 0.630103 0.146294 -0.175024
C36   C     C_R   0.515548 0.624767 0.105568 0.182053
C37   C     C_2   0.406117 0.678202 0.981849 -0.220515
C38   C     C_2   0.518234 0.663157 0.021218 -0.210095
H1    H     H_    0.598223 0.697624 0.723374 0.138573
H2    H     H_    0.315345 0.483286 0.246774 0.193646
H3    H     H_    0.075330 0.694705 0.755459 0.138123
H4    H     H_    0.140843 0.387747 0.393238 0.164284
H5    H     H_    0.729636 0.592546 0.255248 0.171710
H6    H     H_    0.615451 0.658366 0.987112 0.159744
H7    H     H_    0.270582 0.495445 0.911499 0.159131
H8    H     H_    0.310688 0.555041 0.111463 0.133945
H9    H     H_    0.307539 0.683043 0.013764 0.144553
H10   H     H_    0.561719 0.781273 0.862183 0.150098
H11   H     H_    0.251997 0.062516 0.176652 0.066870
H12   H     H_    0.723896 0.670423 0.118206 0.132116
H13   H     H_    0.943205 0.329993 0.342631 0.319024
H14   H     H_    0.299197 0.733129 0.658700 0.032108
H15   H     H_    0.344761 0.335525 0.722312 0.334967
H16   H     H_    0.599299 0.890530 0.604878 0.132968
H17   H     H_    0.391722 0.759660 0.359356 0.154805
H18   H     H_    0.303613 0.868117 0.247806 0.137757
H19   H     H_    0.401224 0.225551 0.356602 0.171272
H20   H     H_    0.603973 0.119057 0.603082 0.152079
H21   H     H_    0.741353 0.660136 0.616014 0.185134
H22   H     H_    0.833790 0.705047 0.746502 0.149567
N1    N     N_R   0.857140 0.501200 0.500750 -0.128413
N2    N     N_R   0.142740 0.501280 0.500770 -0.127590
O1    O     O_R   0.385310 0.683220 0.500000 -0.594773
O2    O     O_3   0.873574 0.370940 0.381134 -0.730769
O3    O     O_2   0.191841 0.815807 0.577272 -0.562266
O4    O     O_3   0.299829 0.377761 0.771567 -0.756073
O5    O     O_R   0.614640 0.683250 0.500010 -0.641724
O6    O     O_R   0.371780 0.500010 0.615800 -0.625709
O7    O     O_R   0.601110 0.500030 0.615800 -0.620266
O8    O     O_R   0.385360 0.316750 0.499990 -0.607707
O9    O     O_R   0.614690 0.316780 0.500000 -0.568616
O10   O     O_R   0.398890 0.499970 0.384200 -0.635540
O11   O     O_R   0.628220 0.499990 0.384200 -0.552568
O12   O     O_2   0.288287 0.233090 0.223201 -0.606604
Zn1   Zn    Zn3+2 0.346870 0.499980 0.499990 0.965887
Zn2   Zn    Zn3+2 0.653130 0.500020 0.500010 0.992919

loop_
_geom_bond_atom_site_label_1
_geom_bond_atom_site_label_2
_ccdc_geom_bond_type
C24   H4    S    
C30   H7    S    
C19   C20   A    
C7    C8    A    
O6    Zn1   S    
C26   C27   A    
C37   C38   D    
C28   C29   A    
C18   C19   A    
O9    Zn2   S    
O7    Zn2   S    
C34   C35   A    
C32   H14   S    
C5    H18   S    
C3    H17   S    
C35   C36   A    
C27   H1    S    
C8    C9    A    
C23   C33   A    
C24   N2    A    
C14   C16   S    
C37   H9    S    
C9    C10   A    
C21   N1    A    
C2    C34   A    
C6    C31   S    
C23   H8    S    
C13   C14   A    
C16   O9    A    
C31   H11   S    
O10   Zn1   S    
C19   C32   S    
C1    O1    A    
C4    O7    A    
N1    Zn2   S    
C33   H2    S    
C1    C10   S    
C16   O8    A    
C18   H3    S    
C4    O6    A    
C31   O12   D    
C13   H20   S    
C12   O4    S    
C12   C26   A    
C38   H6    S    
C29   C30   A    
C3    C9    A    
C35   H12   S    
C17   C18   A    
C25   O10   A    
H15   O4    S    
C11   H16   S    
C2    C33   A    
O11   Zn2   S    
C22   C24   A    
N2    Zn1   S    
O8    Zn1   S    
C15   C17   A    
C28   H10   S    
C8    C14   A    
C12   C30   A    
C15   H21   S    
H13   O2    S    
C3    C5    A    
C4    C26   S    
C6    C7    A    
C36   C38   S    
C22   N1    A    
C11   C13   A    
C5    C6    A    
O1    Zn1   S    
C1    O5    A    
C2    C25   S    
C25   O11   A    
C20   N2    A    
C10   C11   A    
C17   H22   S    
C22   O2    S    
C15   C21   A    
C20   C21   A    
C23   C36   A    
C29   C37   S    
C27   C28   A    
O5    Zn2   S    
C34   H5    S    
C7    H19   S    
C32   O3    D    
