data_mof_unit_36608.cif
_audit_creation_date              2012-12-10T17:53:20-0500
_audit_creation_method            fapswitch 2.2
_symmetry_space_group_name_H-M    P1
_symmetry_Int_Tables_number       1
_space_group_crystal_system       triclinic
_cell_length_a                    23.419686
_cell_length_b                    10.608067
_cell_length_c                    9.916769
_cell_angle_alpha                 89.797885
_cell_angle_beta                  90.023872
_cell_angle_gamma                 91.550288
_cell_volume                      2462.78102135

loop_
_atom_site_label
_atom_site_type_symbol
_atom_type_description
_atom_site_fract_x
_atom_site_fract_y
_atom_site_fract_z
_atom_type_partial_charge
C1    C     C_R   0.500884 0.260840 0.500250 0.868270
C2    C     C_R   0.967636 0.288759 0.450576 -0.140744
C3    C     C_R   0.026900 0.289261 0.448082 -0.154975
C4    C     C_R   0.058499 0.401725 0.469389 -0.009966
C5    C     C_R   0.030304 0.515838 0.491513 -0.020154
C6    C     C_R   0.061949 0.630120 0.511861 -0.094143
C7    C     C_R   0.032141 0.744465 0.528234 -0.034944
C8    C     C_R   0.972488 0.740533 0.534415 -0.192890
C9    C     C_R   0.117922 0.402552 0.469991 0.506264
C10   C     C_R   0.121949 0.623298 0.519020 0.525622
C11   C     C_R   0.237647 0.507925 0.620037 -0.093414
C12   C     C_R   0.389402 0.499923 0.499945 0.842960
C13   C     C_R   0.296868 0.504243 0.621390 -0.216015
C14   C     C_R   0.327174 0.501675 0.499304 -0.044163
C15   C     C_R   0.297544 0.502126 0.376150 -0.217119
C16   C     C_R   0.238395 0.505743 0.375238 -0.090051
C17   C     C_R   0.208585 0.508913 0.497006 0.317259
C18   C     C_R   0.762159 0.521959 0.621870 -0.109911
C19   C     C_R   0.702872 0.518250 0.622085 -0.257998
C20   C     C_R   0.672853 0.504372 0.500175 -0.048705
C21   C     C_R   0.702810 0.494790 0.378248 -0.211400
C22   C     C_R   0.762056 0.498222 0.378465 -0.105738
C23   C     C_R   0.500000 0.739229 0.499688 0.870351
C24   C     C_R   0.791616 0.511524 0.500167 0.320342
C25   C     C_R   0.603741 0.135419 0.578780 -0.218242
C26   C     C_R   0.652814 0.071605 0.614686 -0.088324
C27   C     C_R   0.652770 0.940205 0.612723 0.145929
C28   C     C_R   0.603127 0.872686 0.575092 -0.236106
C29   C     C_R   0.552944 0.936291 0.538975 0.057109
C30   C     C_R   0.553387 0.068170 0.540448 0.095515
C31   C     C_R   0.503384 0.128812 0.500601 -0.122948
C32   C     C_R   0.454346 0.063757 0.458633 -0.194945
C33   C     C_R   0.453184 0.934672 0.458074 0.082452
C34   C     C_R   0.610597 0.501093 0.500013 0.841467
C35   C     C_R   0.502270 0.871836 0.498947 -0.129786
C36   C     C_R   0.424951 0.335313 0.140520 -0.160777
C37   C     C_R   0.387971 0.254261 0.070588 -0.186105
C38   C     C_R   0.388023 0.254146 0.931016 -0.184464
C39   C     C_R   0.425058 0.335082 0.860535 -0.158386
C40   C     C_R   0.463047 0.418798 0.927967 0.167952
C41   C     C_R   0.463026 0.418883 0.072546 0.169790
C42   C     C_R   0.535411 0.577532 0.071218 -0.113632
C43   C     C_R   0.535399 0.577504 0.928121 -0.110253
C44   C     C_R   0.881702 0.623748 0.520175 0.516081
C45   C     C_R   0.879377 0.402041 0.477532 0.507605
C46   C     C_R   0.938936 0.400814 0.473923 -0.017397
C47   C     C_R   0.970231 0.514773 0.494055 -0.016339
C48   C     C_R   0.941426 0.627166 0.517431 -0.032519
H1    H     H_    0.944457 0.200328 0.434486 0.200435
H2    H     H_    0.680672 0.526590 0.717291 0.165113
H3    H     H_    0.680597 0.484178 0.282981 0.165707
H4    H     H_    0.785124 0.490277 0.284383 0.141480
H5    H     H_    0.416617 0.113818 0.428043 0.148899
H6    H     H_    0.605781 0.237320 0.580243 0.152708
H7    H     H_    0.691056 0.124665 0.643282 0.169023
H8    H     H_    0.604608 0.770884 0.573355 0.136565
H9    H     H_    0.564355 0.640904 0.124706 0.149387
H10   H     H_    0.047843 0.201081 0.430145 0.203520
H11   H     H_    0.422398 0.329497 0.247436 0.201864
H12   H     H_    0.359143 0.191033 0.125235 0.166078
H13   H     H_    0.359230 0.190832 0.876812 0.164999
H14   H     H_    0.422660 0.329082 0.753628 0.204910
H15   H     H_    0.564332 0.640867 0.874130 0.144587
H16   H     H_    0.950167 0.827818 0.548208 0.211142
H17   H     H_    0.214256 0.509825 0.714151 0.143359
H18   H     H_    0.318791 0.503698 0.717578 0.168124
H19   H     H_    0.319934 0.499963 0.280670 0.167729
H20   H     H_    0.215602 0.506220 0.280201 0.143238
H21   H     H_    0.785283 0.532157 0.715958 0.145527
N1    N     N_R   0.852324 0.512427 0.500059 -0.360299
N2    N     N_R   0.147931 0.511733 0.495351 -0.362152
N3    N     N_R   0.499460 0.498800 0.142780 -0.121787
N4    N     N_R   0.499440 0.498720 0.857170 -0.120545
O1    O     O_R   0.500000 0.316780 0.614690 -0.632524
O2    O     O_2   0.848570 0.294024 0.459257 -0.546977
O3    O     O_2   0.145797 0.294851 0.447422 -0.536770
O4    O     O_2   0.154427 0.725346 0.552316 -0.512589
O5    O     O_R   0.500000 0.316750 0.385360 -0.626725
O6    O     O_R   0.416160 0.499970 0.614690 -0.636986
O7    O     O_R   0.416150 0.499950 0.385360 -0.643215
O8    O     O_R   0.500000 0.683250 0.614640 -0.609803
O9    O     O_R   0.500000 0.683220 0.385310 -0.616665
O10   O     O_R   0.583850 0.500050 0.614640 -0.627211
O11   O     O_R   0.583840 0.500030 0.385310 -0.613300
O12   O     O_2   0.853059 0.730624 0.541431 -0.551207
Zn1   Zn    Zn3+2 0.500000 0.500020 0.653130 0.936921
Zn2   Zn    Zn3+2 0.500000 0.499980 0.346870 0.937889
N5    N     N_3   0.703511 0.875724 0.648308 -0.422854
H22   H     H_    0.715012 0.820078 0.566349 0.220874
H23   H     H_    0.693702 0.815096 0.728885 0.183206
N6    N     N_3   0.401457 0.869151 0.418510 -0.438570
H24   H     H_    0.409895 0.814101 0.334004 0.208641
H25   H     H_    0.388249 0.809493 0.497350 0.189101
C49   C     C_2   0.060176 0.871299 0.531699 0.991008
O13   O     O_2   0.093728 0.903800 0.442889 -0.560072
O14   O     O_R   0.045429 0.956380 0.632396 -0.797253
H26   H     H_    0.066668 0.040537 0.623362 0.353059

loop_
_geom_bond_atom_site_label_1
_geom_bond_atom_site_label_2
_ccdc_geom_bond_type
O5    Zn2   S    
C43   N4    A    
C23   O9    A    
C19   C20   A    
O11   Zn2   S    
C36   H11   S    
C26   H7    S    
C28   H8    S    
C24   N1    S    
C7    C8    A    
C45   C46   A    
C2    C46   A    
C5    C6    A    
C5    C47   A    
C26   C27   A    
C29   C30   A    
C18   C24   A    
C1    O1    A    
C36   C37   A    
O7    Zn2   S    
N5    H22   S    
C33   N6    S    
C30   C31   A    
O9    Zn2   S    
C12   O6    A    
C1    C31   S    
C40   N4    A    
C18   C19   A    
C7    C49   S    
C11   C17   A    
C47   C48   A    
C16   C17   A    
C44   N1    A    
C16   H20   S    
C9    O3    S    
O8    Zn1   S    
N6    H24   S    
C38   H13   S    
C20   C34   S    
C10   N2    A    
C18   H21   S    
C21   C22   A    
C1    O5    A    
C36   C41   A    
C27   N5    S    
C34   O11   A    
C42   H9    S    
C10   O4    S    
C13   H18   S    
C15   C16   A    
C43   H15   S    
C25   H6    S    
C39   C40   A    
C25   C26   A    
C3    C4    A    
C8    C48   A    
C37   C38   A    
C2    H1    S    
N6    H25   S    
C31   C32   A    
C15   H19   S    
O14   H26   S    
C42   N3    A    
O1    Zn1   S    
C49   O14   S    
C8    H16   S    
C41   N3    A    
C40   C41   A    
C12   C14   S    
C17   N2    S    
C23   C35   S    
C22   C24   A    
C42   C43   A    
C44   O12   S    
C32   H5    S    
C21   H3    S    
N3    Zn2   S    
C22   H4    S    
C25   C30   A    
C39   H14   S    
C46   C47   A    
C28   C29   A    
C23   O8    A    
C45   N1    A    
C9    N2    A    
N5    H23   S    
C4    C5    A    
C6    C10   A    
C6    C7    A    
C29   C35   A    
C45   O2    S    
C32   C33   A    
C2    C3    A    
C11   C13   A    
C19   H2    S    
C38   C39   A    
C12   O7    A    
C33   C35   A    
C49   O13   D    
N4    Zn1   S    
C37   H12   S    
C3    H10   S    
C44   C48   A    
O10   Zn1   S    
C20   C21   A    
C34   O10   A    
C27   C28   A    
C14   C15   A    
C4    C9    A    
C13   C14   A    
O6    Zn1   S    
C11   H17   S    
