data_mof_unit_57359.cif
_audit_creation_date              2012-12-10T17:43:35-0500
_audit_creation_method            fapswitch 2.2
_symmetry_space_group_name_H-M    P1
_symmetry_Int_Tables_number       1
_space_group_crystal_system       triclinic
_cell_length_a                    15.002555
_cell_length_b                    11.053509
_cell_length_c                    9.91611
_cell_angle_alpha                 93.642145
_cell_angle_beta                  92.46675
_cell_angle_gamma                 94.247775
_cell_volume                      1634.68373371

loop_
_atom_site_label
_atom_site_type_symbol
_atom_type_description
_atom_site_fract_x
_atom_site_fract_y
_atom_site_fract_z
_atom_type_partial_charge
Br1   Br    Br    0.669556 0.269134 0.971426 -0.479512
Br2   Br    Br    0.433847 0.853540 0.229061 -0.380375
Br3   Br    Br    0.282335 0.138326 0.171671 -0.160575
Br4   Br    Br    0.265098 0.750718 0.441556 -0.233901
C1    C     C_R   0.508425 0.262523 0.497021 0.951947
C2    C     C_R   0.177700 0.391130 0.517996 0.366185
C3    C     C_R   0.229975 0.498746 0.495646 -0.223094
C4    C     C_R   0.326596 0.499594 0.497866 1.021249
C5    C     C_R   0.191365 0.609976 0.488278 0.288478
C6    C     C_R   0.620886 0.174189 0.699579 -0.123138
C7    C     C_R   0.636050 0.146103 0.830419 0.279441
C8    C     C_R   0.624171 0.027607 0.859637 -0.154082
C9    C     C_R   0.600935 0.935347 0.757359 0.448309
C10   C     C_R   0.565045 0.962488 0.624704 -0.007659
C11   C     C_R   0.572491 0.089886 0.604305 0.013379
C12   C     C_R   0.912248 0.615873 0.490909 -0.031691
C13   C     C_R   0.527669 0.135210 0.493618 -0.115308
C14   C     C_R   0.492179 0.058785 0.387487 -0.113850
C15   C     C_R   0.490143 0.934677 0.393258 0.313427
C16   C     C_R   0.508054 0.742631 0.505312 0.953917
C17   C     C_R   0.521648 0.880190 0.512570 -0.162535
C18   C     C_R   0.357858 0.376820 0.118777 0.314412
C19   C     C_R   0.342057 0.256115 0.066272 0.124947
C20   C     C_R   0.357573 0.229680 0.929085 0.377162
C21   C     C_R   0.389173 0.325664 0.852596 -0.211502
C22   C     C_R   0.434932 0.429902 0.919656 0.066564
C23   C     C_R   0.941567 0.301198 0.592987 0.400366
C24   C     C_R   0.429462 0.442005 0.063074 -0.031809
C25   C     C_R   0.572474 0.543819 0.080031 -0.023559
C26   C     C_R   0.573767 0.538287 0.936967 0.091298
C27   C     C_R   0.672934 0.503716 0.502684 0.872368
C28   C     C_R   0.818689 0.611006 0.477926 -0.091498
C29   C     C_R   0.768269 0.507043 0.509316 -0.081562
C30   C     C_R   0.807907 0.406730 0.552240 -0.134575
C31   C     C_R   0.900291 0.404614 0.556164 0.031012
C32   C     C_R   0.952838 0.509012 0.522376 0.014354
C33   C     C_R   0.032243 0.295903 0.575455 -0.141274
C34   C     C_R   0.085530 0.396439 0.535374 -0.023388
C35   C     C_R   0.045977 0.506608 0.519424 -0.061184
C36   C     C_R   0.099096 0.615101 0.504946 -0.136047
C37   C     C_R   0.058456 0.725965 0.516201 0.303263
C38   C     C_R   0.966141 0.725355 0.483291 0.237089
H1    H     H_    0.783346 0.687875 0.449558 0.208597
H2    H     H_    0.512269 0.778851 0.956160 0.371909
H3    H     H_    0.305508 0.637125 0.081938 0.380933
H4    H     H_    0.394623 0.911136 0.921456 0.410680
H5    H     H_    0.845347 0.181105 0.880876 0.414795
H6    H     H_    0.180760 0.141002 0.688410 0.430195
H7    H     H_    0.154707 0.723565 0.785375 0.364101
H8    H     H_    0.902566 0.808551 0.229915 0.373481
H9    H     H_    0.639799 0.266506 0.677465 0.170564
H10   H     H_    0.638171 0.007941 0.963717 0.221660
H11   H     H_    0.631139 0.581343 0.139908 0.176259
H12   H     H_    0.385684 0.311208 0.745545 0.270503
H13   H     H_    0.765231 0.329228 0.575983 0.179496
H14   H     H_    0.634950 0.566018 0.890643 0.216031
H15   H     H_    0.060072 0.212974 0.599071 0.230517
H16   H     H_    0.461701 0.096651 0.300179 0.210275
N1    N     N_R   0.499150 0.498800 0.142780 -0.118644
N2    N     N_R   0.499120 0.498720 0.857170 -0.084030
O1    O     O_R   0.500000 0.316780 0.614690 -0.652777
O2    O     O_2   0.682351 0.805545 0.939113 -0.314409
O3    O     O_3   0.516473 0.745351 0.861854 -0.567526
O4    O     O_2   0.213548 0.440262 0.980610 -0.280576
O5    O     O_2   0.194837 0.398708 0.216123 -0.228995
O6    O     O_3   0.281440 0.602155 0.163689 -0.466966
O7    O     O_2   0.252800 0.024497 0.870667 -0.166440
O8    O     O_2   0.369305 0.072403 0.711321 -0.232195
O9    O     O_3   0.417343 0.996779 0.943586 -0.552348
O10   O     O_2   0.809434 0.122484 0.581567 -0.257391
O11   O     O_2   0.946897 0.089720 0.712974 -0.191605
O12   O     O_R   0.499990 0.316750 0.385360 -0.622443
O13   O     O_3   0.841856 0.243663 0.814000 -0.533002
O14   O     O_2   0.169495 0.155242 0.435698 -0.184078
O15   O     O_2   0.319584 0.251297 0.482044 -0.296548
O16   O     O_3   0.221908 0.214772 0.687377 -0.534091
O17   O     O_2   0.149487 0.943234 0.561885 -0.142368
O18   O     O_2   0.037912 0.888109 0.724614 -0.197099
O19   O     O_3   0.187130 0.785454 0.733917 -0.477741
O20   O     O_2   0.854132 0.891331 0.551786 -0.171121
O21   O     O_2   0.986165 0.966163 0.435235 -0.172216
O22   O     O_3   0.859185 0.838154 0.294468 -0.518465
O23   O     O_R   0.367850 0.499980 0.614680 -0.618416
O24   O     O_R   0.367840 0.499960 0.385350 -0.551899
O25   O     O_R   0.500010 0.683250 0.614640 -0.504496
O26   O     O_R   0.500000 0.683220 0.385310 -0.585111
O27   O     O_R   0.632160 0.500040 0.614650 -0.596071
O28   O     O_R   0.632150 0.500020 0.385320 -0.633793
O29   O     O_2   0.657898 0.718653 0.708813 -0.302997
S1    S     S_3+6 0.618567 0.796000 0.816696 0.008150
S2    S     S_3+6 0.258371 0.453474 0.119968 0.090188
S3    S     S_3+6 0.346800 0.078165 0.857692 0.117735
S4    S     S_3+6 0.884152 0.182533 0.673702 0.079373
S5    S     S_3+6 0.225223 0.249302 0.525329 0.083900
S6    S     S_3+6 0.107706 0.840888 0.635401 0.149576
S7    S     S_3+6 0.917514 0.861245 0.443712 0.125256
Zn1   Zn    Zn3+2 0.500010 0.500020 0.653130 1.073805
Zn2   Zn    Zn3+2 0.499990 0.499980 0.346870 1.050831

loop_
_geom_bond_atom_site_label_1
_geom_bond_atom_site_label_2
_ccdc_geom_bond_type
C9    S1    S    
C4    O23   A    
C37   C38   A    
H6    O16   S    
Br3   C19   S    
C31   C32   A    
Br1   C7    S    
O13   S4    S    
C3    C4    S    
O12   Zn2   S    
C25   C26   A    
C38   S7    S    
C10   C17   A    
C15   C17   A    
C14   C15   A    
C1    O12   A    
C6    C11   A    
C34   C35   A    
C1    C13   S    
O5    S2    D    
C30   C31   A    
O14   S5    D    
H4    O9    S    
O16   S5    S    
C14   H16   S    
C25   N1    A    
C2    S5    S    
C26   N2    A    
C18   S2    S    
C27   C29   S    
O20   S7    D    
O9    S3    S    
C30   H13   S    
C18   C24   A    
C9    C10   A    
C6    H9    S    
C20   S3    S    
C8    H10   S    
C29   C30   A    
H2    O3    S    
C27   O27   A    
O10   S4    D    
O22   S7    S    
C21   H12   S    
H5    O13   S    
N2    Zn1   S    
C35   C36   A    
O21   S7    D    
C23   C31   A    
C21   C22   A    
C26   H14   S    
O17   S6    D    
C5    C36   A    
H7    O19   S    
C16   O26   A    
O19   S6    S    
C33   C34   A    
C10   C11   A    
O18   S6    D    
C19   C20   A    
C16   O25   A    
C16   C17   S    
C2    C34   A    
C13   C14   A    
C1    O1    A    
C20   C21   A    
C2    C3    A    
C36   C37   A    
C23   S4    S    
C12   C38   A    
H8    O22   S    
C24   N1    A    
C11   C13   A    
C27   O28   A    
Br2   C15   S    
C4    O24   A    
C32   C35   A    
O1    Zn1   S    
C7    C8    A    
O6    S2    S    
O11   S4    D    
C12   C28   A    
C22   C24   A    
O24   Zn2   S    
C28   C29   A    
Br4   C5    S    
C12   C32   A    
C37   S6    S    
C25   H11   S    
C23   C33   A    
O2    S1    D    
O3    S1    S    
O7    S3    D    
O8    S3    D    
C28   H1    S    
O26   Zn2   S    
O28   Zn2   S    
O25   Zn1   S    
C6    C7    A    
C3    C5    A    
C8    C9    A    
O23   Zn1   S    
H3    O6    S    
N1    Zn2   S    
C18   C19   A    
O4    S2    D    
O29   S1    D    
C22   N2    A    
C33   H15   S    
O15   S5    D    
O27   Zn1   S    
