data_mof_unit_37358.cif
_audit_creation_date              2012-12-10T17:22:51-0500
_audit_creation_method            fapswitch 2.2
_symmetry_space_group_name_H-M    P1
_symmetry_Int_Tables_number       1
_space_group_crystal_system       triclinic
_cell_length_a                    10.189929
_cell_length_b                    10.539871
_cell_length_c                    10.796147
_cell_angle_alpha                 90.747343
_cell_angle_beta                  95.564563
_cell_angle_gamma                 81.532375
_cell_volume                      1141.46694647

loop_
_atom_site_label
_atom_site_type_symbol
_atom_type_description
_atom_site_fract_x
_atom_site_fract_y
_atom_site_fract_z
_atom_type_partial_charge
C1    C     C_R   0.443957 0.504591 0.267408 0.943558
C2    C     C_3   0.500921 0.123519 0.502227 -0.248225
C3    C     C_3   0.566330 0.949070 0.406989 0.640191
C4    C     C_3   0.433421 0.051364 0.594453 0.693491
C5    C     C_2   0.412285 0.495059 0.134919 -0.356929
C6    C     C_2   0.587437 0.468002 0.864527 -0.362355
C7    C     C_2   0.511370 0.453655 0.065688 -0.134033
C8    C     C_2   0.487574 0.457632 0.933105 -0.111484
C9    C     C_2   0.068915 0.504366 0.477579 0.186415
C10   C     C_2   0.924973 0.517138 0.505710 0.178315
C11   C     C_3   0.137560 0.061899 0.453596 -0.750052
C12   C     C_R   0.555982 0.487698 0.732498 0.936089
C13   C     C_3   0.808436 0.092212 0.651975 -0.739253
C14   C     C_3   0.878614 0.740505 0.565870 -0.680193
C15   C     C_3   0.059260 0.510707 0.253471 -0.745166
C16   C     C_R   0.500417 0.257900 0.502178 0.940895
C17   C     C_R   0.499558 0.742238 0.498055 0.951359
C18   C     C_3   0.440803 0.051795 0.390098 -0.411261
C19   C     C_3   0.558949 0.948281 0.610987 -0.382603
C20   C     C_3   0.374954 0.978975 0.483898 0.140308
C21   C     C_3   0.624712 0.021715 0.517439 0.131379
C22   C     C_3   0.498857 0.876928 0.498811 -0.266535
F1    F     F_    0.636319 0.892728 0.312085 -0.665055
F2    F     F_    0.364427 0.108093 0.689820 -0.660988
H1    H     H_    0.392730 0.096520 0.301361 0.187728
H2    H     H_    0.037989 0.030435 0.449335 0.236244
H3    H     H_    0.144427 0.114413 0.366506 0.217491
H4    H     H_    0.147620 0.126785 0.534702 0.280519
H5    H     H_    0.787259 0.094862 0.457378 0.251116
H6    H     H_    0.914663 0.105099 0.652422 0.238377
H7    H     H_    0.801062 0.021748 0.725535 0.240550
H8    H     H_    0.749422 0.185588 0.673565 0.255208
H9    H     H_    0.915174 0.583405 0.685590 0.196066
H10   H     H_    0.823712 0.801744 0.633593 0.239585
H11   H     H_    0.830081 0.763422 0.470676 0.295952
H12   H     H_    0.605297 0.903180 0.700085 0.177783
H13   H     H_    0.981742 0.763480 0.571729 0.212738
H14   H     H_    0.097034 0.346196 0.363218 0.195500
H15   H     H_    0.102913 0.458856 0.173530 0.225236
H16   H     H_    0.088011 0.608495 0.257425 0.255825
H17   H     H_    0.949043 0.518525 0.237847 0.222512
H18   H     H_    0.385035 0.461880 0.892407 0.192776
H19   H     H_    0.613436 0.425588 0.106130 0.188180
H20   H     H_    0.689664 0.464007 0.905753 0.149068
H21   H     H_    0.310681 0.523496 0.093807 0.147400
H22   H     H_    0.878062 0.379904 0.386303 0.136084
H23   H     H_    0.130018 0.589194 0.635014 0.144104
H24   H     H_    0.226461 0.884436 0.396577 0.241114
N1    N     N_2   0.157310 0.552180 0.551120 -0.203256
N2    N     N_2   0.842690 0.447820 0.448880 -0.206640
N3    N     N_2   0.239508 0.950824 0.465968 -0.258184
N4    N     N_2   0.761703 0.045904 0.531329 -0.289260
N5    N     N_2   0.876635 0.607368 0.595723 -0.262300
N6    N     N_2   0.109285 0.441438 0.367299 -0.249327
O1    O     O_R   0.568940 0.489500 0.307530 -0.609739
O2    O     O_R   0.431060 0.510500 0.692470 -0.610362
O3    O     O_R   0.348880 0.522990 0.340350 -0.592752
O4    O     O_R   0.651120 0.477010 0.659650 -0.612530
O5    O     O_R   0.610000 0.297210 0.483560 -0.634733
O6    O     O_R   0.390000 0.702790 0.516440 -0.619593
O7    O     O_R   0.389940 0.330700 0.516390 -0.582554
O8    O     O_R   0.610060 0.669300 0.483610 -0.562546
Zn1   Zn    Zn3+2 0.646930 0.477640 0.478080 0.963352
Zn2   Zn    Zn3+2 0.353070 0.522360 0.521920 0.975404

loop_
_geom_bond_atom_site_label_1
_geom_bond_atom_site_label_2
_ccdc_geom_bond_type
C14   H10   S    
O7    Zn2   S    
C2    C4    S    
O2    Zn2   S    
O8    Zn1   S    
C7    H19   S    
C17   O8    A    
C2    C18   S    
C13   N4    S    
C2    C16   S    
C9    C10   S    
H22   N2    S    
C13   H8    S    
C3    F1    S    
C17   C22   S    
H14   N6    S    
C11   H3    S    
O6    Zn2   S    
C12   O4    A    
C19   C22   S    
C2    C21   S    
C1    O1    A    
C7    C8    S    
H23   N1    S    
N1    Zn2   S    
C6    H20   S    
C1    O3    A    
C14   H13   S    
C6    C12   S    
N2    Zn1   S    
C15   H15   S    
C12   O2    A    
C18   H1    S    
C5    H21   S    
C11   H4    S    
C3    C18   S    
C1    C5    S    
O1    Zn1   S    
C19   C21   S    
C20   C22   S    
C16   O5    A    
C20   N3    S    
C18   C20   S    
C19   H12   S    
C21   N4    S    
H9    N5    S    
C4    F2    S    
C15   H16   S    
C3    C21   S    
C11   N3    S    
C16   O7    A    
C17   O6    A    
C10   N2    D    
C15   N6    S    
C13   H6    S    
O4    Zn1   S    
C14   N5    S    
C9    N1    D    
C15   H17   S    
O3    Zn2   S    
C14   H11   S    
C5    C7    D    
C10   N5    S    
C3    C22   S    
C6    C8    D    
C9    N6    S    
C11   H2    S    
C4    C19   S    
O5    Zn1   S    
C13   H7    S    
H24   N3    S    
C8    H18   S    
H5    N4    S    
C4    C20   S    
