data_mof_unit_38199.cif
_audit_creation_date              2012-12-10T18:51:33-0500
_audit_creation_method            fapswitch 2.2
_symmetry_space_group_name_H-M    P1
_symmetry_Int_Tables_number       1
_space_group_crystal_system       triclinic
_cell_length_a                    10.672404
_cell_length_b                    9.867108
_cell_length_c                    10.515632
_cell_angle_alpha                 89.399382
_cell_angle_beta                  90.401009
_cell_angle_gamma                 89.816002
_cell_volume                      1107.26271309

loop_
_atom_site_label
_atom_site_type_symbol
_atom_type_description
_atom_site_fract_x
_atom_site_fract_y
_atom_site_fract_z
_atom_type_partial_charge
C1    C     C_R   0.872387 0.499704 0.499576 -0.011094
C2    C     C_R   0.127613 0.500296 0.500423 -0.011094
C3    C     C_R   0.260043 0.500149 0.500205 0.847689
C4    C     C_R   0.739957 0.499851 0.499795 0.847688
C5    C     C_R   0.494389 0.500968 0.257574 0.887684
C6    C     C_R   0.505610 0.499032 0.742426 0.887680
C7    C     C_3   0.463695 0.625721 0.035120 0.149223
C8    C     C_3   0.536306 0.374277 0.964879 0.149247
C9    C     C_3   0.584026 0.593396 0.960345 0.132610
C10   C     C_3   0.415974 0.406600 0.039655 0.132612
C11   C     C_3   0.385240 0.529098 0.952103 0.133005
C12   C     C_3   0.614759 0.470899 0.047897 0.133014
C13   C     C_3   0.505404 0.497010 0.877629 -0.266635
C14   C     C_3   0.494595 0.502987 0.122371 -0.266630
C15   C     C_R   0.585533 0.070790 0.570847 -0.081583
C16   C     C_R   0.414466 0.929210 0.429153 -0.081573
C17   C     C_R   0.414385 0.072901 0.429270 -0.075525
C18   C     C_R   0.585615 0.927099 0.570730 -0.075528
C19   C     C_R   0.064861 0.386932 0.548198 -0.201552
C20   C     C_R   0.935139 0.613067 0.451800 -0.201553
C21   C     C_R   0.936475 0.386602 0.547702 -0.197295
C22   C     C_R   0.063525 0.613398 0.452295 -0.197299
H1    H     H_    0.654044 0.124171 0.627520 0.116167
H2    H     H_    0.345955 0.875829 0.372480 0.116162
H3    H     H_    0.345527 0.127938 0.373044 0.120137
H4    H     H_    0.654472 0.872062 0.626957 0.120141
H5    H     H_    0.114811 0.299790 0.586792 0.153627
H6    H     H_    0.885189 0.700210 0.413205 0.153629
H7    H     H_    0.887587 0.299302 0.586020 0.145628
H8    H     H_    0.112413 0.700697 0.413978 0.145627
N1    N     N_R   0.500000 0.857200 0.500000 -0.078676
N2    N     N_R   0.500000 0.142800 0.500000 -0.078677
O1    O     O_R   0.316770 0.614620 0.499990 -0.627004
O2    O     O_R   0.683230 0.385380 0.500010 -0.627002
O3    O     O_R   0.683230 0.614620 0.500010 -0.627668
O4    O     O_R   0.316770 0.385380 0.499990 -0.627668
O5    O     O_R   0.499970 0.614650 0.313950 -0.629830
O6    O     O_R   0.500030 0.385350 0.686050 -0.629834
O7    O     O_R   0.500030 0.614650 0.686050 -0.623390
O8    O     O_R   0.499970 0.385350 0.313950 -0.623393
Zn1   Zn    Zn3+2 0.500000 0.653120 0.500000 0.923482
Zn2   Zn    Zn3+2 0.500000 0.346880 0.500000 0.923482
C23   C     C_3   0.261187 0.557355 0.880775 -0.345720
C24   C     C_3   0.152547 0.591885 0.968701 -0.903738
H9    H     H_    0.138642 0.511838 0.041534 0.263187
H10   H     H_    0.168304 0.689204 0.017423 0.262865
H11   H     H_    0.065233 0.601839 0.911348 0.253824
H12   H     H_    0.274356 0.641816 0.811814 0.211944
H13   H     H_    0.236341 0.467200 0.823801 0.197199
C25   C     C_3   0.738812 0.442640 0.119223 -0.345725
C26   C     C_3   0.847448 0.408105 0.031299 -0.903954
H14   H     H_    0.831757 0.310716 0.982712 0.262890
H15   H     H_    0.861260 0.488053 0.958376 0.263256
H16   H     H_    0.934787 0.398308 0.088614 0.253825
H17   H     H_    0.763659 0.532792 0.176193 0.197216
H18   H     H_    0.725645 0.358185 0.188184 0.211955
C27   C     C_3   0.420916 0.763082 0.087631 -0.346160
C28   C     C_3   0.388851 0.867526 0.984422 -0.910589
H19   H     H_    0.471364 0.891211 0.925557 0.270556
H20   H     H_    0.312123 0.833162 0.921853 0.270581
H21   H     H_    0.357225 0.961839 0.030614 0.252065
H22   H     H_    0.337486 0.746936 0.148297 0.195745
H23   H     H_    0.495665 0.805367 0.149058 0.218818
C29   C     C_3   0.579107 0.236925 0.912368 -0.346202
C30   C     C_3   0.611135 0.132467 0.015574 -0.910497
H24   H     H_    0.687839 0.166835 0.078183 0.270564
H25   H     H_    0.528593 0.108756 0.074399 0.270547
H26   H     H_    0.642789 0.038165 0.969373 0.252074
H27   H     H_    0.504384 0.194644 0.850907 0.218811
H28   H     H_    0.662561 0.253085 0.851739 0.195773
C31   C     C_3   0.677206 0.693754 0.900292 -0.351529
C32   C     C_3   0.754588 0.771525 0.997816 -0.912449
H29   H     H_    0.694252 0.816152 0.071672 0.266838
H30   H     H_    0.825711 0.705353 0.043941 0.269636
H31   H     H_    0.805410 0.854758 0.948800 0.245459
H32   H     H_    0.741335 0.638192 0.836400 0.191000
H33   H     H_    0.624945 0.767565 0.840139 0.211434
C33   C     C_3   0.322797 0.306238 0.099707 -0.351559
C34   C     C_3   0.245443 0.228434 0.002181 -0.912179
H34   H     H_    0.174278 0.294591 0.956049 0.269558
H35   H     H_    0.305811 0.183825 0.928314 0.266809
H36   H     H_    0.194653 0.145165 0.051217 0.245414
H37   H     H_    0.375061 0.232445 0.159879 0.211428
H38   H     H_    0.258648 0.361800 0.163580 0.191002

loop_
_geom_bond_atom_site_label_1
_geom_bond_atom_site_label_2
_ccdc_geom_bond_type
C15   C18   A    
C1    C21   A    
C8    C13   S    
C5    O5    A    
O4    Zn2   S    
O2    Zn2   S    
C10   C33   S    
C27   H22   S    
O7    Zn1   S    
C16   N1    A    
C7    C11   S    
C19   C21   A    
O6    Zn2   S    
C31   H32   S    
C3    O1    A    
C28   H20   S    
C9    C13   S    
C33   H37   S    
C7    C14   S    
C16   C17   A    
C30   H25   S    
C18   H4    S    
C2    C22   A    
C6    O6    A    
C11   C23   S    
C29   H28   S    
C19   H5    S    
C23   H12   S    
C24   H11   S    
C28   H21   S    
C15   H1    S    
C4    O3    A    
C16   H2    S    
C32   H31   S    
C24   H10   S    
C27   H23   S    
C4    O2    A    
C26   H14   S    
C15   N2    A    
C32   H30   S    
C10   C14   S    
C34   H35   S    
C33   C34   S    
C23   H13   S    
C20   H6    S    
C28   H19   S    
C21   H7    S    
C25   H18   S    
C26   H15   S    
C23   C24   S    
C8    C12   S    
C30   H26   S    
C25   C26   S    
N1    Zn1   S    
C29   H27   S    
C5    C14   S    
C8    C29   S    
C20   C22   A    
C31   H33   S    
C24   H9    S    
C7    C9    S    
C1    C20   A    
C22   H8    S    
C2    C19   A    
C9    C31   S    
C12   C14   S    
C32   H29   S    
C34   H36   S    
C12   C25   S    
C25   H17   S    
C26   H16   S    
O1    Zn1   S    
C29   C30   S    
C1    C4    S    
C2    C3    S    
C17   H3    S    
C31   C32   S    
C6    C13   S    
C11   C13   S    
C27   C28   S    
C3    O4    A    
O8    Zn2   S    
O5    Zn1   S    
O3    Zn1   S    
C9    C12   S    
C10   C11   S    
C34   H34   S    
C33   H38   S    
C8    C10   S    
C30   H24   S    
C5    O8    A    
C17   N2    A    
N2    Zn2   S    
C6    O7    A    
C18   N1    A    
C7    C27   S    
