data_mof_unit_55602.cif
_audit_creation_date              2013-03-05T15:49:16-0500
_audit_creation_method            fapswitch 2.2
_symmetry_space_group_name_H-M    P1
_symmetry_Int_Tables_number       1
_space_group_crystal_system       triclinic
_cell_length_a                    20.723013
_cell_length_b                    22.716785
_cell_length_c                    6.959825
_cell_angle_alpha                 90.000423
_cell_angle_beta                  88.232432
_cell_angle_gamma                 90.009558
_cell_volume                      3274.8497979

loop_
_atom_site_label
_atom_site_type_symbol
_atom_site_description
_atom_site_fract_x
_atom_site_fract_y
_atom_site_fract_z
_atom_type_partial_charge
O1    O     O_R   0.387100 0.552640 0.378490 -0.581061
O2    O     O_R   0.612900 0.052640 0.621510 -0.581098
O3    O     O_R   0.249610 0.559600 0.072250 -0.609166
O4    O     O_R   0.750390 0.059600 0.927750 -0.608921
O5    O     O_R   0.249120 0.447360 0.902040 -0.583187
O6    O     O_R   0.750880 0.947360 0.097960 -0.583342
C1    C     C_R   0.228102 0.574074 0.242536 1.039009
C2    C     C_R   0.771819 0.074165 0.757470 1.039180
O7    O     O_R   0.386610 0.559560 0.048860 -0.569971
O8    O     O_R   0.613390 0.059560 0.951140 -0.570014
O9    O     O_R   0.387100 0.447320 0.878470 -0.571738
O10   O     O_R   0.612900 0.947320 0.121530 -0.571734
C3    C     C_R   0.407591 0.575002 0.215811 1.043484
C4    C     C_R   0.592422 0.075014 0.784185 1.043168
O11   O     O_R   0.249120 0.552680 0.402050 -0.600902
O12   O     O_R   0.750880 0.052680 0.597950 -0.600441
O13   O     O_3   0.318110 0.463180 0.223790 -0.272814
O14   O     O_3   0.681890 0.963180 0.776210 -0.272957
V1    V     V_3+5 0.318110 0.506830 0.948930 1.257785
V2    V     V_3+5 0.681890 0.006830 0.051070 1.257837
O15   O     O_R   0.386610 0.440400 0.548840 -0.587060
O16   O     O_R   0.613390 0.940400 0.451160 -0.587081
C5    C     C_R   0.408272 0.425538 0.715776 1.059109
C6    C     C_R   0.591716 0.925550 0.284227 1.059286
O17   O     O_R   0.249610 0.440440 0.572240 -0.590711
O18   O     O_R   0.750390 0.940440 0.427760 -0.590976
C7    C     C_R   0.226562 0.427485 0.741941 1.045710
C8    C     C_R   0.773465 0.927538 0.258071 1.046105
V3    V     V_3+5 0.318110 0.493170 0.448930 1.261224
V4    V     V_3+5 0.681890 0.993170 0.551070 1.261200
O19   O     O_3   0.318110 0.536820 0.723940 -0.288377
O20   O     O_3   0.681890 0.036820 0.276060 -0.288363
C9    C     C_R   0.174416 0.383393 0.749108 -0.354402
C10   C     C_R   0.825728 0.883584 0.251047 -0.353994
C11   C     C_R   0.129855 0.379638 0.600125 0.265876
C12   C     C_R   0.870308 0.880056 0.400024 0.265418
C13   C     C_R   0.086201 0.332076 0.593341 0.242504
C14   C     C_R   0.914037 0.832593 0.407242 0.242430
C15   C     C_R   0.085136 0.289296 0.743762 -0.244259
C16   C     C_R   0.915014 0.789549 0.257646 -0.244801
C17   C     C_R   0.130373 0.294222 0.891661 0.568839
C18   C     C_R   0.869852 0.794322 0.109483 0.568890
C19   C     C_R   0.173957 0.340766 0.892956 -0.225897
C20   C     C_R   0.826287 0.840862 0.107485 -0.226316
C21   C     C_R   0.879015 0.200293 0.893039 0.617079
C22   C     C_R   0.120214 0.699697 0.107448 0.615957
C23   C     C_R   0.830198 0.158295 0.899018 -0.246250
C24   C     C_R   0.169094 0.657790 0.100877 -0.244314
C25   C     C_R   0.865574 0.121585 0.588112 -0.143002
C26   C     C_R   0.134403 0.621259 0.412649 -0.144135
C27   C     C_R   0.917093 0.161665 0.580474 0.350357
C28   C     C_R   0.082841 0.661287 0.421142 0.350956
C29   C     C_R   0.923896 0.202283 0.735703 -0.236064
C30   C     C_R   0.075780 0.701878 0.265883 -0.236269
C31   C     C_2   0.037227 0.239841 0.751105 0.289548
C32   C     C_2   0.962645 0.739892 0.251465 0.290448
C33   C     C_2   0.972839 0.250063 0.733233 0.397773
C34   C     C_2   0.027090 0.749851 0.269055 0.398480
C35   C     C_R   0.823114 0.118793 0.747237 -0.249994
C36   C     C_R   0.176618 0.618496 0.252951 -0.249974
H1    H     H_    0.796950 0.157225 0.022290 0.171376
H2    H     H_    0.202044 0.656644 0.976950 0.171453
H3    H     H_    0.859508 0.091139 0.470484 0.207912
H4    H     H_    0.140752 0.590816 0.530126 0.207854
H5    H     H_    0.209250 0.342590 0.004552 0.192779
H6    H     H_    0.791046 0.842576 0.995718 0.192463
C37   C     C_R   0.579546 0.364852 0.737010 0.378703
C38   C     C_R   0.420442 0.864827 0.263007 0.378686
H7    H     H_    0.668989 0.278174 0.751923 0.197556
H8    H     H_    0.331006 0.778117 0.248126 0.197524
C39   C     C_R   0.463962 0.384207 0.721789 -0.322665
C40   C     C_R   0.536025 0.884213 0.278210 -0.322725
C41   C     C_R   0.474198 0.094489 0.788636 0.405727
C42   C     C_R   0.525813 0.594506 0.211347 0.405666
C43   C     C_R   0.420723 0.132640 0.784139 0.298932
C44   C     C_R   0.579287 0.632675 0.215851 0.298976
C45   C     C_R   0.430479 0.193557 0.767679 -0.349140
C46   C     C_R   0.569527 0.693587 0.232326 -0.349195
C47   C     C_R   0.492871 0.218645 0.759806 0.107852
C48   C     C_R   0.507130 0.718653 0.240209 0.107888
C49   C     C_R   0.546819 0.179447 0.767957 0.050524
C50   C     C_R   0.453187 0.679438 0.232063 0.050543
C51   C     C_R   0.503314 0.281426 0.746159 0.124695
C52   C     C_R   0.496679 0.781426 0.253858 0.124706
C53   C     C_R   0.567600 0.303358 0.745754 -0.067681
C54   C     C_R   0.432392 0.803337 0.254271 -0.067619
C55   C     C_R   0.619374 0.263423 0.754290 -0.062920
C56   C     C_R   0.380621 0.763385 0.245748 -0.063112
C57   C     C_R   0.609276 0.203081 0.764002 -0.181206
C58   C     C_R   0.390726 0.703047 0.236035 -0.181195
C59   C     C_R   0.452255 0.323217 0.734770 -0.271121
C60   C     C_R   0.547736 0.823231 0.265244 -0.271154
C61   C     C_R   0.528144 0.405375 0.719897 0.262809
C62   C     C_R   0.471845 0.905366 0.280095 0.262811
C63   C     C_R   0.537366 0.117292 0.780352 -0.364617
C64   C     C_R   0.462646 0.617290 0.219652 -0.364774
H9    H     H_    0.402354 0.309979 0.734936 0.135237
H10   H     H_    0.597635 0.810011 0.265086 0.135228
H11   H     H_    0.387739 0.220384 0.766052 0.187329
H12   H     H_    0.612264 0.720427 0.233952 0.187312
H13   H     H_    0.651374 0.174959 0.769609 0.090454
H14   H     H_    0.348629 0.674910 0.230438 0.090588
N1    N     N_R   0.129012 0.424262 0.454421 0.269857
O21   O     O_R   0.141375 0.410893 0.275312 -0.353654
O22   O     O_R   0.116665 0.478590 0.501404 -0.355081
N2    N     N_R   0.871083 0.924801 0.545390 0.269714
O23   O     O_R   0.859349 0.911479 0.724827 -0.353051
O24   O     O_R   0.882985 0.979160 0.497843 -0.356221
N3    N     N_R   0.959814 0.160049 0.412792 0.283544
O25   O     O_R   0.021872 0.163044 0.429602 -0.243119
O26   O     O_R   0.938605 0.139515 0.252041 -0.312287
N4    N     N_R   0.040364 0.659561 0.589512 0.283845
O27   O     O_R   0.978406 0.664711 0.574682 -0.244354
O28   O     O_R   0.061232 0.637551 0.748641 -0.312571
N5    N     N_R   0.541550 0.467559 0.697957 0.272068
O29   O     O_R   0.590896 0.485342 0.593456 -0.217640
O30   O     O_R   0.503423 0.507069 0.774976 -0.359771
N6    N     N_R   0.458442 0.967548 0.302000 0.272068
O31   O     O_R   0.409097 0.985324 0.406486 -0.217647
O32   O     O_R   0.496576 0.007062 0.224969 -0.359787
Cl1   Cl    Cl    0.659119 0.392029 0.762744 -0.391558
Cl2   Cl    Cl    0.340867 0.891977 0.237296 -0.391761
Cl3   Cl    Cl    0.462568 0.017321 0.796578 -0.463353
Cl4   Cl    Cl    0.537448 0.517344 0.203363 -0.463339
N7    N     N_R   0.355721 0.110294 0.796295 0.283986
O33   O     O_R   0.340236 0.068293 0.916185 -0.194064
O34   O     O_R   0.310005 0.136871 0.705967 -0.277539
N8    N     N_R   0.644289 0.610351 0.203686 0.283974
O35   O     O_R   0.659778 0.568372 0.083727 -0.194064
O36   O     O_R   0.689999 0.636928 0.294076 -0.277431
Cl5   Cl    Cl    0.941012 0.322661 0.736672 -0.382178
Cl6   Cl    Cl    0.059364 0.822293 0.264255 -0.382456
Cl7   Cl    Cl    0.135945 0.242840 0.080233 -0.413455
Cl8   Cl    Cl    0.864382 0.742724 0.921464 -0.412587
Cl9   Cl    Cl    0.881986 0.249495 0.089302 -0.439497
Cl10  Cl    Cl    0.116600 0.748580 0.910448 -0.440676
N9    N     N_R   0.061119 0.181013 0.784069 0.280139
O37   O     O_R   0.118443 0.166195 0.719237 -0.206751
O38   O     O_R   0.028641 0.143925 0.891791 -0.250374
N10   N     N_R   0.938400 0.681102 0.219886 0.279891
O39   O     O_R   0.881059 0.666645 0.285516 -0.207451
O40   O     O_R   0.970511 0.643735 0.112256 -0.250511
N11   N     N_R   0.043172 0.328385 0.434552 0.275682
O41   O     O_R   0.013707 0.375115 0.373734 -0.200591
O42   O     O_R   0.031248 0.278237 0.353764 -0.280074
N12   N     N_R   0.957275 0.829353 0.565545 0.275878
O43   O     O_R   0.987052 0.876224 0.623936 -0.199969
O44   O     O_R   0.968911 0.779516 0.648676 -0.278306

loop_
_geom_bond_atom_site_label_1
_geom_bond_atom_site_label_2
_geom_bond_distance
_ccdc_geom_bond_type
C42   Cl4   1.770066 S    
C25   H3    1.081984 S    
O6    C8    1.302241 A    
C17   C19   1.390662 A    
C4    C63   1.492354 S    
C20   H6    1.083984 S    
C48   C52   1.445083 A    
V1    O19   1.707678 S    
N8    O35   1.301167 A    
N4    O28   1.301241 A    
C60   H10   1.076814 S    
C15   C17   1.417886 A    
C7    C9    1.473038 S    
N9    O38   1.301387 A    
O9    V1    2.017282 S    
C42   C44   1.408033 A    
C26   H4    1.082004 S    
C11   C13   1.410797 A    
C44   C46   1.402655 A    
O3    C1    1.295701 A    
N3    O26   1.301050 A    
C2    C35   1.468943 S    
V2    O20   1.707670 S    
C40   C60   1.408862 A    
C46   C48   1.412459 A    
N2    O23   1.300617 A    
C28   N4    1.444268 S    
O12   V4    2.001535 S    
N5    O29   1.300710 A    
C31   N9    1.445993 S    
O13   V3    1.708627 S    
C61   N5    1.446815 S    
C21   C23   1.390133 A    
O7    C3    1.301293 A    
N6    O31   1.300709 A    
C14   N12   1.443276 S    
C9    C11   1.412156 A    
O5    C7    1.302305 A    
O7    V1    1.998485 S    
C15   C31   1.498996 S    
C34   Cl6   1.776194 S    
N5    O30   1.300494 A    
C26   C28   1.403035 A    
O3    V1    2.028333 S    
O14   V4    1.708635 S    
V4    O20   2.155633 S    
C13   N11   1.443694 S    
O14   V2    2.154693 S    
H7    C55   1.080984 S    
O4    C2    1.295635 A    
C25   C35   1.394495 A    
C24   C36   1.396986 A    
C49   C57   1.400632 A    
N2    O24   1.300020 A    
C2    O12   1.299521 A    
C45   C47   1.412423 A    
H8    C56   1.080968 S    
C27   N3    1.443386 S    
C16   C32   1.498785 S    
C41   C43   1.408048 A    
O10   V2    2.016966 S    
C18   C20   1.390696 A    
C37   Cl1   1.774905 S    
C17   Cl7   1.762865 S    
N4    O27   1.296568 A    
C28   C30   1.431482 A    
O11   V3    2.001862 S    
N12   O44   1.297443 A    
C53   C55   1.407804 A    
O17   V3    2.027495 S    
C22   C24   1.389935 A    
C37   C53   1.419650 A    
C23   C35   1.397220 A    
C21   Cl9   1.767500 S    
C3    C64   1.492212 S    
C12   N2    1.434585 S    
C9    C19   1.392663 A    
C42   C64   1.407245 A    
C50   C64   1.427622 A    
N10   O39   1.301877 A    
C48   C50   1.431789 A    
O8    C4    1.301319 A    
C38   Cl2   1.774921 S    
C47   C49   1.431864 A    
C29   C33   1.485131 S    
C1    O11   1.299360 A    
C25   C27   1.402804 A    
O15   V3    1.999269 S    
C21   C29   1.415392 A    
C38   C62   1.415768 A    
C27   C29   1.431011 A    
C22   Cl10  1.767764 S    
O4    V2    2.028060 S    
C5    C39   1.489456 S    
C24   H2    1.083754 S    
C32   N10   1.445996 S    
C19   H5    1.083938 S    
C22   C30   1.415486 A    
O1    V3    2.016326 S    
C10   C20   1.392708 A    
N1    O22   1.300181 A    
C59   H9    1.076859 S    
C43   C45   1.402650 A    
O5    V1    2.000935 S    
C38   C54   1.419646 A    
C51   C53   1.422152 A    
C56   C58   1.387947 A    
O18   V4    2.027768 S    
C31   C33   1.363861 D    
C46   H12   1.075499 S    
N7    O33   1.301150 A    
C44   N8    1.439464 S    
O16   C6    1.302890 A    
O1    C3    1.300222 A    
C41   C63   1.407253 A    
C12   C14   1.410454 A    
C1    C36   1.468820 S    
C51   C59   1.425728 A    
C6    C40   1.489322 S    
N10   O40   1.301515 A    
N7    O34   1.301601 A    
N12   O43   1.301878 A    
C30   C34   1.484992 S    
N11   O42   1.297471 A    
O16   V4    1.998978 S    
C57   H13   1.083057 S    
O18   C8    1.294041 A    
C33   Cl5   1.776196 S    
C52   C54   1.422159 A    
C16   C18   1.417949 A    
N8    O36   1.301578 A    
C23   H1    1.083929 S    
C39   C61   1.413911 A    
O17   C7    1.294166 A    
O6    V2    2.001260 S    
N9    O37   1.301969 A    
O10   C6    1.299526 A    
C11   N1    1.434363 S    
C50   C58   1.400650 A    
C18   Cl8   1.763015 S    
O2    V4    2.016642 S    
C26   C36   1.394515 A    
O15   C5    1.302931 A    
C40   C62   1.413899 A    
V3    O19   2.155619 S    
C58   H14   1.083064 S    
N3    O25   1.296701 A    
C14   C16   1.428029 A    
C62   N6    1.446814 S    
O8    V2    1.998776 S    
C49   C63   1.427692 A    
O9    C5    1.299583 A    
O13   V1    2.154706 S    
C10   C12   1.412128 A    
C32   C34   1.363720 D    
C45   H11   1.075532 S    
C54   C56   1.407777 A    
O2    C4    1.300266 A    
N6    O32   1.300495 A    
C8    C10   1.472905 S    
C47   C51   1.445153 A    
C39   C59   1.408938 A    
C13   C15   1.428109 A    
N1    O21   1.300817 A    
C37   C61   1.415787 A    
C55   C57   1.387965 A    
C52   C60   1.425638 A    
C43   N7    1.439483 S    
N11   O41   1.301952 A    
C41   Cl3   1.770083 S    
