data_mof_unit_58030.cif
_audit_creation_date              2012-12-10T18:10:21-0500
_audit_creation_method            fapswitch 2.2
_symmetry_space_group_name_H-M    P1
_symmetry_Int_Tables_number       1
_space_group_crystal_system       triclinic
_cell_length_a                    10.779419
_cell_length_b                    9.603506
_cell_length_c                    15.869476
_cell_angle_alpha                 90.067551
_cell_angle_beta                  91.134889
_cell_angle_gamma                 90.086938
_cell_volume                      1642.48621738

loop_
_atom_site_label
_atom_site_type_symbol
_atom_type_description
_atom_site_fract_x
_atom_site_fract_y
_atom_site_fract_z
_atom_type_partial_charge
C1    C     C_R   0.260387 0.499765 0.499084 0.816119
C2    C     C_3   0.640019 0.510765 0.953785 0.285895
C3    C     C_3   0.635459 0.496728 0.052007 -0.366700
C4    C     C_1   0.500559 0.499958 0.824419 -0.090942
C5    C     C_1   0.499942 0.499785 0.175442 -0.071755
C6    C     C_1   0.499770 0.499783 0.251029 -0.194824
C7    C     C_3   0.070577 0.648479 0.481515 -0.028251
C8    C     C_3   0.073487 0.450679 0.586364 -0.036456
C9    C     C_3   0.928753 0.647987 0.488861 -0.436909
C10   C     C_3   0.929686 0.437558 0.582479 -0.430647
C11   C     C_3   0.069783 0.399126 0.428984 -0.382527
C12   C     C_3   0.122254 0.498664 0.498552 0.146230
C13   C     C_3   0.878115 0.498477 0.498445 0.135330
C14   C     C_R   0.499711 0.499930 0.340716 0.829754
C15   C     C_3   0.926862 0.410595 0.423685 -0.404476
C16   C     C_3   0.625689 0.084753 0.530458 0.414190
C17   C     C_3   0.626305 0.915988 0.528815 0.417131
C18   C     C_3   0.404324 0.082523 0.558514 -0.279731
C19   C     C_3   0.406431 0.917276 0.560154 -0.289441
C20   C     C_3   0.469575 0.083512 0.416046 0.079512
C21   C     C_3   0.465851 0.916101 0.416583 0.073444
C22   C     C_R   0.739618 0.499774 0.498860 0.754101
C23   C     C_R   0.500016 0.500062 0.659316 0.812785
C24   C     C_3   0.436195 0.633266 0.049275 -0.433415
C25   C     C_3   0.430126 0.370394 0.048664 -0.393970
C26   C     C_3   0.441039 0.358240 0.950674 0.276125
C27   C     C_3   0.423478 0.629470 0.950688 0.310122
C28   C     C_1   0.500264 0.500141 0.748881 -0.210464
C29   C     C_3   0.500292 0.499968 0.083138 0.161180
C30   C     C_3   0.501025 0.499522 0.917146 0.298125
Cu1   Cu    Cu3+1 0.499860 0.642410 0.500040 0.937554
Cu2   Cu    Cu3+1 0.499860 0.357590 0.500040 0.938011
H1    H     H_    0.310077 0.117259 0.539599 0.171328
H2    H     H_    0.312222 0.877465 0.544803 0.168077
H3    H     H_    0.689963 0.581540 0.083254 0.154684
H4    H     H_    0.679292 0.397336 0.072976 0.172279
N1    N     N_3   0.500250 0.143650 0.501830 -0.143899
N2    N     N_3   0.500250 0.856350 0.501830 -0.141357
O1    O     O_R   0.317570 0.620260 0.500050 -0.561094
O2    O     O_R   0.317570 0.379740 0.500050 -0.554965
O3    O     O_R   0.499890 0.620310 0.379470 -0.552602
O4    O     O_R   0.499890 0.379690 0.379470 -0.551137
O5    O     O_R   0.682190 0.620260 0.500020 -0.570509
O6    O     O_R   0.682190 0.379740 0.500020 -0.567776
O7    O     O_R   0.499870 0.620210 0.620600 -0.597087
O8    O     O_R   0.499870 0.379790 0.620600 -0.589819
N3    N     N_3   0.291382 0.618466 0.924495 -0.587062
H5    H     H_    0.242359 0.555976 0.966216 0.232920
H6    H     H_    0.249224 0.716235 0.928468 0.195137
N4    N     N_3   0.316758 0.334196 0.912786 -0.612298
H7    H     H_    0.323826 0.313732 0.848330 0.224154
H8    H     H_    0.277540 0.245234 0.939492 0.200765
H9    H     H_    0.885948 0.695838 0.431628 0.192001
H10   H     H_    0.900234 0.326989 0.588013 0.181986
H11   H     H_    0.110098 0.423015 0.366713 0.157781
H12   H     H_    0.096206 0.289660 0.442754 0.165341
H13   H     H_    0.898185 0.459750 0.362909 0.150109
H14   H     H_    0.887108 0.304596 0.423351 0.184917
N5    N     N_3   0.659119 0.133048 0.616955 -0.585262
H15   H     H_    0.683689 0.237712 0.619679 0.261285
H16   H     H_    0.593880 0.113088 0.662796 0.196224
N6    N     N_3   0.664812 0.865050 0.613814 -0.581857
H17   H     H_    0.691318 0.761185 0.615372 0.261068
H18   H     H_    0.601950 0.881800 0.661571 0.198784
N7    N     N_3   0.725199 0.138455 0.476587 -0.572303
H19   H     H_    0.724845 0.109476 0.413492 0.160848
H20   H     H_    0.812957 0.121163 0.503924 0.196588
N8    N     N_3   0.722777 0.866227 0.471490 -0.571969
H21   H     H_    0.713968 0.893885 0.408432 0.158316
H22   H     H_    0.810320 0.897779 0.493412 0.194420
H23   H     H_    0.411163 0.125148 0.623113 0.156396
H24   H     H_    0.418365 0.879341 0.625408 0.144835
N9    N     N_3   0.358291 0.149334 0.378259 -0.529937
H25   H     H_    0.276275 0.123185 0.407902 0.191541
H26   H     H_    0.349518 0.119963 0.314939 0.179223
N10   N     N_3   0.348189 0.856975 0.384712 -0.498975
H27   H     H_    0.272438 0.902947 0.413067 0.204963
H28   H     H_    0.339576 0.875375 0.319906 0.184739
H29   H     H_    0.543314 0.112905 0.372141 0.114315
H30   H     H_    0.533516 0.880658 0.369880 0.115610
H31   H     H_    0.344046 0.646188 0.078735 0.145905
H32   H     H_    0.331057 0.377772 0.066752 0.158829
H33   H     H_    0.467160 0.275107 0.080141 0.165062
H34   H     H_    0.492142 0.725090 0.070177 0.185205
N11   N     N_3   0.519764 0.237443 0.931118 -0.565776
H35   H     H_    0.525306 0.225801 0.865754 0.220016
H36   H     H_    0.478486 0.146362 0.953514 0.201548
N12   N     N_3   0.472976 0.760746 0.916552 -0.569088
H37   H     H_    0.451633 0.767165 0.852081 0.224147
H38   H     H_    0.429250 0.845530 0.944860 0.195508
N13   N     N_3   0.696137 0.646109 0.932715 -0.573973
H39   H     H_    0.703318 0.654927 0.867305 0.217368
H40   H     H_    0.786766 0.650822 0.957438 0.200620
N14   N     N_3   0.719096 0.399168 0.920304 -0.580830
H41   H     H_    0.807655 0.405840 0.948256 0.205869
H42   H     H_    0.730792 0.413048 0.855600 0.206918
N15   N     N_3   0.107485 0.702213 0.398974 -0.576510
H43   H     H_    0.060150 0.649868 0.350339 0.221276
H44   H     H_    0.078870 0.806057 0.394750 0.194454
N16   N     N_3   0.131578 0.320797 0.615797 -0.598203
H45   H     H_    0.097219 0.236140 0.581060 0.214419
H46   H     H_    0.106762 0.304505 0.678412 0.217801
H47   H     H_    0.108685 0.720504 0.530798 0.130239
H48   H     H_    0.098395 0.533267 0.633183 0.129593
H49   H     H_    0.903906 0.709679 0.545421 0.165536
H50   H     H_    0.889799 0.494220 0.636844 0.128242

loop_
_geom_bond_atom_site_label_1
_geom_bond_atom_site_label_2
_ccdc_geom_bond_type
C23   O7    A    
C15   H13   S    
N9    H25   S    
C24   C27   S    
N15   H43   S    
N3    H6    S    
N11   H35   S    
C21   N10   S    
Cu1   O5    S    
C18   N1    S    
N10   H28   S    
C26   N4    S    
C5    C6    T    
C6    C14   S    
C9    H49   S    
C18   C19   S    
C3    C29   S    
C9    C13   S    
C24   C29   S    
N6    H18   S    
C1    O2    A    
N15   H44   S    
C11   C15   S    
C22   O6    A    
C21   N2    S    
C22   O5    A    
N8    H21   S    
N7    H20   S    
C13   C22   S    
N4    H8    S    
C7    N15   S    
C16   N1    S    
C14   O4    A    
N5    H15   S    
C23   O8    A    
C7    H47   S    
C27   C30   S    
N9    H26   S    
C19   H24   S    
C2    N13   S    
C1    C12   S    
C4    C28   T    
C5    C29   S    
N11   H36   S    
C25   C29   S    
C7    C12   S    
N5    H16   S    
C2    N14   S    
N10   H27   S    
N13   H39   S    
C16   C17   S    
C25   C26   S    
C23   C28   S    
C19   H2    S    
C16   N5    S    
C24   H31   S    
N6    H17   S    
C19   N2    S    
C17   N6    S    
N13   H40   S    
N3    H5    S    
C3    H3    S    
C8    C12   S    
N16   H46   S    
N4    H7    S    
Cu2   O6    S    
N14   H41   S    
Cu2   N1    S    
C20   C21   S    
N14   H42   S    
C8    H48   S    
C14   O3    A    
C8    C10   S    
N12   H38   S    
C26   C30   S    
C13   C15   S    
C25   H32   S    
C15   H14   S    
C10   H50   S    
C9    H9    S    
C11   H11   S    
C27   N3    S    
C18   H23   S    
C7    C9    S    
C17   N8    S    
Cu1   O3    S    
C20   H29   S    
Cu2   O8    S    
Cu1   Cu2   S    
C10   C13   S    
C11   C12   S    
Cu1   N2    S    
C2    C30   S    
C2    C3    S    
C8    N16   S    
C20   N1    S    
C3    H4    S    
C26   N11   S    
C21   H30   S    
N16   H45   S    
Cu1   O1    S    
C20   N9    S    
C17   N2    S    
Cu2   O2    S    
C24   H34   S    
C27   N12   S    
C10   H10   S    
C18   H1    S    
C1    O1    A    
N12   H37   S    
N8    H22   S    
N7    H19   S    
Cu1   O7    S    
C25   H33   S    
Cu2   O4    S    
C16   N7    S    
C4    C30   S    
C11   H12   S    
