data_mof_unit_16806.cif
_audit_creation_date              2012-12-11T15:47:00-0500
_audit_creation_method            fapswitch 2.2
_symmetry_space_group_name_H-M    P1
_symmetry_Int_Tables_number       1
_space_group_crystal_system       triclinic
_cell_length_a                    20.157201
_cell_length_b                    7.253187
_cell_length_c                    13.534491
_cell_angle_alpha                 90.000236
_cell_angle_beta                  103.100381
_cell_angle_gamma                 89.999725
_cell_volume                      1927.29678689

loop_
_atom_site_label
_atom_site_type_symbol
_atom_type_description
_atom_site_fract_x
_atom_site_fract_y
_atom_site_fract_z
_atom_type_partial_charge
O1    O     O_R   0.449560 0.506810 0.599700 -0.534409
O2    O     O_R   0.550440 0.006810 0.400300 -0.534408
O3    O     O_R   0.587960 0.180060 0.595760 -0.547250
O4    O     O_R   0.412040 0.680060 0.404240 -0.547250
C1    C     C_R   0.615050 0.344160 0.617153 0.685287
C2    C     C_R   0.384949 0.844160 0.382848 0.685285
O5    O     O_R   0.452380 0.177430 0.611700 -0.537846
O6    O     O_R   0.547620 0.677430 0.388300 -0.537846
O7    O     O_R   0.413900 0.001890 0.416350 -0.539203
O8    O     O_R   0.586100 0.501890 0.583650 -0.539204
C3    C     C_R   0.436315 0.345646 0.637555 0.685880
C4    C     C_R   0.563685 0.845645 0.362444 0.685878
O9    O     O_3   0.487530 0.337490 0.435890 -0.378937
O10   O     O_3   0.512470 0.837490 0.564110 -0.378936
V1    V     V_3+5 0.502310 0.064660 0.511890 1.414513
V2    V     V_3+5 0.497690 0.564660 0.488110 1.414510
C5    C     C_R   0.607637 0.871118 0.108515 -0.168419
C6    C     C_R   0.392363 0.371185 0.891482 -0.168419
H1    H     H_    0.514800 0.860024 0.160309 0.104496
H2    H     H_    0.485200 0.360108 0.839688 0.104495
H3    H     H_    0.579200 0.876667 0.030702 0.130094
H4    H     H_    0.420800 0.376770 0.969294 0.130094
C7    C     C_R   0.603007 0.853837 0.284372 -0.026454
C8    C     C_R   0.396993 0.353843 0.715626 -0.026451
C9    C     C_R   0.931084 0.843391 0.316748 -0.215157
C10   C     C_R   0.068915 0.343377 0.683253 -0.215144
C11   C     C_R   0.895397 0.832872 0.393381 0.534993
C12   C     C_R   0.104600 0.332864 0.606618 0.534929
C13   C     C_R   0.824247 0.838887 0.368880 -0.236581
C14   C     C_R   0.175751 0.338906 0.631117 -0.236593
C15   C     C_R   0.786873 0.856012 0.266868 0.000683
C16   C     C_R   0.213126 0.356017 0.733130 0.000696
C17   C     C_R   0.824022 0.866695 0.189493 0.033821
C18   C     C_R   0.175977 0.366696 0.810506 0.033824
C19   C     C_R   0.714061 0.860945 0.239379 0.074538
C20   C     C_R   0.285938 0.360953 0.760619 0.074537
C21   C     C_R   0.679675 0.873768 0.134851 0.111347
C22   C     C_R   0.320324 0.373804 0.865146 0.111342
C23   C     C_R   0.717814 0.888293 0.059173 0.116646
C24   C     C_R   0.282185 0.388325 0.940823 0.116646
C25   C     C_R   0.788888 0.883841 0.087582 -0.201490
C26   C     C_R   0.211111 0.383851 0.912416 -0.201491
C27   C     C_R   0.673976 0.853362 0.312749 -0.186161
C28   C     C_R   0.326023 0.353341 0.687249 -0.186159
C29   C     C_R   0.569952 0.861143 0.182536 -0.182891
C30   C     C_R   0.430048 0.361200 0.817462 -0.182890
C31   C     C_R   0.896197 0.860031 0.215487 -0.157421
C32   C     C_R   0.103803 0.360025 0.784513 -0.157408
H5    H     H_    0.695888 0.847551 0.392978 0.102168
H6    H     H_    0.304111 0.347482 0.607021 0.102164
H7    H     H_    0.986236 0.838215 0.335588 0.209956
H8    H     H_    0.013764 0.338202 0.664415 0.209969
H9    H     H_    0.800072 0.828496 0.431803 0.157357
H10   H     H_    0.199925 0.328564 0.568191 0.157368
H11   H     H_    0.816945 0.894958 0.028415 0.107035
H12   H     H_    0.183055 0.394963 0.971584 0.107035
C33   C     C_R   0.221263 0.022651 0.211941 -0.123121
C34   C     C_R   0.778737 0.522652 0.788058 -0.123192
H13   H     H_    0.200715 0.154855 0.182784 0.116955
H14   H     H_    0.799286 0.654856 0.817212 0.116970
C35   C     C_R   0.286421 0.018162 0.275684 -0.154588
C36   C     C_R   0.713579 0.518162 0.724314 -0.154610
H15   H     H_    0.313927 0.146593 0.293633 0.119186
H16   H     H_    0.686074 0.646594 0.706363 0.119196
C37   C     C_R   0.315699 0.850122 0.314985 -0.047755
C38   C     C_R   0.684300 0.350121 0.685016 -0.047763
C39   C     C_R   0.277877 0.686791 0.289194 -0.141293
C40   C     C_R   0.722121 0.186790 0.710811 -0.141275
H17   H     H_    0.298543 0.554624 0.318240 0.123622
H18   H     H_    0.701456 0.054622 0.681767 0.123622
C41   C     C_R   0.212840 0.691161 0.225097 -0.118038
C42   C     C_R   0.787159 0.191160 0.774907 -0.117962
H19   H     H_    0.185536 0.562545 0.206764 0.131775
H20   H     H_    0.814463 0.062543 0.793243 0.131792
C43   C     C_R   0.183581 0.859171 0.185630 -0.032685
C44   C     C_R   0.816418 0.359172 0.814371 -0.032707
O11   O     O_R   0.913920 0.203370 0.916260 -0.542893
O12   O     O_R   0.086080 0.703370 0.083740 -0.542900
O13   O     O_R   0.047620 0.535540 0.888290 -0.535507
O14   O     O_R   0.952380 0.035540 0.111710 -0.535508
C45   C     C_R   0.063630 0.368281 0.862101 0.724024
C46   C     C_R   0.936370 0.868283 0.137899 0.724027
O15   O     O_R   0.912040 0.532780 0.904220 -0.542652
O16   O     O_R   0.087960 0.032780 0.095780 -0.542646
O17   O     O_R   0.949550 0.708160 0.099720 -0.535335
O18   O     O_R   0.050450 0.208160 0.900280 -0.535330
C47   C     C_R   0.885465 0.364932 0.882945 0.684286
C48   C     C_R   0.114535 0.864932 0.117056 0.684286
O19   O     O_3   0.012480 0.375300 0.064060 -0.374861
O20   O     O_3   0.987520 0.875300 0.935940 -0.374850
V3    V     V_3+5 0.997690 0.648180 0.988110 1.479538
V4    V     V_3+5 0.002310 0.148180 0.011890 1.479555
C49   C     C_3   0.684834 0.910738 0.947144 -0.362760
C50   C     C_3   0.657911 0.106635 0.923341 -0.741000
H21   H     H_    0.621863 0.146521 0.970519 0.221553
H22   H     H_    0.700928 0.206141 0.937353 0.234459
H23   H     H_    0.630714 0.115474 0.842429 0.212816
H24   H     H_    0.722085 0.882560 0.899691 0.168584
H25   H     H_    0.643567 0.807981 0.922739 0.169164
C51   C     C_3   0.315164 0.410781 0.052852 -0.362760
C52   C     C_3   0.342073 0.606693 0.076652 -0.740986
H26   H     H_    0.378112 0.646608 0.029465 0.221550
H27   H     H_    0.299047 0.706173 0.062650 0.234459
H28   H     H_    0.369277 0.615537 0.157561 0.212814
H29   H     H_    0.277916 0.382578 0.100306 0.168583
H30   H     H_    0.356440 0.308046 0.077257 0.169162
S1    S     S_3+6 0.939303 0.810820 0.521270 0.046970
O21   O     O_2   0.922909 0.973849 0.580017 -0.321950
O22   O     O_2   0.916000 0.637867 0.564384 -0.325639
O23   O     O_3   0.023917 0.800796 0.531111 -0.453619
H31   H     H_    0.043753 0.778572 0.604042 0.364185
S2    S     S_3+6 0.060690 0.310870 0.478727 0.046936
O24   O     O_2   0.076742 0.474539 0.420152 -0.322058
O25   O     O_2   0.084302 0.138573 0.435377 -0.325557
O26   O     O_3   0.976107 0.299537 0.468962 -0.453606
H32   H     H_    0.956260 0.278399 0.395926 0.364170

loop_
_geom_bond_atom_site_label_1
_geom_bond_atom_site_label_2
_ccdc_geom_bond_type
C34   C36   A    
O15   C47   A    
O11   V4    S    
O4    V2    S    
C49   C50   S    
C7    C29   A    
C11   C13   A    
C38   C40   A    
O1    C3    A    
C42   C44   A    
O2    C4    A    
C2    O7    A    
S2    O25   D    
O17   V3    S    
C34   C44   A    
C23   C25   A    
C12   S2    S    
O5    C3    A    
C14   H10   S    
C4    C7    S    
C51   H29   S    
C52   H26   S    
C16   C20   A    
C19   C21   A    
C5    C29   A    
C33   H13   S    
C34   H14   S    
O26   H32   S    
C3    C8    S    
C7    C27   A    
C32   C45   S    
C31   C46   S    
C35   H15   S    
O23   H31   S    
C23   C49   S    
C36   H16   S    
C26   H12   S    
C2    C37   S    
C25   H11   S    
C37   C39   A    
C18   C26   A    
S1    O21   D    
C15   C17   A    
C14   C16   A    
C19   C27   A    
C49   H25   S    
O13   V3    S    
C45   O18   A    
C10   C32   A    
C24   C26   A    
O6    V2    S    
C22   C24   A    
C13   C15   A    
S1    O22   D    
C6    C30   A    
S2    O24   D    
C36   C38   A    
C42   H20   S    
O13   C45   A    
C27   H5    S    
O5    V1    S    
C50   H23   S    
C5    H3    S    
C40   C42   A    
C39   H17   S    
C16   C18   A    
O14   V4    S    
C9    H7    S    
C10   H8    S    
C11   S1    S    
O6    C4    A    
O1    V2    S    
C5    C21   A    
O19   V4    S    
C50   H22   S    
O2    V1    S    
C44   C47   S    
O4    C2    A    
C52   H28   S    
C17   C31   A    
S1    O23   S    
C15   C19   A    
C20   C28   A    
C18   C32   A    
O3    V1    S    
C41   H19   S    
C52   H27   S    
O12   C48   A    
C9    C31   A    
C6    H4    S    
C10   C12   A    
O16   C48   A    
C1    C38   S    
O3    C1    A    
C24   C51   S    
H1    C29   S    
C33   C35   A    
O12   V3    S    
C9    C11   A    
C46   O17   A    
O15   V3    S    
C51   H30   S    
C8    C30   A    
C33   C43   A    
C20   C22   A    
C6    C22   A    
C17   C25   A    
C1    O8    A    
C21   C23   A    
O8    V2    S    
C41   C43   A    
O20   V3    S    
C13   H9    S    
C8    C28   A    
C12   C14   A    
C51   C52   S    
O14   C46   A    
C39   C41   A    
O7    V1    S    
C50   H21   S    
C35   C37   A    
C43   C48   S    
O11   C47   A    
C28   H6    S    
C40   H18   S    
O9    V2    S    
O10   V1    S    
O18   V4    S    
O16   V4    S    
C49   H24   S    
S2    O26   S    
H2    C30   S    
