data_mof_unit_50841.cif
_audit_creation_date              2013-03-05T15:55:04-0500
_audit_creation_method            fapswitch 2.2
_symmetry_space_group_name_H-M    P1
_symmetry_Int_Tables_number       1
_space_group_crystal_system       triclinic
_cell_length_a                    14.804615
_cell_length_b                    14.911484
_cell_length_c                    14.87976
_cell_angle_alpha                 109.700812
_cell_angle_beta                  109.70183
_cell_angle_gamma                 109.138232
_cell_volume                      2524.6306411

loop_
_atom_site_label
_atom_site_type_symbol
_atom_site_description
_atom_site_fract_x
_atom_site_fract_y
_atom_site_fract_z
_atom_type_partial_charge
C1    C     C_R   0.185493 0.278549 0.254688 -0.116199
H1    H     H_    0.124227 0.302614 0.252811 0.111899
N1    N     N_R   0.291070 0.347930 0.293870 -0.038525
C2    C     C_R   0.520738 0.428351 0.741139 -0.170473
H2    H     H_    0.550430 0.372496 0.747772 0.124414
N2    N     N_R   0.554050 0.497220 0.706150 -0.055746
C3    C     C_R   0.507990 0.201591 0.409792 -0.123924
H3    H     H_    0.486576 0.151284 0.326083 0.093661
N3    N     N_R   0.497240 0.291100 0.443210 -0.040967
C4    C     C_R   0.291850 0.601087 0.587402 -0.098528
H4    H     H_    0.326758 0.667262 0.669320 0.094812
N4    N     N_R   0.347890 0.554050 0.556810 -0.045847
C5    C     C_R   0.598806 0.294424 0.592725 -0.138187
H5    H     H_    0.662263 0.331134 0.677291 0.098568
N5    N     N_R   0.554050 0.347900 0.556830 -0.038043
C6    C     C_R   0.200891 0.506210 0.405777 -0.105274
H6    H     H_    0.153346 0.481403 0.320584 0.142410
N6    N     N_R   0.291070 0.497250 0.443190 -0.043542
C7    C     C_R   0.435026 0.526375 0.750869 0.235126
N7    N     N_R   0.497240 0.554030 0.706140 -0.064184
C8    C     C_R   0.276225 0.184881 0.250036 -0.134473
H7    H     H_    0.297771 0.121008 0.239387 0.101652
N8    N     N_R   0.347890 0.291110 0.293870 -0.042627
C9    C     C_R   0.172745 0.174723 0.225426 0.066682
C10   C     C_R   0.443760 0.442454 0.768146 0.051998
C11   C     C_R   0.571976 0.202014 0.502599 0.084954
C12   C     C_R   0.198756 0.572936 0.494294 0.065281
C13   C     C_R   0.455817 0.725145 0.408702 0.273620
N9    N     N_R   0.445950 0.652100 0.443170 -0.070990
C14   C     C_R   0.815709 0.566499 0.593160 -0.106234
H8    H     H_    0.878668 0.617056 0.679076 0.127744
N10   N     N_R   0.708930 0.502750 0.556810 -0.044628
C15   C     C_R   0.501209 0.408277 0.198440 -0.147852
H9    H     H_    0.524890 0.347606 0.170560 0.100100
N11   N     N_R   0.502760 0.445970 0.293860 -0.046127
C16   C     C_R   0.707460 0.798924 0.804641 -0.163736
H10   H     H_    0.671092 0.846263 0.832521 0.107929
N12   N     N_R   0.652110 0.708890 0.706130 -0.039738
C17   C     C_R   0.801146 0.709800 0.805447 -0.123518
H11   H     H_    0.853456 0.677839 0.834382 0.122799
N13   N     N_R   0.708930 0.652070 0.706130 -0.044185
C18   C     C_R   0.409922 0.500192 0.196921 -0.148240
H12   H     H_    0.352096 0.525995 0.166810 0.168014
N14   N     N_R   0.445950 0.502780 0.293850 -0.046485
C19   C     C_R   0.565201 0.814060 0.592718 -0.178407
H13   H     H_    0.624716 0.875079 0.678168 0.115718
N15   N     N_R   0.502760 0.708900 0.556790 -0.059355
C20   C     C_R   0.723387 0.476259 0.408897 -0.124772
H14   H     H_    0.701024 0.444564 0.323460 0.094931
N16   N     N_R   0.652110 0.445950 0.443190 -0.044185
Ni1   Ni    Ni4+2 0.369690 0.500010 0.369700 0.266000
Ni2   Ni    Ni4+2 0.630310 0.499990 0.630300 0.222599
Ni3   Ni    Ni4+2 0.500000 0.369720 0.369720 0.206927
Ni4   Ni    Ni4+2 0.500000 0.630280 0.630280 0.204074
C21   C     C_R   0.541368 0.827241 0.501267 -0.046428
C22   C     C_R   0.827362 0.555375 0.501650 0.053692
C23   C     C_R   0.442893 0.440414 0.135413 0.083463
C24   C     C_R   0.801903 0.802570 0.869485 0.082849
H15   H     H_    0.938036 0.421450 0.976507 0.177341
C25   C     C_R   0.023350 0.568084 0.136671 0.415097
C26   C     C_R   0.048316 0.608028 0.248307 0.111469
C27   C     C_R   0.007972 0.532642 0.282055 -0.035824
C28   C     C_R   0.940829 0.420044 0.204268 -0.197720
H16   H     H_    0.906061 0.362417 0.228327 0.136039
C29   C     C_R   0.917128 0.381250 0.095348 -0.188938
H17   H     H_    0.865441 0.294169 0.036007 0.153809
C30   C     C_R   0.958113 0.454266 0.061856 -0.236399
C31   C     C_R   0.927073 0.567366 0.398972 -0.239417
H18   H     H_    0.850598 0.528680 0.322563 0.129915
C32   C     C_R   0.930759 0.605721 0.500453 0.052299
C33   C     C_R   0.035185 0.676392 0.597917 0.048161
C34   C     C_R   0.127230 0.674249 0.593062 -0.214046
H19   H     H_    0.205868 0.720730 0.668831 0.118465
C35   C     C_R   0.116937 0.610091 0.491993 0.043216
C36   C     C_R   0.019857 0.571130 0.393213 0.067244
C37   C     C_R   0.000676 0.822438 0.697633 -0.147696
H20   H     H_    0.947443 0.811218 0.619189 0.117664
C38   C     C_R   0.019744 0.903253 0.794936 -0.089731
H21   H     H_    0.980779 0.952959 0.791205 0.117399
C39   C     C_R   0.090012 0.920807 0.897091 -0.114462
H22   H     H_    0.106134 0.984775 0.972249 0.126700
C40   C     C_R   0.139618 0.856109 0.902184 -0.089897
H23   H     H_    0.193252 0.869277 0.981510 0.136208
C41   C     C_R   0.120794 0.775041 0.805049 -0.134837
H24   H     H_    0.160000 0.725735 0.810571 0.139521
C42   C     C_R   0.051482 0.757812 0.701676 0.081107
C43   C     C_R   0.472579 0.366313 0.887903 0.108295
C44   C     C_R   0.403635 0.394365 0.827187 -0.095947
C45   C     C_R   0.323083 0.407609 0.852037 0.351468
C46   C     C_R   0.332564 0.419108 0.952890 -0.314438
H25   H     H_    0.276850 0.437346 0.977374 0.189277
C47   C     C_R   0.414127 0.407012 0.021659 -0.013382
C48   C     C_R   0.477826 0.372545 0.984431 0.154441
C49   C     C_3   0.470650 0.263027 0.953286 -0.503150
C50   C     C_3   0.463960 0.255781 0.847783 -0.449782
H26   H     H_    0.548284 0.269890 0.008524 0.185098
H27   H     H_    0.393626 0.200709 0.940390 0.202983
H28   H     H_    0.537346 0.257731 0.841743 0.182077
H29   H     H_    0.382812 0.189592 0.772860 0.206122
C51   C     C_R   0.592114 0.947044 0.419628 0.109219
C52   C     C_R   0.592729 0.933245 0.508529 0.068483
C53   C     C_R   0.639465 0.029517 0.609247 -0.169099
H30   H     H_    0.653644 0.029127 0.685150 0.120759
C54   C     C_R   0.650277 0.125814 0.610091 -0.183148
H31   H     H_    0.672167 0.192416 0.686641 0.121691
C55   C     C_R   0.611939 0.126125 0.509847 0.056816
C56   C     C_R   0.597510 0.040715 0.419124 0.135048
C57   C     C_3   0.535791 0.985681 0.295974 -0.541764
C58   C     C_3   0.533944 0.882157 0.295428 -0.008001
H32   H     H_    0.451365 0.975221 0.262509 0.197685
H33   H     H_    0.585332 0.021572 0.262785 0.197835
H34   H     H_    0.448413 0.813999 0.252165 0.177261
C59   C     C_R   0.967012 0.071786 0.127430 0.183294
C60   C     C_R   0.067765 0.073251 0.171060 0.015494
C61   C     C_R   0.064162 0.971329 0.141711 -0.196956
H35   H     H_    0.137963 0.966916 0.179186 0.165453
C62   C     C_R   0.969226 0.875500 0.049001 -0.195335
H36   H     H_    0.973623 0.801066 0.018654 0.179859
C63   C     C_R   0.878327 0.882307 0.987215 0.004660
C64   C     C_R   0.873371 0.977352 0.036915 0.179930
C65   C     C_3   0.833597 0.039968 0.989502 -0.542930
C66   C     C_3   0.935920 0.143024 0.087968 -0.531256
H37   H     H_    0.833065 0.025043 0.910806 0.200377
H38   H     H_    0.756279 0.033542 0.988581 0.196439
H39   H     H_    0.992247 0.185744 0.063871 0.207810
H40   H     H_    0.917493 0.195649 0.143740 0.196140
N17   N     N_R   0.061711 0.640896 0.097413 0.236400
O1    O     O_R   0.018446 0.605166 0.991816 -0.434483
O2    O     O_R   0.142618 0.741602 0.165485 -0.347933
N18   N     N_2   0.109064 0.723161 0.324463 -0.052635
H41   H     H_    0.162819 0.745829 0.403802 0.199140
C67   C     C_3   0.042542 0.775949 0.321149 -0.819795
H42   H     H_    0.097315 0.866114 0.376791 0.252694
H43   H     H_    0.984258 0.745781 0.349123 0.223040
H44   H     H_    0.995000 0.759637 0.236132 0.252850
N19   N     N_R   0.231590 0.406784 0.775540 0.225521
O3    O     O_R   0.173927 0.444465 0.808402 -0.393600
O4    O     O_R   0.198447 0.358246 0.670508 -0.417837
N20   N     N_2   0.599676 0.848552 0.252304 -0.098139
H45   H     H_    0.576941 0.767225 0.226841 0.170035
C68   C     C_3   0.718821 0.919423 0.311067 -0.842715
H46   H     H_    0.752653 0.887252 0.259734 0.240026
H47   H     H_    0.757530 0.920782 0.390119 0.238429
H48   H     H_    0.741030 0.004253 0.327804 0.254597
N21   N     N_2   0.406244 0.597833 0.810401 -0.110456
H49   H     H_    0.326515 0.581291 0.767402 0.212854
C69   C     C_3   0.488941 0.713156 0.876497 -0.957493
H50   H     H_    0.461703 0.758971 0.926982 0.263155
H51   H     H_    0.500715 0.746914 0.822805 0.237716
H52   H     H_    0.568932 0.724916 0.933203 0.265418
N22   N     N_R   0.359535 0.712494 0.326479 0.211861
O5    O     O_R   0.343498 0.796111 0.344483 -0.393341
O6    O     O_R   0.274251 0.614773 0.255678 -0.457318

loop_
_geom_bond_atom_site_label_1
_geom_bond_atom_site_label_2
_geom_bond_distance
_ccdc_geom_bond_type
C4    C12   1.391484 A    
C43   C44   1.394972 A    
C28   C29   1.391337 A    
C9    C60   1.464388 S    
C52   C53   1.408751 A    
C23   C47   1.449452 S    
N11   Ni3   1.853246 S    
C34   C35   1.407132 A    
N1    N8    1.375797 A    
C69   H50   1.110185 S    
C11   C55   1.456177 S    
C54   C55   1.408059 A    
C2    C10   1.383264 A    
C50   H28   1.111836 S    
C3    H3    1.078213 S    
C17   N13   1.341705 A    
C19   H13   1.076956 S    
C31   C36   1.389036 A    
C48   C49   1.495261 S    
C3    C11   1.382969 A    
N9    N15   1.375409 A    
C47   C48   1.392252 A    
C16   H10   1.078258 S    
C69   H51   1.108861 S    
C41   C42   1.407627 A    
C16   C24   1.376239 A    
C62   C63   1.408829 A    
C14   H8    1.075867 S    
C39   H22   1.081209 S    
C38   C39   1.395798 A    
C55   C56   1.399279 A    
C61   H35   1.081707 S    
C33   C42   1.486232 S    
C57   C58   1.532172 S    
C3    N3    1.341346 A    
C1    H1    1.074856 S    
N10   Ni2   1.846437 S    
C65   H38   1.111861 S    
H15   C30   1.082483 S    
C31   H18   1.081160 S    
C68   H46   1.110357 S    
C59   C66   1.497997 S    
C7    N7    1.345618 A    
C25   C30   1.406761 A    
C67   H42   1.110244 S    
C29   C30   1.392297 A    
C43   C50   1.495515 S    
C56   C57   1.493897 S    
N8    Ni3   1.839170 S    
C32   C33   1.411899 A    
C12   C35   1.483315 S    
N13   Ni2   1.851794 S    
C26   C27   1.419551 A    
C6    C12   1.375096 A    
C20   N16   1.335656 A    
C51   C58   1.506037 S    
C45   N19   1.438951 S    
C5    H5    1.080256 S    
C53   H30   1.079379 S    
C18   N14   1.340319 A    
C7    C10   1.396182 A    
C18   C23   1.380909 A    
C54   H31   1.079891 S    
N21   C69   1.445932 S    
C13   C21   1.401663 A    
N6    Ni1   1.846435 S    
N21   H49   1.028074 S    
C19   N15   1.323022 A    
C8    N8    1.339815 A    
N20   H45   1.031541 S    
N16   Ni3   1.839087 S    
C35   C36   1.419846 A    
C69   H52   1.111526 S    
C41   H24   1.082864 S    
N12   N13   1.375796 A    
N7    Ni4   1.853248 S    
C58   H34   1.102799 S    
C17   H11   1.080647 S    
N1    Ni1   1.851794 S    
C38   H21   1.082460 S    
C34   H19   1.079782 S    
C49   H27   1.112685 S    
C61   C62   1.402544 A    
C17   C24   1.384058 A    
C14   C22   1.391485 A    
C10   C44   1.461569 S    
C25   C26   1.423132 A    
C1    N1    1.331130 A    
C66   H40   1.110336 S    
N18   C67   1.446941 S    
N17   O2    1.301060 A    
C27   C28   1.402311 A    
C59   C64   1.378810 A    
C46   C47   1.404232 A    
N12   Ni4   1.839169 S    
N22   O5    1.301761 A    
C15   H9    1.080046 S    
C6    N6    1.332723 A    
C7    N21   1.420378 S    
N5    Ni2   1.852144 S    
C37   H20   1.083119 S    
C49   H26   1.111859 S    
N11   N14   1.375553 A    
N10   N16   1.375408 A    
C65   C66   1.504010 S    
C4    N4    1.344769 A    
C26   N18   1.424489 S    
C1    C9    1.385879 A    
N15   Ni4   1.853339 S    
N14   Ni1   1.846660 S    
C2    N2    1.330556 A    
C20   H14   1.075946 S    
C40   H23   1.082514 S    
C22   C32   1.476811 S    
C5    N5    1.324810 A    
C5    C11   1.375158 A    
C68   H48   1.109006 S    
N3    Ni3   1.853340 S    
C18   H12   1.074825 S    
N17   O1    1.302385 A    
C37   C42   1.407792 A    
C64   C65   1.496926 S    
N19   O4    1.301756 A    
C59   C60   1.401077 A    
N9    Ni1   1.852144 S    
C20   C22   1.394679 A    
C13   N9    1.339252 A    
C51   C56   1.375405 A    
C15   C23   1.372187 A    
C25   N17   1.445536 S    
C37   C38   1.397551 A    
N19   O3    1.301654 A    
C63   C64   1.399647 A    
C60   C61   1.409621 A    
N2    N7    1.375555 A    
C21   C52   1.459370 S    
C40   C41   1.399120 A    
C57   H33   1.110521 S    
C53   C54   1.386888 A    
C58   N20   1.460768 S    
C66   H39   1.112223 S    
C68   H47   1.110966 S    
N18   H41   1.030726 S    
N3    N5    1.375408 A    
C33   C34   1.398751 A    
C62   H36   1.081370 S    
C14   N10   1.336676 A    
N20   C68   1.451717 S    
C46   H25   1.081626 S    
C6    H6    1.072725 S    
C67   H44   1.111218 S    
C43   C48   1.381212 A    
C16   N12   1.328340 A    
C51   C52   1.403169 A    
C15   N11   1.328101 A    
C39   C40   1.397198 A    
C57   H32   1.111165 S    
C50   H29   1.112607 S    
N22   O6    1.299666 A    
C49   C50   1.503248 S    
C27   C36   1.481084 S    
C65   H37   1.112540 S    
C4    H4    1.075407 S    
C28   H16   1.083125 S    
C2    H2    1.078382 S    
C24   C63   1.462819 S    
C44   C45   1.414352 A    
C19   C21   1.384509 A    
C13   N22   1.434035 S    
C67   H43   1.110898 S    
C29   H17   1.082218 S    
C8    C9    1.391475 A    
N4    N6    1.375408 A    
C31   C32   1.397112 A    
N2    Ni2   1.846660 S    
C45   C46   1.403508 A    
C8    H7    1.079591 S    
N4    Ni4   1.839087 S    
