data_mof_unit_59334.cif
_audit_creation_date              2012-12-11T14:34:09-0500
_audit_creation_method            fapswitch 2.2
_symmetry_space_group_name_H-M    P1
_symmetry_Int_Tables_number       1
_space_group_crystal_system       triclinic
_cell_length_a                    14.026938
_cell_length_b                    14.116391
_cell_length_c                    27.261206
_cell_angle_alpha                 89.810477
_cell_angle_beta                  90.302209
_cell_angle_gamma                 119.903018
_cell_volume                      4679.28681547

loop_
_atom_site_label
_atom_site_type_symbol
_atom_type_description
_atom_site_fract_x
_atom_site_fract_y
_atom_site_fract_z
_atom_type_partial_charge
Br1   Br    Br    0.470508 0.814423 0.829671 -0.035806
Br2   Br    Br    0.156719 0.681934 0.841927 -0.087156
Br3   Br    Br    0.331681 0.530339 0.835170 -0.061268
Br4   Br    Br    0.758644 0.688355 0.809410 -0.349777
Br5   Br    Br    0.320271 0.090956 0.800441 -0.318108
Br6   Br    Br    0.922292 0.263585 0.808118 -0.302901
Br7   Br    Br    0.598614 0.006379 0.705240 -0.214235
Br8   Br    Br    0.985378 0.601853 0.710162 -0.192552
Br9   Br    Br    0.403309 0.401808 0.711684 -0.186914
C1    C     C_R   0.234797 0.786703 0.568750 0.552156
C2    C     C_1   0.712127 0.867063 0.859434 0.108052
C3    C     C_1   0.116450 0.883871 0.852531 0.119731
C4    C     C_1   0.145069 0.292620 0.860600 0.094081
C5    C     C_1   0.642078 0.823558 0.656416 0.128681
C6    C     C_1   0.181997 0.815445 0.657124 0.128487
C7    C     C_1   0.182922 0.368797 0.658391 0.123536
C8    C     C_1   0.609514 0.801342 0.614730 0.105244
C9    C     C_1   0.202412 0.804010 0.615657 0.104621
C10   C     C_1   0.194555 0.397240 0.616131 0.103141
C11   C     C_R   0.065371 0.151265 0.095829 0.567988
C12   C     C_R   0.212696 0.446931 0.568747 0.552700
C13   C     C_R   0.778731 0.884261 0.088475 0.549467
C14   C     C_R   0.116123 0.894068 0.088172 0.566330
C15   C     C_R   0.106544 0.220329 0.951138 0.579222
C16   C     C_R   0.780557 0.887457 0.950711 0.562032
C17   C     C_R   0.090971 0.929773 0.943425 0.567391
C18   C     C_R   0.618199 0.895081 0.361532 -0.130454
C19   C     C_R   0.097419 0.733237 0.363346 -0.131525
C20   C     C_R   0.263096 0.358439 0.364127 -0.131534
C21   C     C_R   0.645849 0.911258 0.311989 0.013343
C22   C     C_R   0.080566 0.744963 0.313645 0.013648
C23   C     C_R   0.554215 0.766142 0.568392 0.552389
C24   C     C_R   0.240199 0.307437 0.318092 0.013789
C25   C     C_R   0.683466 0.929077 0.210434 0.015934
C26   C     C_R   0.060935 0.760936 0.211754 0.016426
C27   C     C_R   0.199807 0.226444 0.221340 0.017058
C28   C     C_R   0.232616 0.788356 0.432027 0.543057
C29   C     C_R   0.211639 0.444978 0.431503 0.542986
C30   C     C_R   0.555071 0.767131 0.432030 0.542205
C31   C     C_R   0.654798 0.999286 0.234098 -0.138025
C32   C     C_R   0.978847 0.671869 0.237733 -0.128100
C33   C     C_R   0.301292 0.257976 0.244081 -0.123332
C34   C     C_3   0.656756 0.737843 0.788762 0.524275
C35   C     C_R   0.635762 0.990248 0.284610 -0.131365
C36   C     C_R   0.989248 0.663229 0.288351 -0.128828
C37   C     C_R   0.321464 0.298461 0.292078 -0.127651
C38   C     C_R   0.705862 0.938793 0.160070 -0.147284
C39   C     C_R   0.051362 0.771855 0.161220 -0.133372
C40   C     C_R   0.182214 0.195909 0.171766 -0.127419
C41   C     C_R   0.731548 0.865426 0.137444 0.000679
C42   C     C_R   0.135030 0.861920 0.136366 -0.001043
C43   C     C_R   0.082943 0.172619 0.148701 -0.007431
C44   C     C_R   0.660958 0.747993 0.365209 -0.127710
C45   C     C_3   0.259012 0.935342 0.787005 0.527196
C46   C     C_R   0.263615 0.911499 0.362794 -0.125681
C47   C     C_R   0.076761 0.327883 0.368147 -0.126371
C48   C     C_R   0.686569 0.761458 0.315746 0.012552
C49   C     C_R   0.251585 0.921528 0.313018 0.013007
C50   C     C_R   0.053236 0.278424 0.322150 0.011684
C51   C     C_R   0.676329 0.841507 0.288666 0.064093
C52   C     C_R   0.160989 0.837014 0.288000 0.063561
C53   C     C_R   0.135896 0.270336 0.296442 0.062863
C54   C     C_R   0.713888 0.690324 0.292265 -0.126184
C55   C     C_R   0.333501 0.010941 0.287380 -0.127458
C56   C     C_3   0.075954 0.358712 0.789427 0.536550
C57   C     C_R   0.950459 0.243369 0.300185 -0.127683
C58   C     C_R   0.726796 0.695480 0.241747 -0.126476
C59   C     C_R   0.327926 0.014749 0.236658 -0.129691
C60   C     C_R   0.931424 0.205642 0.252013 -0.121885
C61   C     C_R   0.715499 0.773755 0.214630 0.010136
C62   C     C_R   0.238432 0.931172 0.211489 0.013064
C63   C     C_R   0.013942 0.200380 0.225567 0.016559
C64   C     C_3   0.583053 0.872035 0.734135 0.549551
C65   C     C_3   0.119672 0.721575 0.738957 0.560409
C66   C     C_3   0.285698 0.423311 0.738088 0.556279
C67   C     C_3   0.642341 0.728951 0.732094 0.281254
C68   C     C_R   0.692341 0.848627 0.237934 0.065454
C69   C     C_R   0.153180 0.843059 0.237085 0.064088
C70   C     C_R   0.115954 0.230559 0.248045 0.062618
C71   C     C_R   0.729904 0.779734 0.164537 -0.121016
C72   C     C_R   0.231050 0.936874 0.161170 -0.129135
C73   C     C_R   0.997913 0.170667 0.176269 -0.127885
C74   C     C_R   0.618852 0.808707 0.387172 0.001059
C75   C     C_R   0.192794 0.813559 0.387007 0.000292
C76   C     C_R   0.182934 0.372998 0.388332 -0.001012
C77   C     C_3   0.784983 0.924104 0.722285 0.164598
C78   C     C_3   0.274101 0.918412 0.731816 0.286837
C79   C     C_3   0.083000 0.874610 0.712037 0.139957
C80   C     C_3   0.131452 0.226235 0.723443 0.177586
C81   C     C_3   0.798604 0.939334 0.778902 0.218873
C82   C     C_3   0.063053 0.889193 0.766331 0.222174
C83   C     C_3   0.125719 0.209830 0.779816 0.229198
C84   C     C_1   0.737111 0.875081 0.902133 0.090671
C85   C     C_1   0.103474 0.903100 0.894174 0.101861
C86   C     C_1   0.133660 0.265164 0.902916 0.080475
C87   C     C_3   0.663553 0.839008 0.709684 -0.087598
C88   C     C_3   0.163608 0.830240 0.708694 -0.081769
C89   C     C_3   0.085044 0.373612 0.732564 0.281324
C90   C     C_3   0.172883 0.348083 0.711651 -0.095966
C91   C     C_3   0.604363 0.887745 0.790719 0.078659
C92   C     C_3   0.096797 0.740643 0.793195 0.063563
C93   C     C_3   0.274889 0.399702 0.794471 0.074179
C94   C     C_3   0.692200 0.856709 0.806042 -0.111714
C95   C     C_3   0.134902 0.863696 0.801362 -0.105055
C96   C     C_3   0.154151 0.316010 0.807616 -0.118791
Cr1   Cr    Cr6+3 0.164410 0.584450 0.499910 1.067643
Cr2   Cr    Cr6+3 0.415550 0.579960 0.499910 1.068475
Cr3   Cr    Cr6+3 0.420040 0.835590 0.499910 1.064062
Cr4   Cr    Cr6+3 0.155170 0.075460 0.019960 1.052968
Cr5   Cr    Cr6+3 0.924540 0.079710 0.019960 1.053210
Cr6   Cr    Cr6+3 0.920290 0.844830 0.019960 1.058784
F1    F     F_    0.475636 0.790609 0.725074 -0.389848
F2    F     F_    0.538170 0.646074 0.719714 -0.456356
F3    F     F_    0.353785 0.888913 0.726498 -0.449896
F4    F     F_    0.110569 0.478509 0.719911 -0.451319
F5    F     F_    0.558799 0.665577 0.810644 -0.477058
F6    F     F_    0.321364 0.905303 0.815402 -0.479613
F7    F     F_    0.105476 0.457637 0.811278 -0.461727
F8    F     F_    0.198009 0.689099 0.738130 -0.372228
F9    F     F_    0.316567 0.531747 0.729544 -0.381848
F10   F     F_    0.817627 0.023521 0.699583 -0.604190
F11   F     F_    0.983997 0.806348 0.688714 -0.620863
F12   F     F_    0.198183 0.190663 0.702849 -0.593490
F13   F     F_    0.885065 0.927818 0.795202 -0.555351
F14   F     F_    0.084425 0.993972 0.773298 -0.536351
F15   F     F_    0.022468 0.128364 0.793032 -0.537319
H1    H     H_    0.637067 0.975334 0.799981 0.123757
H2    H     H_    0.646816 0.060831 0.213555 0.102839
H3    H     H_    0.907727 0.608160 0.218804 0.101554
H4    H     H_    0.366326 0.254856 0.224191 0.103104
H5    H     H_    0.611698 0.043896 0.302122 0.102820
H6    H     H_    0.926663 0.592249 0.307590 0.103672
H7    H     H_    0.401709 0.325812 0.308295 0.105012
H8    H     H_    0.748500 0.721680 0.147297 0.133083
H9    H     H_    0.296374 0.006033 0.141920 0.129231
H10   H     H_    0.920306 0.149796 0.158715 0.119891
H11   H     H_    0.745399 0.638230 0.223849 0.101387
H12   H     H_    0.006710 0.692890 0.800025 0.132288
H13   H     H_    0.393048 0.083347 0.217150 0.097722
H14   H     H_    0.853765 0.184671 0.234794 0.112584
H15   H     H_    0.721584 0.628454 0.312703 0.104787
H16   H     H_    0.403688 0.075863 0.306359 0.100451
H17   H     H_    0.886371 0.249369 0.319529 0.106815
H18   H     H_    0.663763 0.682954 0.385298 0.133509
H19   H     H_    0.335627 0.975473 0.381226 0.135450
H20   H     H_    0.013744 0.336938 0.386855 0.135058
H21   H     H_    0.840005 0.894384 0.708540 0.227896
H22   H     H_    0.119197 0.955042 0.692967 0.227551
H23   H     H_    0.327131 0.363936 0.804934 0.126515
H24   H     H_    0.047954 0.175035 0.707341 0.234091
H25   H     H_    0.818268 0.023721 0.788239 0.250317
H26   H     H_    0.975446 0.832748 0.774689 0.251921
H27   H     H_    0.185240 0.184066 0.791182 0.250762
H28   H     H_    0.701124 0.706808 0.715709 0.144172
H29   H     H_    0.303725 0.996541 0.711445 0.142416
H30   H     H_    0.004226 0.317742 0.715124 0.141970
H31   H     H_    0.706593 0.004424 0.139005 0.111554
H32   H     H_    0.977301 0.713985 0.141869 0.118374
H33   H     H_    0.247027 0.194676 0.150783 0.124682
H34   H     H_    0.587138 0.943424 0.378712 0.130854
H35   H     H_    0.041141 0.658479 0.382351 0.127502
H36   H     H_    0.344893 0.392012 0.379688 0.128656
O1    O     O_R   0.137150 0.468200 0.553200 -0.488303
O2    O     O_R   0.140110 0.470540 0.446010 -0.522853
O3    O     O_R   0.529460 0.669570 0.446010 -0.522826
O4    O     O_R   0.330430 0.859890 0.446010 -0.525242
O5    O     O_R   0.176710 0.690910 0.450560 -0.506746
O6    O     O_R   0.309090 0.485800 0.450560 -0.505903
O7    O     O_R   0.514200 0.823290 0.450560 -0.509552
O8    O     O_3   0.333333 0.666667 0.499990 -0.285779
O9    O     O_R   0.176750 0.985260 0.074180 -0.528728
O10   O     O_R   0.014740 0.191490 0.074180 -0.496784
O11   O     O_R   0.808510 0.823250 0.074180 -0.519351
O12   O     O_R   0.531800 0.668950 0.553200 -0.484927
O13   O     O_R   0.146100 0.172630 0.068980 -0.490183
O14   O     O_R   0.827370 0.973470 0.068980 -0.521877
O15   O     O_R   0.026530 0.853900 0.068980 -0.494423
O16   O     O_3   1.000000 0.000000 0.020040 -0.290787
O17   O     O_R   0.148270 0.170520 0.969620 -0.510982
O18   O     O_R   0.829480 0.977750 0.969620 -0.496989
O19   O     O_R   0.022250 0.851730 0.969620 -0.478603
O20   O     O_R   0.331050 0.862850 0.553200 -0.489033
O21   O     O_R   0.179100 0.982980 0.967000 -0.477560
O22   O     O_R   0.017020 0.196120 0.967000 -0.476821
O23   O     O_R   0.803880 0.820900 0.967000 -0.489140
O24   O     O_R   0.173970 0.688730 0.549930 -0.482041
O25   O     O_R   0.311270 0.485240 0.549930 -0.480539
O26   O     O_R   0.514760 0.826030 0.549930 -0.481667

loop_
_geom_bond_atom_site_label_1
_geom_bond_atom_site_label_2
_ccdc_geom_bond_type
C17   C85   S    
C6    C9    T    
Cr2   O3    S    
C16   C84   S    
C12   O1    A    
Cr3   O8    S    
C15   O22   A    
C91   H1    S    
C22   C52   A    
C27   C33   A    
C82   C95   S    
C3    C85   T    
C77   H21   S    
C89   F4    S    
C16   O18   A    
C28   O5    A    
C35   H5    S    
C29   O6    A    
C65   F8    S    
C55   H16   S    
C80   C90   S    
C25   C31   A    
C55   C59   A    
C45   C95   S    
C10   C12   S    
C1    C9    S    
C56   C89   S    
C3    C95   S    
C63   C70   A    
C7    C10   T    
C25   C68   A    
C45   C78   S    
C46   H19   S    
C11   O13   A    
C19   C75   A    
Cr5   O16   S    
C31   H2    S    
C20   C24   A    
Cr6   O19   S    
C71   H8    S    
C93   C96   S    
C33   C37   A    
C56   C96   S    
C78   F3    S    
Cr4   O16   S    
Br6   C56   S    
C24   C53   A    
C21   C51   A    
C66   C90   S    
C66   C93   S    
C56   F7    S    
C28   C75   S    
C12   O25   A    
C83   H27   S    
Cr1   O2    S    
C65   C88   S    
C42   C72   A    
C20   C76   A    
C79   C88   S    
C13   C41   S    
C17   O21   A    
C2    C84   T    
C60   H14   S    
C29   O2    A    
Cr5   O22   S    
Cr3   O7    S    
C18   C21   A    
C47   H20   S    
C24   C37   A    
Cr1   O8    S    
C5    C8    T    
C21   C35   A    
C57   C60   A    
C6    C88   S    
C26   C32   A    
C26   C39   A    
Br1   C91   S    
C5    C87   S    
C19   H35   S    
C72   H9    S    
C38   C41   A    
C89   H30   S    
C39   C42   A    
C49   C55   A    
C54   C58   A    
C51   C68   A    
Cr6   O23   S    
C23   O26   A    
C29   C76   S    
C61   C71   A    
C53   C70   A    
Cr1   O24   S    
C79   F11   S    
C77   C81   S    
C15   C86   S    
C44   C48   A    
C48   C51   A    
C78   C88   S    
C57   H17   S    
C80   F12   S    
Br2   C92   S    
C18   H34   S    
C39   H32   S    
C91   C94   S    
C83   F15   S    
C30   O3    A    
C60   C63   A    
C34   F5    S    
Cr6   O16   S    
Cr4   O17   S    
C14   C42   S    
C79   C82   S    
Cr5   O18   S    
C52   C69   A    
C40   C43   A    
Br7   C64   S    
C77   F10   S    
Br8   C65   S    
C67   F2    S    
C54   H15   S    
C33   H4    S    
Cr1   O1    S    
C77   C87   S    
C80   C83   S    
C43   C73   A    
C16   O23   A    
C65   C92   S    
Br3   C93   S    
C4    C96   S    
C80   H24   S    
C11   O10   A    
C4    C86   T    
C64   C91   S    
C92   C95   S    
C1    O20   A    
C78   H29   S    
C45   F6    S    
C13   O11   A    
C64   F1    S    
C38   H31   S    
C34   C67   S    
Cr3   O4    S    
Cr2   O6    S    
C50   C53   A    
C82   F14   S    
Cr6   O11   S    
C81   F13   S    
C20   H36   S    
Cr3   O26   S    
C19   C22   A    
C66   F9    S    
C48   C54   A    
C81   H25   S    
C59   H13   S    
C27   C70   A    
C41   C71   A    
C13   O14   A    
C92   H12   S    
Cr4   O13   S    
C7    C90   S    
C28   O4    A    
Br4   C34   S    
Cr5   O14   S    
C26   C69   A    
C47   C50   A    
Cr3   O20   S    
C44   C74   A    
C44   H18   S    
Cr1   O5    S    
C58   C61   A    
C18   C74   A    
C30   C74   S    
C30   O7    A    
C67   C87   S    
C37   H7    S    
C32   H3    S    
C79   H22   S    
Cr4   O21   S    
C47   C76   A    
C82   H26   S    
C23   O12   A    
C49   C52   A    
C59   C62   A    
C67   H28   S    
C1    O24   A    
C15   O17   A    
Br5   C45   S    
C73   H10   S    
C58   H11   S    
C34   C94   S    
C81   C94   S    
C14   O15   A    
C93   H23   S    
Cr2   O12   S    
C17   O19   A    
C83   C96   S    
C31   C35   A    
C14   O9    A    
C36   H6    S    
C11   C43   S    
C89   C90   S    
C22   C36   A    
C46   C49   A    
Cr6   O15   S    
C8    C23   S    
C32   C36   A    
C40   H33   S    
Cr2   O25   S    
C2    C94   S    
C25   C38   A    
Br9   C66   S    
C64   C87   S    
C62   C72   A    
C46   C75   A    
C62   C69   A    
C63   C73   A    
C27   C40   A    
Cr4   O9    S    
C50   C57   A    
C61   C68   A    
Cr2   O8    S    
Cr5   O10   S    
