data_mof_unit_33456.cif
_audit_creation_date              2012-12-11T16:17:55-0500
_audit_creation_method            fapswitch 2.2
_symmetry_space_group_name_H-M    P1
_symmetry_Int_Tables_number       1
_space_group_crystal_system       triclinic
_cell_length_a                    14.060698
_cell_length_b                    14.113445
_cell_length_c                    30.100258
_cell_angle_alpha                 97.386439
_cell_angle_beta                  96.720384
_cell_angle_gamma                 61.129459
_cell_volume                      5177.04288595

loop_
_atom_site_label
_atom_site_type_symbol
_atom_type_description
_atom_site_fract_x
_atom_site_fract_y
_atom_site_fract_z
_atom_type_partial_charge
C1    C     C_R   0.386225 0.710661 0.442353 0.574481
C2    C     C_R   0.425991 0.266561 0.218126 0.214332
C3    C     C_R   0.445293 0.281805 0.264536 0.206226
C4    C     C_R   0.375634 0.379303 0.288449 -0.073872
C5    C     C_R   0.340691 0.350898 0.195130 -0.067837
C6    C     C_1   0.314660 0.329738 0.148595 0.023564
C7    C     C_1   0.394771 0.389593 0.336408 0.011992
C8    C     C_1   0.294850 0.307183 0.110037 0.047128
C9    C     C_R   0.777469 0.358739 0.403072 -0.014021
C10   C     C_R   0.808600 0.251514 0.383692 0.233463
C11   C     C_R   0.847430 0.220346 0.340868 -0.121017
C12   C     C_R   0.429852 0.403940 0.424195 0.554999
C13   C     C_R   0.854915 0.294140 0.316792 -0.010047
C14   C     C_R   0.832512 0.397499 0.336941 0.207675
C15   C     C_R   0.796618 0.428269 0.380325 -0.152836
C16   C     C_R   0.967987 0.302246 0.175948 0.272445
C17   C     C_R   0.974809 0.318378 0.131524 0.204135
C18   C     C_R   0.854750 0.240428 0.105097 0.153452
C19   C     C_R   0.842806 0.231354 0.149658 -0.178669
C20   C     C_R   0.900795 0.260323 0.184710 -0.045386
C21   C     C_1   0.884819 0.258890 0.230573 0.035975
C22   C     C_1   0.873139 0.269037 0.270007 0.025930
C23   C     C_R   0.711897 0.403996 0.442883 0.565272
C24   C     C_R   0.923156 0.281377 0.095641 0.006865
C25   C     C_R   0.366080 0.771011 0.402691 -0.020521
C26   C     C_R   0.455181 0.751548 0.378330 0.213752
C27   C     C_R   0.436500 0.777280 0.333798 0.282309
C28   C     C_R   0.330576 0.846453 0.317592 -0.057128
C29   C     C_R   0.242643 0.878516 0.343553 -0.166574
C30   C     C_R   0.258940 0.835128 0.384882 0.218583
C31   C     C_R   0.206489 0.897428 0.160451 0.259078
C32   C     C_R   0.206089 0.897831 0.113670 0.267666
C33   C     C_R   0.356365 0.940730 0.124581 -0.182413
C34   C     C_R   0.389694 0.710598 0.568529 0.548895
C35   C     C_R   0.360903 0.933681 0.170355 -0.178446
C36   C     C_R   0.285945 0.913571 0.188272 -0.025450
C37   C     C_1   0.299459 0.896382 0.234612 -0.004928
C38   C     C_1   0.311729 0.877184 0.272955 -0.000633
C39   C     C_R   0.278903 0.924036 0.095827 -0.010350
C40   C     C_R   0.367841 0.373085 0.595287 -0.064930
C41   C     C_R   0.442479 0.294431 0.623536 -0.115743
C42   C     C_R   0.422281 0.301711 0.668416 0.198092
C43   C     C_R   0.326392 0.388108 0.685393 0.046894
C44   C     C_R   0.247797 0.462603 0.656626 0.220632
C45   C     C_R   0.402417 0.384601 0.552919 0.553885
C46   C     C_R   0.268643 0.454696 0.611767 -0.095035
C47   C     C_R   0.264403 0.438425 0.850538 -0.129518
C48   C     C_R   0.261051 0.407621 0.892458 0.193652
C49   C     C_R   0.328698 0.220364 0.860370 0.213661
C50   C     C_R   0.322793 0.253356 0.817954 0.320810
C51   C     C_R   0.294422 0.361758 0.813503 -0.054092
C52   C     C_1   0.299037 0.389860 0.770204 0.069184
C53   C     C_1   0.308487 0.396109 0.731831 0.123673
C54   C     C_R   0.293493 0.297931 0.897749 0.001991
C55   C     C_1   0.761359 0.377398 0.612487 0.004511
C56   C     C_R   0.712317 0.408283 0.568582 0.550456
C57   C     C_R   0.872508 0.385513 0.724738 -0.124903
C58   C     C_R   0.890779 0.373930 0.771259 0.233095
C59   C     C_R   0.804797 0.257654 0.762161 0.214564
C60   C     C_R   0.784387 0.272753 0.716287 -0.091674
C61   C     C_R   0.818738 0.335945 0.697497 -0.056724
C62   C     C_R   0.857917 0.308347 0.789799 0.052871
C63   C     C_1   0.881535 0.292788 0.837127 0.069140
C64   C     C_1   0.791707 0.356212 0.650828 -0.042088
C65   C     C_1   0.908415 0.281353 0.876438 0.054222
C66   C     C_1   0.376517 0.752615 0.614564 0.003545
C67   C     C_1   0.410600 0.395757 0.376562 0.012583
C68   C     C_R   0.268518 0.792299 0.720427 0.300669
C69   C     C_R   0.262876 0.804106 0.767287 0.222031
C70   C     C_R   0.429382 0.819424 0.776886 0.211946
C71   C     C_R   0.435408 0.806909 0.730327 -0.133568
C72   C     C_R   0.355037 0.794900 0.702012 -0.057501
C73   C     C_R   0.341130 0.821504 0.795549 -0.004043
C74   C     C_1   0.322660 0.855035 0.842523 0.102084
C75   C     C_1   0.366742 0.775757 0.654297 -0.023676
C76   C     C_1   0.299354 0.892683 0.880418 0.100409
C77   C     C_R   0.955456 0.271627 0.049697 0.618341
C78   C     C_R   0.287735 0.463815 0.265387 0.253011
C79   C     C_R   0.274876 0.269793 0.065495 0.567413
C80   C     C_R   0.257593 0.958193 0.049937 0.561465
C81   C     C_R   0.953230 0.268641 0.921944 0.556256
C82   C     C_R   0.276559 0.265379 0.939412 0.611035
C83   C     C_R   0.262501 0.949445 0.923196 0.563316
C84   C     C_R   0.276233 0.452147 0.218308 0.245875
Cr1   Cr    Cr6+3 0.581000 0.584320 0.508140 1.024904
Cr2   Cr    Cr6+3 0.339110 0.576430 0.496080 1.022628
Cr3   Cr    Cr6+3 0.579910 0.339270 0.495810 1.092750
Cr4   Cr    Cr6+3 0.082090 0.079210 0.982490 1.092123
Cr5   Cr    Cr6+3 0.082460 0.324610 0.994920 1.082094
Cr6   Cr    Cr6+3 0.323630 0.087860 0.996130 1.106623
H1    H     H_    0.787971 0.202552 0.156976 0.166407
H2    H     H_    0.866023 0.140218 0.325590 0.139650
H3    H     H_    0.160758 0.930842 0.330395 0.125653
H4    H     H_    0.423476 0.943595 0.191838 0.180554
H5    H     H_    0.412078 0.961801 0.111858 0.183297
H6    H     H_    0.241884 0.522126 0.846689 0.192892
H7    H     H_    0.209619 0.516042 0.590466 0.170079
H8    H     H_    0.519499 0.231129 0.611629 0.169944
H9    H     H_    0.900044 0.433090 0.709814 0.132831
H10   H     H_    0.741233 0.235606 0.695314 0.177032
H11   H     H_    0.503485 0.805714 0.716209 0.174580
H12   H     H_    0.774382 0.510303 0.394401 0.187044
O1    O     O_R   0.688580 0.499770 0.460490 -0.517454
O2    O     O_R   0.348600 0.476260 0.536540 -0.496108
O3    O     O_R   0.494840 0.313840 0.539010 -0.506337
O4    O     O_R   0.672120 0.351750 0.545910 -0.489480
O5    O     O_3   0.500010 0.500010 0.500010 -0.286566
O6    O     O_R   0.167510 0.972920 0.030390 -0.493371
O7    O     O_R   0.990840 0.178580 0.027590 -0.484580
O8    O     O_R   0.972840 0.345510 0.038590 -0.487694
O9    O     O_R   0.181550 0.320660 0.045200 -0.483611
O10   O     O_R   0.346150 0.177650 0.050510 -0.491952
O11   O     O_R   0.314200 0.996600 0.036060 -0.512144
O12   O     O_R   0.480400 0.672610 0.462660 -0.482548
O13   O     O_R   0.168690 0.969990 0.933130 -0.487095
O14   O     O_R   0.991920 0.175870 0.937430 -0.475929
O15   O     O_R   0.974010 0.342590 0.941330 -0.498219
O16   O     O_R   0.182630 0.317940 0.955040 -0.468755
O17   O     O_R   0.347320 0.174720 0.953250 -0.445478
O18   O     O_R   0.315290 0.993890 0.945900 -0.458312
O19   O     O_3   0.162730 0.163890 0.991180 -0.292924
O20   O     O_R   0.315310 0.685650 0.451800 -0.492160
O21   O     O_R   0.346220 0.474990 0.446280 -0.520988
O22   O     O_R   0.492270 0.312460 0.441630 -0.455549
O23   O     O_R   0.669740 0.350480 0.455640 -0.444002
O24   O     O_R   0.691150 0.501150 0.557860 -0.503022
O25   O     O_R   0.482790 0.673890 0.552920 -0.495049
O26   O     O_R   0.317880 0.687030 0.549170 -0.501942
O27   O     O_3   0.216634 0.563713 0.286235 -0.546142
C85   C     C_3   0.161702 0.557887 0.321749 -0.002800
H13   H     H_    0.087453 0.637337 0.325585 0.144197
H14   H     H_    0.210201 0.551793 0.354013 0.133362
C86   C     C_3   0.122287 0.471936 0.314384 -0.264613
H15   H     H_    0.061646 0.489985 0.285217 0.228436
H16   H     H_    0.190595 0.389597 0.307794 0.143459
C87   C     C_3   0.071548 0.470775 0.356321 -0.436783
H17   H     H_    0.131007 0.454774 0.385834 0.145901
H18   H     H_    0.048430 0.405108 0.351492 0.191270
H19   H     H_    0.998013 0.549907 0.363139 0.180925
Cl1   Cl    Cl    0.778150 0.206444 0.061860 -0.606280
O28   O     O_3   0.146708 0.857460 0.084984 -0.539553
C88   C     C_3   0.034019 0.932620 0.082985 0.080321
H20   H     H_    0.008974 0.960369 0.048634 0.200088
H21   H     H_    0.011279 0.007299 0.106158 0.111445
C89   C     C_3   0.970228 0.874864 0.090827 -0.284650
H22   H     H_    0.984109 0.809933 0.063280 0.179465
H23   H     H_    0.000232 0.836059 0.122847 0.195518
C90   C     C_3   0.848503 0.952599 0.092099 -0.438968
H24   H     H_    0.832998 0.019900 0.118556 0.178858
H25   H     H_    0.805360 0.909036 0.099842 0.158738
H26   H     H_    0.815322 0.985830 0.058979 0.221260
O29   O     O_3   0.144255 0.860109 0.177347 -0.583094
C91   C     C_3   0.058281 0.945957 0.200964 -0.007282
H27   H     H_    0.999443 0.005334 0.177601 0.128210
H28   H     H_    0.087223 0.990302 0.227422 0.120072
C92   C     C_3   0.000146 0.898851 0.223588 -0.266736
H29   H     H_    0.994005 0.832943 0.201096 0.187429
H30   H     H_    0.048326 0.863226 0.254777 0.165157
C93   C     C_3   0.885610 0.985446 0.234980 -0.447102
H31   H     H_    0.888753 0.054696 0.255620 0.143808
H32   H     H_    0.848161 0.950888 0.253957 0.188557
H33   H     H_    0.833894 0.015135 0.203780 0.178959
O30   O     O_3   0.170619 0.857088 0.408455 -0.532185
C94   C     C_3   0.107521 0.811761 0.383963 0.003858
H34   H     H_    0.110704 0.748508 0.403498 0.152882
H35   H     H_    0.136628 0.771724 0.350190 0.128837
C95   C     C_3   0.989661 0.900303 0.378355 -0.245653
H36   H     H_    0.956729 0.931331 0.412031 0.229002
H37   H     H_    0.986832 0.968057 0.362129 0.190319
C96   C     C_3   0.918970 0.858085 0.349662 -0.477413
H38   H     H_    0.950455 0.826610 0.315787 0.148691
H39   H     H_    0.834568 0.925401 0.345711 0.208648
H40   H     H_    0.917645 0.792352 0.365871 0.142022
O31   O     O_3   0.561827 0.692032 0.394782 -0.546289
C97   C     C_3   0.595796 0.762381 0.421050 0.035107
H41   H     H_    0.660281 0.713659 0.446092 0.161981
H42   H     H_    0.529628 0.829730 0.440668 0.114668
C98   C     C_3   0.644045 0.808201 0.392012 -0.258334
H43   H     H_    0.708771 0.740442 0.372260 0.220115
H44   H     H_    0.579449 0.862197 0.368338 0.204400
C99   C     C_3   0.692199 0.873700 0.420892 -0.473438
H45   H     H_    0.629284 0.940567 0.441622 0.170035
H46   H     H_    0.722118 0.909801 0.398983 0.188591
H47   H     H_    0.761413 0.820452 0.443216 0.144423
O32   O     O_3   0.195443 0.540248 0.196534 -0.558132
C100  C     C_3   0.239196 0.577056 0.166544 0.025923
H48   H     H_    0.170282 0.648140 0.151243 0.179825
H49   H     H_    0.275292 0.516576 0.137926 0.130481
C101  C     C_3   0.320953 0.613736 0.189613 -0.248481
H50   H     H_    0.277772 0.689858 0.211208 0.218890
H51   H     H_    0.381752 0.552488 0.211476 0.140654
C102  C     C_3   0.382961 0.628837 0.155130 -0.445924
H52   H     H_    0.440107 0.548593 0.139041 0.166359
H53   H     H_    0.430593 0.668740 0.171882 0.146864
H54   H     H_    0.326161 0.679107 0.128615 0.204123
O33   O     O_3   0.523795 0.734069 0.306799 -0.530103
C103  C     C_3   0.526069 0.644597 0.278288 0.040893
H55   H     H_    0.591915 0.618676 0.255171 0.195992
H56   H     H_    0.449741 0.668358 0.256816 0.110026
C104  C     C_3   0.549035 0.547815 0.304361 -0.258150
H57   H     H_    0.611445 0.538739 0.331796 0.241393
H58   H     H_    0.473897 0.563500 0.319564 0.144575
C105  C     C_3   0.589744 0.441295 0.274680 -0.447998
H59   H     H_    0.524316 0.440972 0.250623 0.140977
H60   H     H_    0.617338 0.372885 0.295970 0.193861
H61   H     H_    0.658669 0.428153 0.255702 0.188309
Cl2   Cl    Cl    0.218354 0.507915 0.937806 -0.547161
Cl3   Cl    Cl    0.124544 0.569072 0.676112 -0.621862
O34   O     O_3   0.353494 0.176514 0.781390 -0.463986
C106  C     C_3   0.260455 0.186708 0.753864 0.032186
H62   H     H_    0.287044 0.155442 0.719234 0.176155
H63   H     H_    0.194725 0.272221 0.751760 0.113664
C107  C     C_3   0.214072 0.119228 0.769610 -0.247311
H64   H     H_    0.281332 0.037443 0.776129 0.222277
H65   H     H_    0.172866 0.158976 0.801250 0.184046
C108  C     C_3   0.132818 0.106841 0.734393 -0.489233
H66   H     H_    0.065472 0.187517 0.726404 0.167517
H67   H     H_    0.098551 0.060309 0.747364 0.167893
H68   H     H_    0.173970 0.062669 0.703237 0.139013
Cl4   Cl    Cl    0.375924 0.080952 0.864536 -0.498307
Cl5   Cl    Cl    0.521245 0.203572 0.702996 -0.515738
Cl6   Cl    Cl    0.508367 0.140425 0.188835 -0.572606
O35   O     O_3   0.949697 0.417143 0.798477 -0.583013
C109  C     C_3   0.903322 0.530675 0.795950 0.012298
H69   H     H_    0.885265 0.570320 0.830511 0.190300
H70   H     H_    0.824640 0.567704 0.775294 0.147125
C110  C     C_3   0.985818 0.555969 0.778483 -0.272406
H71   H     H_    0.059937 0.526958 0.801626 0.186101
H72   H     H_    0.009521 0.512601 0.744853 0.194226
C111  C     C_3   0.939700 0.677530 0.775195 -0.390161
H73   H     H_    0.866829 0.708035 0.751293 0.175710
H74   H     H_    0.001981 0.693016 0.762928 0.241591
H75   H     H_    0.917086 0.722372 0.808675 0.192380
Cl7   Cl    Cl    0.763040 0.174706 0.783992 -0.487894
O36   O     O_3   0.195931 0.766537 0.693434 -0.480766
C112  C     C_3   0.120561 0.855346 0.668992 0.033004
H76   H     H_    0.113470 0.823144 0.633786 0.171679
H77   H     H_    0.145522 0.918714 0.667457 0.092869
C113  C     C_3   0.008919 0.907271 0.688527 -0.227076
H78   H     H_    0.982853 0.844497 0.688852 0.231020
H79   H     H_    0.014205 0.940990 0.723580 0.215328
C114  C     C_3   0.923718 0.998685 0.661180 -0.475785
H80   H     H_    0.946287 0.064251 0.661848 0.147711
H81   H     H_    0.843548 0.033049 0.675786 0.200286
H82   H     H_    0.916378 0.967408 0.625856 0.158419
Cl8   Cl    Cl    0.156947 0.796697 0.790261 -0.578441
Cl9   Cl    Cl    0.533842 0.832540 0.810826 -0.491439
Cl10  Cl    Cl    0.555650 0.176548 0.292959 -0.545901
O37   O     O_3   0.036269 0.365850 0.122822 -0.566368
C115  C     C_3   0.988956 0.475454 0.141090 0.052133
H83   H     H_    0.041738 0.482492 0.170364 0.208248
H84   H     H_    0.905387 0.507152 0.152758 0.147709
C116  C     C_3   0.981851 0.547314 0.105782 -0.244791
H85   H     H_    0.064998 0.525316 0.096912 0.179519
H86   H     H_    0.935838 0.534718 0.075093 0.199779
C117  C     C_3   0.923266 0.666757 0.122709 -0.490336
H87   H     H_    0.841782 0.689498 0.133799 0.166321
H88   H     H_    0.911474 0.715853 0.094778 0.147669
H89   H     H_    0.971948 0.684473 0.151041 0.167040
O38   O     O_3   0.016397 0.339981 0.211441 -0.545687
C118  C     C_3   0.129318 0.267782 0.216483 0.022780
H90   H     H_    0.171337 0.317936 0.223014 0.152946
H91   H     H_    0.164285 0.211570 0.186107 0.140447
C119  C     C_3   0.153099 0.202242 0.256908 -0.288736
H92   H     H_    0.106388 0.256626 0.285460 0.197538
H93   H     H_    0.126538 0.139505 0.247872 0.143503
C120  C     C_3   0.273934 0.147250 0.271842 -0.446457
H94   H     H_    0.323422 0.097079 0.243395 0.187166
H95   H     H_    0.289134 0.094684 0.299104 0.166709
H96   H     H_    0.300096 0.208622 0.284851 0.167001
Cl11  Cl    Cl    0.834135 0.495449 0.306514 -0.652843
Cl12  Cl    Cl    0.796005 0.153829 0.409990 -0.612773

loop_
_geom_bond_atom_site_label_1
_geom_bond_atom_site_label_2
_ccdc_geom_bond_type
Cr5   O9    S    
C58   C62   A    
C55   C56   S    
C63   C65   T    
Cr4   O14   S    
C118  H90   S    
C101  C102  S    
C11   C13   A    
C73   C74   S    
C35   C36   A    
C90   H26   S    
Cr6   O10   S    
C105  H59   S    
Cr2   O2    S    
C109  H69   S    
C34   C66   S    
C111  H74   S    
C89   H22   S    
C84   O32   S    
C95   H37   S    
C31   C32   A    
C107  H64   S    
C103  C104  S    
C40   C46   A    
C105  H60   S    
C119  H92   S    
O37   C115  S    
C33   C39   A    
C74   C76   T    
C79   O10   A    
Cr3   O4    S    
C18   C24   A    
C30   O30   S    
C21   C22   T    
C28   C29   A    
C45   O2    A    
C78   O27   S    
C90   H25   S    
C87   H19   S    
C116  H85   S    
C16   O38   S    
C120  H96   S    
O33   C103  S    
C32   C39   A    
C16   C17   A    
C96   H38   S    
C26   O31   S    
C115  H84   S    
C49   C54   A    
C57   H9    S    
C117  H89   S    
C81   O15   A    
C44   Cl3   S    
C112  H76   S    
C97   H42   S    
C111  H75   S    
C101  H51   S    
C18   C19   A    
C41   C42   A    
Cr6   O11   S    
C17   O37   S    
C103  H56   S    
C110  H71   S    
C1    O20   A    
O31   C97   S    
C11   H2    S    
C43   C53   S    
C23   O1    A    
O30   C94   S    
C50   O34   S    
C44   C46   A    
C104  H57   S    
C117  H88   S    
Cr2   O20   S    
C86   C87   S    
C114  H81   S    
O36   C112  S    
C93   H32   S    
C69   C73   A    
C70   C71   A    
C56   O24   A    
C91   H28   S    
C42   Cl5   S    
C9    C10   A    
Cr1   O1    S    
C2    Cl6   S    
C68   C72   A    
C70   Cl9   S    
C23   O23   A    
C115  C116  S    
C107  H65   S    
C71   H11   S    
C59   C60   A    
C91   H27   S    
C10   Cl12  S    
C13   C14   A    
C55   C64   T    
C1    C25   S    
C88   C89   S    
C94   H34   S    
Cr1   O24   S    
C101  H50   S    
C82   O17   A    
C4    C7    S    
C119  C120  S    
Cr3   O22   S    
C33   H5    S    
C76   C83   S    
C89   H23   S    
C45   O3    A    
O34   C106  S    
C97   C98   S    
C57   C58   A    
C99   H46   S    
C113  H78   S    
C40   C45   S    
C105  H61   S    
C108  H68   S    
C17   C24   A    
C88   H20   S    
C49   Cl4   S    
Cr2   O26   S    
C51   C52   S    
C114  H82   S    
C47   C48   A    
C83   O13   A    
C108  H66   S    
O35   C109  S    
C87   H18   S    
C1    O12   A    
C47   H6    S    
C95   H36   S    
C118  H91   S    
C5    C84   A    
C14   Cl11  S    
C34   O25   A    
C47   C51   A    
C12   C67   S    
C115  H83   S    
C99   H45   S    
C81   O14   A    
C7    C67   T    
Cr5   O8    S    
C77   O8    A    
C60   C61   A    
C92   H29   S    
C83   O18   A    
C48   C54   A    
C61   C64   S    
C85   H14   S    
C43   C44   A    
C102  H54   S    
C4    C78   A    
C62   C63   S    
C68   O36   S    
Cr6   O18   S    
C77   O7    A    
C118  C119  S    
C69   Cl8   S    
C65   C81   S    
C93   H31   S    
Cr3   O3    S    
C119  H93   S    
C28   C38   S    
C16   C20   A    
Cr2   O21   S    
C117  H87   S    
C70   C73   A    
C14   C15   A    
C50   C51   A    
C26   C27   A    
C93   H33   S    
C98   H44   S    
C113  H79   S    
C80   O11   A    
C91   C92   S    
C18   Cl1   S    
C56   O4    A    
C32   O28   S    
Cr4   O7    S    
C34   O26   A    
C40   C41   A    
C110  H72   S    
C46   H7    S    
Cr5   O15   S    
C49   C50   A    
C37   C38   T    
C106  H63   S    
C86   H15   S    
Cr6   O19   S    
C88   H21   S    
Cr1   O25   S    
C59   Cl7   S    
C42   C43   A    
C82   O16   A    
C100  H49   S    
C3    C4    A    
C109  C110  S    
C54   C82   S    
C89   C90   S    
C52   C53   T    
C116  H86   S    
O27   C85   S    
C99   H47   S    
C25   C30   A    
Cr4   O13   S    
C107  C108  S    
Cr1   O12   S    
C59   C62   A    
Cr5   O19   S    
Cr3   O23   S    
C114  H80   S    
C41   H8    S    
C68   C69   A    
C92   C93   S    
C9    C23   S    
C108  H67   S    
O38   C118  S    
C60   H10   S    
C85   C86   S    
C109  H70   S    
C116  C117  S    
C6    C8    T    
C58   O35   S    
C57   C61   A    
C27   O33   S    
C106  C107  S    
C80   O6    A    
C95   C96   S    
C112  C113  S    
C79   O9    A    
Cr2   O5    S    
C120  H94   S    
C102  H52   S    
C35   H4    S    
C19   C20   A    
C92   H30   S    
C2    C3    A    
C25   C26   A    
C71   C72   A    
C97   H41   S    
O28   C88   S    
C39   C80   S    
C8    C79   S    
C29   H3    S    
C31   O29   S    
C120  H95   S    
C72   C75   S    
O32   C100  S    
C5    C6    S    
C12   O21   A    
C96   H39   S    
C36   C37   S    
C100  C101  S    
C104  C105  S    
Cr4   O6    S    
C66   C75   T    
C48   Cl2   S    
C94   H35   S    
C33   C35   A    
C112  H77   S    
C13   C22   S    
C85   H13   S    
C113  C114  S    
C103  H55   S    
C90   H24   S    
C94   C95   S    
C15   H12   S    
C9    C15   A    
C111  H73   S    
Cr6   O17   S    
Cr5   O16   S    
C98   C99   S    
C19   H1    S    
C10   C11   A    
C29   C30   A    
C2    C5    A    
C78   C84   A    
C24   C77   S    
C110  C111  S    
Cr3   O5    S    
C20   C21   S    
C104  H58   S    
C106  H62   S    
C3    Cl10  S    
C27   C28   A    
C86   H16   S    
C31   C36   A    
C87   H17   S    
O29   C91   S    
C100  H48   S    
Cr1   O5    S    
C12   O22   A    
Cr4   O19   S    
C102  H53   S    
C98   H43   S    
C96   H40   S    
