data_mof_unit_56841.cif
_audit_creation_date              2012-12-10T20:31:00-0500
_audit_creation_method            fapswitch 2.2
_symmetry_space_group_name_H-M    P1
_symmetry_Int_Tables_number       1
_space_group_crystal_system       triclinic
_cell_length_a                    14.949717
_cell_length_b                    10.669984
_cell_length_c                    9.867587
_cell_angle_alpha                 90.020745
_cell_angle_beta                  90.078558
_cell_angle_gamma                 89.85215
_cell_volume                      1574.00396396

loop_
_atom_site_label
_atom_site_type_symbol
_atom_type_description
_atom_site_fract_x
_atom_site_fract_y
_atom_site_fract_z
_atom_type_partial_charge
C1    C     C_R   0.502856 0.259959 0.500060 0.879896
C2    C     C_R   0.907585 0.590552 0.406220 0.106462
C3    C     C_R   0.952261 0.361857 0.686400 -0.201941
C4    C     C_R   0.045071 0.359433 0.687158 -0.223845
C5    C     C_R   0.092504 0.431596 0.593586 0.127202
C6    C     C_R   0.046828 0.507218 0.498171 0.073391
C7    C     C_R   0.094664 0.578515 0.402421 0.125312
C8    C     C_R   0.049591 0.653904 0.309005 -0.230585
C9    C     C_R   0.956909 0.660478 0.311049 -0.212531
C10   C     C_R   0.185100 0.429718 0.593682 -0.274623
C11   C     C_R   0.231502 0.500828 0.498707 -0.061936
C12   C     C_R   0.326923 0.499485 0.499794 0.892699
C13   C     C_R   0.187165 0.573665 0.402351 -0.273176
C14   C     C_R   0.514549 0.063841 0.623421 0.140227
C15   C     C_R   0.517279 0.128518 0.501029 -0.106026
C16   C     C_R   0.537377 0.064624 0.380541 -0.224127
C17   C     C_R   0.537577 0.934957 0.380582 -0.232680
C18   C     C_R   0.517499 0.871282 0.501052 -0.104933
C19   C     C_R   0.514623 0.936065 0.623410 0.139167
C20   C     C_3   0.448391 0.929073 0.736560 -0.473209
C21   C     C_3   0.448340 0.071142 0.736622 -0.497813
C22   C     C_R   0.421417 0.496967 0.071156 0.217056
C23   C     C_R   0.502916 0.740004 0.500040 0.869322
C24   C     C_R   0.577365 0.513524 0.072006 -0.143918
C25   C     C_R   0.577372 0.513514 0.928243 -0.142689
C26   C     C_R   0.421365 0.497259 0.928670 0.228903
C27   C     C_3   0.351948 0.397263 0.923006 -0.524530
C28   C     C_3   0.352401 0.396592 0.076895 -0.499652
C29   C     C_R   0.672988 0.505236 0.500085 0.896483
C30   C     C_R   0.813735 0.597420 0.411830 0.137554
C31   C     C_R   0.768570 0.515320 0.500758 -0.073720
C32   C     C_R   0.814444 0.438752 0.591736 -0.319111
C33   C     C_R   0.906584 0.437650 0.593200 0.120308
C34   C     C_R   0.953543 0.511665 0.498868 0.008777
H1    H     H_    0.547121 0.885719 0.285630 0.173584
H2    H     H_    0.383406 0.887892 0.704609 0.203146
H3    H     H_    0.477963 0.887902 0.829964 0.206155
H4    H     H_    0.383311 0.112720 0.704777 0.197987
H5    H     H_    0.477957 0.112038 0.830050 0.205776
H6    H     H_    0.640042 0.522498 0.125757 0.162045
H7    H     H_    0.640060 0.522563 0.874723 0.158387
H8    H     H_    0.287937 0.432417 0.879933 0.203803
H9    H     H_    0.377286 0.308805 0.877345 0.210455
H10   H     H_    0.288617 0.430721 0.121692 0.208023
H11   H     H_    0.777883 0.378229 0.660531 0.160107
H12   H     H_    0.378584 0.307895 0.121170 0.214754
H13   H     H_    0.916173 0.304861 0.758851 0.145533
H14   H     H_    0.079702 0.301021 0.760337 0.146378
H15   H     H_    0.224866 0.628477 0.329568 0.150370
H16   H     H_    0.086074 0.708428 0.234788 0.147977
H17   H     H_    0.924759 0.719589 0.236357 0.162466
H18   H     H_    0.546720 0.113707 0.285531 0.172739
N1    N     N_R   0.499390 0.499140 0.142800 -0.108852
N2    N     N_R   0.499390 0.499180 0.857150 -0.108921
O1    O     O_R   0.500010 0.316790 0.614690 -0.616539
O2    O     O_R   0.500000 0.316760 0.385350 -0.621108
O3    O     O_R   0.367850 0.499990 0.614680 -0.620999
O4    O     O_R   0.367840 0.499950 0.385340 -0.621172
O5    O     O_R   0.500000 0.683240 0.614650 -0.613925
O6    O     O_R   0.499990 0.683210 0.385310 -0.627740
O7    O     O_R   0.632160 0.500050 0.614660 -0.633263
O8    O     O_R   0.632150 0.500010 0.385320 -0.621699
Zn1   Zn    Zn3+2 0.500010 0.500020 0.653130 0.941825
Zn2   Zn    Zn3+2 0.499990 0.499980 0.346870 0.939296
C35   C     C_3   0.763718 0.695786 0.329729 -0.920240
H19   H     H_    0.693488 0.709127 0.362113 0.250120
H20   H     H_    0.795554 0.788805 0.343833 0.235115
H21   H     H_    0.764777 0.670293 0.220657 0.235037
H22   H     H_    0.221154 0.371660 0.665673 0.141664

loop_
_geom_bond_atom_site_label_1
_geom_bond_atom_site_label_2
_ccdc_geom_bond_type
C25   H7    S    
C11   C12   S    
O2    Zn2   S    
C24   C25   A    
O3    Zn1   S    
C6    C7    A    
C1    C15   S    
C27   H9    S    
C32   H11   S    
O5    Zn1   S    
C19   C20   S    
C21   H5    S    
C7    C13   A    
C30   C31   A    
O6    Zn2   S    
C35   H21   S    
C12   O4    A    
C32   C33   A    
C2    C34   A    
C17   C18   A    
C1    O1    A    
C5    C10   A    
C29   C31   S    
C22   C28   S    
C4    C5    A    
C25   N2    A    
C23   O5    A    
C20   H3    S    
C11   C13   A    
C27   H8    S    
C28   H12   S    
C26   C27   S    
C23   O6    A    
C6    C34   A    
C13   H15   S    
C12   O3    A    
C26   N2    A    
C14   C21   S    
C3    H13   S    
C24   H6    S    
C1    O2    A    
C33   C34   A    
C22   N1    A    
C21   H4    S    
O4    Zn2   S    
C5    C6    A    
N1    Zn2   S    
C29   O7    A    
C30   C35   S    
C16   C17   A    
C10   C11   A    
C3    C33   A    
C22   C26   A    
C15   C16   A    
C20   H2    S    
C10   H22   S    
C8    H16   S    
C7    C8    A    
C2    C30   A    
C20   C21   S    
C16   H18   S    
C35   H19   S    
N2    Zn1   S    
C4    H14   S    
C27   C28   S    
O7    Zn1   S    
C14   C15   A    
C18   C19   A    
O8    Zn2   S    
C17   H1    S    
C24   N1    A    
C29   O8    A    
C2    C9    A    
C14   C19   A    
C28   H10   S    
C31   C32   A    
C3    C4    A    
C18   C23   S    
O1    Zn1   S    
C8    C9    A    
C35   H20   S    
C9    H17   S    
