data_mof_unit_37820.cif
_audit_creation_date              2012-12-10T17:25:36-0500
_audit_creation_method            fapswitch 2.2
_symmetry_space_group_name_H-M    P1
_symmetry_Int_Tables_number       1
_space_group_crystal_system       triclinic
_cell_length_a                    10.193219
_cell_length_b                    10.752177
_cell_length_c                    23.388759
_cell_angle_alpha                 90.470123
_cell_angle_beta                  82.167128
_cell_angle_gamma                 95.673614
_cell_volume                      2526.99812282

loop_
_atom_site_label
_atom_site_type_symbol
_atom_type_description
_atom_site_fract_x
_atom_site_fract_y
_atom_site_fract_z
_atom_type_partial_charge
C1    C     C_R   0.555917 0.732600 0.493661 0.956407
C2    C     C_R   0.381728 0.476035 0.302025 -0.084561
C3    C     C_R   0.498131 0.661986 0.752751 0.009090
C4    C     C_R   0.379607 0.495158 0.242789 0.005253
C5    C     C_R   0.489231 0.557634 0.790056 0.231844
C6    C     C_R   0.500488 0.531258 0.207057 0.240755
C7    C     C_2   0.587315 0.865128 0.483502 -0.371640
C8    C     C_2   0.412274 0.134393 0.494925 -0.347206
C9    C     C_2   0.488342 0.932846 0.475765 -0.160190
C10   C     C_2   0.510769 0.066320 0.474468 -0.169397
C11   C     C_2   0.920187 0.500210 0.511969 -0.067406
C12   C     C_R   0.443919 0.267232 0.501400 0.952774
C13   C     C_2   0.059259 0.467388 0.515937 -0.051033
C14   C     C_R   0.501319 0.500518 0.610069 0.898904
C15   C     C_R   0.499429 0.501731 0.389368 0.860568
C16   C     C_R   0.456020 0.437026 0.117009 0.534803
C17   C     C_R   0.571491 0.647526 0.875543 0.535557
C18   C     C_R   0.553302 0.647649 0.117164 0.493784
C19   C     C_R   0.382766 0.496506 0.885330 0.490554
C20   C     C_R   0.559705 0.654900 0.056649 -0.058193
C21   C     C_R   0.393525 0.478660 0.943900 -0.056286
C22   C     C_R   0.489092 0.557190 0.028943 -0.037309
C23   C     C_R   0.491012 0.436496 0.767316 -0.158325
C24   C     C_R   0.480781 0.565546 0.969702 -0.036035
C25   C     C_R   0.429085 0.449657 0.060228 -0.059506
C26   C     C_R   0.562141 0.659080 0.935855 -0.061714
C27   C     C_R   0.631017 0.756003 0.023350 -0.066818
C28   C     C_R   0.323987 0.376202 0.976596 -0.063426
C29   C     C_R   0.634819 0.756299 0.962931 -0.061713
C30   C     C_R   0.345104 0.359617 0.034111 -0.061841
C31   C     C_1   0.707741 0.856662 0.049604 0.280614
C32   C     C_1   0.239081 0.281213 0.950746 0.260139
C33   C     C_1   0.142495 0.675447 0.511517 0.304115
C34   C     C_R   0.617990 0.558858 0.231076 -0.158861
C35   C     C_1   0.879219 0.348774 0.441901 0.313045
C36   C     C_1   0.706103 0.861862 0.929796 0.272204
C37   C     C_1   0.273073 0.253448 0.066558 0.282824
C38   C     C_R   0.462776 0.286643 0.688368 0.087419
C39   C     C_R   0.338781 0.220844 0.707654 -0.135018
C40   C     C_R   0.304244 0.103388 0.685062 -0.131291
C41   C     C_R   0.393177 0.050919 0.643239 -0.087292
C42   C     C_R   0.518438 0.114195 0.625180 -0.119965
C43   C     C_R   0.553550 0.231488 0.647793 -0.166333
C44   C     C_R   0.738472 0.611176 0.313474 0.146178
C45   C     C_R   0.492509 0.415673 0.708660 -0.056502
C46   C     C_R   0.736181 0.721937 0.345761 -0.104294
C47   C     C_R   0.850516 0.772968 0.367734 -0.106985
C48   C     C_R   0.967737 0.714308 0.357332 -0.116194
C49   C     C_R   0.970785 0.604808 0.324819 -0.124121
C50   C     C_R   0.856578 0.552997 0.303051 -0.128524
C51   C     C_1   0.544556 0.745928 0.652884 0.169630
C52   C     C_1   0.264341 0.417501 0.337093 0.170588
C53   C     C_R   0.476589 0.788931 0.776140 0.127945
C54   C     C_R   0.356395 0.808671 0.810624 -0.175786
C55   C     C_R   0.334247 0.927750 0.832009 -0.129551
C56   C     C_R   0.617142 0.556852 0.290504 -0.054106
C57   C     C_R   0.431644 0.028090 0.819162 -0.102072
C58   C     C_R   0.551615 0.009456 0.785073 -0.120470
C59   C     C_R   0.574421 0.890465 0.763774 -0.049740
C60   C     C_R   0.251625 0.483644 0.218114 0.090729
C61   C     C_R   0.210703 0.588152 0.192217 -0.179441
C62   C     C_R   0.093681 0.577458 0.166800 -0.120698
C63   C     C_R   0.016676 0.462506 0.166938 -0.138864
C64   C     C_R   0.056175 0.358201 0.192802 -0.149105
C65   C     C_R   0.173168 0.368427 0.218258 -0.068404
C66   C     C_1   0.075489 0.336679 0.522158 0.262771
C67   C     C_R   0.508204 0.518845 0.671187 -0.114416
C68   C     C_1   0.869480 0.592979 0.551865 0.287347
C69   C     C_R   0.499501 0.510891 0.326560 -0.141666
C70   C     C_R   0.516914 0.641688 0.692794 -0.082925
H1    H     H_    0.484367 0.356943 0.796118 0.150334
H2    H     H_    0.587749 0.073522 0.592928 0.165375
H3    H     H_    0.650335 0.279957 0.633062 0.152768
H4    H     H_    0.645853 0.768234 0.354013 0.118977
H5    H     H_    0.848361 0.858075 0.392708 0.135642
H6    H     H_    0.056276 0.753840 0.374292 0.143695
H7    H     H_    0.061691 0.560261 0.316414 0.154882
H8    H     H_    0.859489 0.467125 0.278672 0.143720
H9    H     H_    0.279537 0.732008 0.820566 0.163356
H10   H     H_    0.241296 0.942338 0.858388 0.158544
H11   H     H_    0.414082 0.120280 0.835560 0.141182
H12   H     H_    0.709681 0.588024 0.203212 0.160580
H13   H     H_    0.626998 0.087258 0.775161 0.139885
H14   H     H_    0.668562 0.877298 0.737983 0.147609
H15   H     H_    0.269805 0.677689 0.191556 0.161137
H16   H     H_    0.062777 0.658281 0.146923 0.152141
H17   H     H_    0.926069 0.454391 0.147264 0.142628
H18   H     H_    0.996486 0.269177 0.192838 0.157296
H19   H     H_    0.203893 0.286172 0.237059 0.160183
H20   H     H_    0.612169 0.108040 0.461826 0.196509
H21   H     H_    0.386914 0.890887 0.475677 0.205212
H22   H     H_    0.311508 0.091833 0.507976 0.175863
H23   H     H_    0.688524 0.907620 0.483827 0.157705
H24   H     H_    0.267658 0.261939 0.739070 0.165431
H25   H     H_    0.207811 0.053876 0.699360 0.145904
H26   H     H_    0.364450 0.961496 0.624725 0.155736
N1    N     N_R   0.504581 0.538772 0.145578 -0.342669
N2    N     N_1   0.215466 0.168755 0.092160 -0.177861
N3    N     N_1   0.569306 0.828493 0.620686 -0.236047
N4    N     N_1   0.171335 0.369914 0.365319 -0.198387
N5    N     N_1   0.085551 0.231231 0.527442 -0.217843
N6    N     N_1   0.831029 0.668035 0.583933 -0.199066
N7    N     N_R   0.478367 0.571440 0.851634 -0.341939
N8    N     N_2   0.842710 0.448880 0.476480 -0.163466
N9    N     N_2   0.157290 0.551120 0.523520 -0.163148
N10   N     N_1   0.769122 0.937041 0.070250 -0.160641
N11   N     N_1   0.171587 0.205223 0.930357 -0.186078
N12   N     N_1   0.130353 0.778624 0.501515 -0.268990
N13   N     N_1   0.907531 0.264724 0.413211 -0.233277
N14   N     N_1   0.762701 0.946135 0.903547 -0.176366
O1    O     O_R   0.431060 0.692470 0.504730 -0.620437
O2    O     O_2   0.675587 0.706661 0.841193 -0.564337
O3    O     O_2   0.592951 0.748028 0.147721 -0.560020
O4    O     O_2   0.280093 0.438326 0.861500 -0.568774
O5    O     O_R   0.568940 0.307530 0.495270 -0.627242
O6    O     O_R   0.651120 0.659650 0.489640 -0.607139
O7    O     O_R   0.348880 0.340350 0.510360 -0.600721
O8    O     O_R   0.389950 0.516450 0.591390 -0.602142
O9    O     O_R   0.610050 0.483550 0.408610 -0.605401
O10   O     O_R   0.610020 0.483630 0.576300 -0.625974
O11   O     O_R   0.389980 0.516370 0.423700 -0.612645
O12   O     O_2   0.434364 0.324893 0.143918 -0.559287
Zn1   Zn    Zn3+2 0.353060 0.521920 0.510080 0.975409
Zn2   Zn    Zn3+2 0.646940 0.478080 0.489920 0.961579

loop_
_geom_bond_atom_site_label_1
_geom_bond_atom_site_label_2
_ccdc_geom_bond_type
C43   H3    S    
C5    N7    S    
C34   C56   A    
C23   C45   A    
C27   C29   A    
C3    C53   S    
C41   C42   A    
C48   H6    S    
C9    H21   S    
C53   C59   A    
C53   C54   A    
C65   H19   S    
C62   H16   S    
C29   C36   S    
C17   C26   A    
C19   C21   A    
C68   N6    T    
C38   C39   A    
C61   H15   S    
C16   N1    A    
C41   H26   S    
C16   C25   A    
N9    Zn1   S    
C16   O12   S    
C38   C45   S    
C46   C47   A    
C19   N7    A    
C49   H7    S    
C14   O8    A    
C22   C25   A    
C45   C67   A    
C14   C67   S    
C11   N8    D    
C8    H22   S    
C1    O6    A    
C2    C69   A    
C15   O11   A    
C9    C10   S    
C18   C20   A    
C35   N13   T    
C12   O5    A    
C66   N5    T    
C33   N12   T    
C15   C69   S    
C50   H8    S    
C18   O3    S    
C37   N2    T    
C44   C46   A    
C13   C66   S    
C51   N3    T    
C7    H23   S    
C27   C31   S    
C6    N1    S    
C23   H1    S    
C28   C32   S    
C3    C70   A    
C33   N9    S    
C59   H14   S    
C13   N9    D    
C35   N8    S    
C39   C40   A    
C19   O4    S    
C58   C59   A    
O9    Zn2   S    
O1    Zn1   S    
C52   N4    T    
C6    C34   A    
C30   C37   S    
C60   C61   A    
C2    C4    A    
C39   H24   S    
C62   C63   A    
C44   C56   S    
C47   C48   A    
C5    C23   A    
C8    C12   S    
C4    C60   S    
C42   H2    S    
C51   C70   S    
C2    C52   S    
C4    C6    A    
C48   C49   A    
C18   N1    A    
C21   C28   A    
C20   C22   A    
C60   C65   A    
C49   C50   A    
C14   O10   A    
C55   C57   A    
C36   N14   T    
C31   N10   T    
C22   C24   A    
C42   C43   A    
C40   H25   S    
C17   O2    S    
C46   H4    S    
C11   C68   S    
C54   H9    S    
C44   C50   A    
C25   C30   A    
C7    C9    D    
C54   C55   A    
C40   C41   A    
O5    Zn2   S    
O6    Zn2   S    
C63   H17   S    
C1    C7    S    
C24   C26   A    
C3    C5    A    
N8    Zn2   S    
C20   C27   A    
C34   H12   S    
C67   C70   A    
C64   C65   A    
C28   C30   A    
C17   N7    A    
C47   H5    S    
C38   C43   A    
C58   H13   S    
C1    O1    A    
C55   H10   S    
C11   C13   S    
C57   C58   A    
C15   O9    A    
C57   H11   S    
O8    Zn1   S    
O7    Zn1   S    
C61   C62   A    
O11   Zn1   S    
C63   C64   A    
C10   H20   S    
C26   C29   A    
C8    C10   D    
C56   C69   A    
C21   C24   A    
C12   O7    A    
C32   N11   T    
C64   H18   S    
O10   Zn2   S    
