data_mof_unit_45836.cif
_audit_creation_date              2012-12-11T14:58:31-0500
_audit_creation_method            fapswitch 2.2
_symmetry_space_group_name_H-M    P1
_symmetry_Int_Tables_number       1
_space_group_crystal_system       triclinic
_cell_length_a                    10.972285
_cell_length_b                    10.919385
_cell_length_c                    18.742081
_cell_angle_alpha                 90.412306
_cell_angle_beta                  90.740894
_cell_angle_gamma                 60.031628
_cell_volume                      1945.11622463

loop_
_atom_site_label
_atom_site_type_symbol
_atom_type_description
_atom_site_fract_x
_atom_site_fract_y
_atom_site_fract_z
_atom_type_partial_charge
C1    C     C_R   0.359259 0.773004 0.397914 0.538277
C2    C     C_R   0.618165 0.134785 0.159252 0.063198
C3    C     C_R   0.363789 0.339631 0.159385 -0.002338
C4    C     C_R   0.505857 0.272144 0.266865 -0.158710
C5    C     C_R   0.495136 0.254400 0.194249 -0.036435
C6    C     C_R   0.054958 0.696538 0.298703 -0.145873
C7    C     C_R   0.942458 0.787068 0.342993 0.083676
C8    C     C_R   0.665825 0.995706 0.182455 -0.038011
C9    C     C_R   0.774990 0.881152 0.146917 -0.082573
C10   C     C_R   0.250833 0.446142 0.197577 -0.148573
C11   C     C_R   0.259336 0.456691 0.271167 -0.015992
C12   C     C_R   0.414694 0.377818 0.382578 0.544811
C13   C     C_R   0.903033 0.729112 0.399525 0.258913
C14   C     C_R   0.971573 0.581124 0.407135 -0.102283
C15   C     C_R   0.078457 0.493009 0.361110 -0.098520
C16   C     C_R   0.127001 0.550147 0.309655 0.012651
C17   C     C_R   0.389754 0.368010 0.306331 -0.002084
C18   C     C_R   0.954396 0.284385 0.308350 -0.152134
C19   C     C_R   0.984300 0.275987 0.236248 -0.125600
C20   C     C_R   0.874411 0.332257 0.185734 0.041743
C21   C     C_R   0.734535 0.404870 0.206712 -0.157730
C22   C     C_R   0.704809 0.418191 0.278923 -0.135769
C23   C     C_R   0.777802 0.378403 0.403239 0.548747
C24   C     C_R   0.814719 0.356325 0.329352 0.041327
C25   C     C_R   0.470757 0.794981 0.288600 -0.130041
C26   C     C_R   0.459132 0.819991 0.215424 -0.156669
C27   C     C_R   0.325778 0.885226 0.183946 0.026319
C28   C     C_R   0.205104 0.937132 0.226539 -0.129931
C29   C     C_R   0.216558 0.915283 0.298796 -0.146420
C30   C     C_R   0.348559 0.836335 0.329248 0.024968
C31   C     C_R   0.456659 0.277647 0.715717 -0.145517
C32   C     C_R   0.439966 0.278267 0.787812 -0.142358
C33   C     C_R   0.306004 0.331347 0.815003 0.003040
C34   C     C_R   0.343225 0.772875 0.603309 0.541444
C35   C     C_R   0.187000 0.392175 0.769841 -0.145394
C36   C     C_R   0.202750 0.393761 0.695967 -0.015011
C37   C     C_R   0.340255 0.334437 0.669130 -0.009059
C38   C     C_R   0.706497 0.495986 0.737906 -0.110070
C39   C     C_R   0.732246 0.475939 0.810630 -0.133764
C40   C     C_R   0.796263 0.339484 0.839497 0.014564
C41   C     C_R   0.814626 0.226796 0.796165 -0.143120
C42   C     C_R   0.787793 0.246788 0.722954 -0.142135
C43   C     C_R   0.736302 0.381807 0.693180 0.038820
C44   C     C_R   0.193573 0.849585 0.708243 -0.099312
C45   C     C_R   0.371141 0.350154 0.596162 0.531511
C46   C     C_R   0.184123 0.856820 0.781741 0.244156
C47   C     C_R   0.294631 0.853966 0.822294 0.035848
C48   C     C_R   0.412677 0.843268 0.787727 -0.182181
C49   C     C_R   0.420381 0.836365 0.714162 -0.165446
C50   C     C_R   0.314735 0.831177 0.674614 -0.009485
C51   C     C_R   0.910891 0.316072 0.111762 0.533014
C52   C     C_R   0.330012 0.296016 0.091420 0.537819
C53   C     C_R   0.302227 0.908804 0.107943 0.541670
C54   C     C_R   0.875449 0.312449 0.906715 0.545875
C55   C     C_R   0.295032 0.290656 0.886243 0.548122
C56   C     C_R   0.705155 0.409024 0.616799 0.566246
C57   C     C_R   0.273134 0.897187 0.896767 0.564893
C58   C     C_R   0.836180 0.904336 0.087445 -0.097413
C59   C     C_R   0.788497 0.042053 0.063597 -0.081320
C60   C     C_R   0.680983 0.157283 0.099722 -0.057023
Cr1   Cr    Cr6+3 0.601770 0.606860 0.505860 1.020583
Cr2   Cr    Cr6+3 0.291380 0.601660 0.495070 1.018584
Cr3   Cr    Cr6+3 0.606880 0.291510 0.499120 1.045097
Cr4   Cr    Cr6+3 0.062440 0.063090 0.008210 1.005038
Cr5   Cr    Cr6+3 0.062880 0.375170 0.998920 0.986842
Cr6   Cr    Cr6+3 0.374700 0.061720 0.992470 1.012634
H1    H     H_    0.605827 0.207314 0.293397 0.176711
H2    H     H_    0.945863 0.533120 0.450074 0.170629
H3    H     H_    0.133564 0.380142 0.370272 0.126856
H4    H     H_    0.038855 0.236510 0.347368 0.105560
H5    H     H_    0.092968 0.225017 0.219538 0.121721
H6    H     H_    0.649703 0.451254 0.167725 0.104673
H7    H     H_    0.596206 0.476883 0.295760 0.108886
H8    H     H_    0.574884 0.734444 0.312139 0.156162
H9    H     H_    0.552692 0.782432 0.183456 0.116626
H10   H     H_    0.100325 0.993053 0.203587 0.192980
H11   H     H_    0.811533 0.774448 0.165275 0.107242
H12   H     H_    0.122832 0.951741 0.330329 0.165966
H13   H     H_    0.562196 0.234050 0.696301 0.135228
H14   H     H_    0.532564 0.230213 0.822116 0.125996
H15   H     H_    0.083441 0.428076 0.791483 0.153570
H16   H     H_    0.667980 0.599993 0.716092 0.132867
H17   H     H_    0.711489 0.565773 0.843573 0.120557
H18   H     H_    0.856717 0.122739 0.818334 0.189377
H19   H     H_    0.809774 0.156547 0.689792 0.130734
H20   H     H_    0.106768 0.854323 0.677718 0.135440
H21   H     H_    0.497272 0.845080 0.817305 0.135571
H22   H     H_    0.511746 0.828520 0.688465 0.127352
H23   H     H_    0.919846 0.815597 0.059527 0.096913
H24   H     H_    0.834239 0.059299 0.016715 0.132641
H25   H     H_    0.644108 0.263380 0.080275 0.087735
H26   H     H_    0.091081 0.739841 0.257651 0.156458
H27   H     H_    0.617834 0.976154 0.227837 0.120720
H28   H     H_    0.149545 0.510927 0.171684 0.141951
O1    O     O_R   0.748800 0.497470 0.428000 -0.527174
O2    O     O_R   0.300070 0.471040 0.567100 -0.480747
O3    O     O_R   0.491670 0.258900 0.574910 -0.545135
O4    O     O_R   0.718780 0.304180 0.577850 -0.512229
O5    O     O_3   0.500010 0.500010 0.500020 -0.295331
O6    O     O_R   0.186690 0.923650 0.086970 -0.530872
O7    O     O_R   0.957250 0.194250 0.084630 -0.515072
O8    O     O_R   0.934970 0.407490 0.085330 -0.520513
O9    O     O_R   0.203780 0.365190 0.067090 -0.511819
O10   O     O_R   0.417600 0.174890 0.067840 -0.508310
O11   O     O_R   0.375320 0.946260 0.070860 -0.498909
O12   O     O_R   0.476420 0.724060 0.429470 -0.499329
O13   O     O_R   0.160600 0.919630 0.926660 -0.471569
O14   O     O_R   0.933060 0.190520 0.936020 -0.508087
O15   O     O_R   0.908880 0.403460 0.925020 -0.531865
O16   O     O_R   0.179600 0.361450 0.918490 -0.519683
O17   O     O_R   0.391510 0.170860 0.907530 -0.518771
O18   O     O_R   0.351130 0.942530 0.922260 -0.517026
O19   O     O_3   0.166667 0.166667 0.999870 -0.244132
O20   O     O_R   0.264580 0.744340 0.416750 -0.522553
O21   O     O_R   0.309380 0.472470 0.418200 -0.495770
O22   O     O_R   0.501710 0.260430 0.414300 -0.472196
O23   O     O_R   0.728090 0.305600 0.428960 -0.469432
O24   O     O_R   0.738760 0.495930 0.588610 -0.470183
O25   O     O_R   0.467110 0.722640 0.578360 -0.525735
O26   O     O_R   0.254530 0.742800 0.577360 -0.525699
O27   O     O_3   0.791239 0.818182 0.442897 -0.549308
C61   C     C_3   0.826111 0.787085 0.516016 0.019861
H29   H     H_    0.937698 0.757043 0.527768 0.141489
H30   H     H_    0.807913 0.699809 0.532231 0.185117
C62   C     C_3   0.730608 0.918055 0.560157 -0.231311
H31   H     H_    0.747918 0.006254 0.544664 0.205187
H32   H     H_    0.618757 0.950330 0.548990 0.183338
C63   C     C_3   0.760149 0.889976 0.639943 -0.471119
H33   H     H_    0.689745 0.986805 0.670424 0.134945
H34   H     H_    0.870894 0.859380 0.652634 0.161032
H35   H     H_    0.740098 0.804554 0.656940 0.184821
C64   C     C_2   0.075757 0.451477 0.649022 0.584486
O28   O     O_2   0.966883 0.554261 0.668634 -0.542043
O29   O     O_R   0.075823 0.388769 0.583660 -0.667794
H36   H     H_    0.163624 0.294077 0.575889 0.291323
C65   C     C_2   0.873577 0.941922 0.331677 0.546380
O30   O     O_2   0.800359 0.024406 0.377958 -0.468056
O31   O     O_R   0.895006 0.993908 0.268044 -0.758492
H37   H     H_    0.845525 0.100683 0.266617 0.334785
O32   O     O_3   0.056526 0.894071 0.812087 -0.578738
C66   C     C_3   0.037925 0.775909 0.816283 0.004483
H38   H     H_    0.123067 0.691322 0.849446 0.143197
H39   H     H_    0.036694 0.733542 0.762204 0.148628
C67   C     C_3   0.896222 0.824566 0.851530 -0.263359
H40   H     H_    0.895613 0.869634 0.905014 0.166724
H41   H     H_    0.810952 0.908610 0.818456 0.158149
C68   C     C_3   0.866848 0.703576 0.860080 -0.474325
H42   H     H_    0.862282 0.660419 0.806936 0.175873
H43   H     H_    0.764170 0.743144 0.886843 0.134023
H44   H     H_    0.950272 0.618965 0.893399 0.185579

loop_
_geom_bond_atom_site_label_1
_geom_bond_atom_site_label_2
_ccdc_geom_bond_type
C33   C55   S    
C52   O9    A    
C18   H4    S    
Cr6   O19   S    
Cr2   O2    S    
Cr1   O25   S    
C41   C42   A    
C19   H5    S    
C35   C36   A    
C56   O4    A    
C63   H33   S    
C35   H15   S    
C20   C51   S    
C51   O8    A    
C26   C27   A    
C18   C24   A    
C28   C29   A    
C68   H43   S    
C18   C19   A    
Cr3   O4    S    
C66   H39   S    
C38   C39   A    
Cr3   O23   S    
C2    C60   A    
C57   O18   A    
C47   C57   S    
C10   H28   S    
C15   C16   A    
C34   O25   A    
C7    C65   S    
C25   H8    S    
Cr3   O5    S    
C68   H42   S    
C52   O10   A    
C29   H12   S    
C31   C32   A    
C64   O28   D    
C12   C17   S    
C62   C63   S    
C23   C24   S    
Cr6   O17   S    
Cr2   O26   S    
C1    O12   A    
C12   O21   A    
C59   C60   A    
C21   C22   A    
C38   H16   S    
C49   H22   S    
Cr1   O5    S    
Cr5   O19   S    
Cr5   O8    S    
C67   C68   S    
C44   H20   S    
C44   C46   A    
Cr4   O14   S    
C53   O6    A    
C34   O26   A    
Cr4   O7    S    
C15   H3    S    
C34   C50   S    
C21   H6    S    
Cr6   O10   S    
C68   H44   S    
O32   C66   S    
C65   O31   S    
O31   H37   S    
C66   C67   S    
C39   C40   A    
C8    C9    A    
C58   C59   A    
C41   H18   S    
C31   C37   A    
C54   O15   A    
C63   H34   S    
C59   H24   S    
C29   C30   A    
C32   H14   S    
C13   O27   S    
C11   C16   S    
C47   C48   A    
C7    C13   A    
C48   C49   A    
C27   C53   S    
C26   H9    S    
C48   H21   S    
C42   H19   S    
C9    H11   S    
C31   H13   S    
Cr1   O12   S    
Cr5   O15   S    
O27   C61   S    
O29   H36   S    
C64   O29   S    
Cr3   O22   S    
C67   H41   S    
C40   C41   A    
C57   O13   A    
C40   C54   S    
C55   O16   A    
C62   H31   S    
C22   C24   A    
C2    C5    S    
C1    O20   A    
C4    C17   A    
Cr6   O11   S    
C61   H30   S    
C28   H10   S    
C63   H35   S    
Cr4   O13   S    
C46   O32   S    
C60   H25   S    
C44   C50   A    
C25   C30   A    
C46   C47   A    
C9    C58   A    
C14   H2    S    
Cr4   O19   S    
C55   O17   A    
Cr1   O24   S    
C56   O24   A    
C2    C8    A    
C8    H27   S    
C67   H40   S    
C3    C5    A    
C11   C17   A    
C23   O23   A    
C4    H1    S    
C3    C52   S    
Cr1   O1    S    
Cr2   O20   S    
C6    C7    A    
C51   O7    A    
C54   O14   A    
C32   C33   A    
C19   C20   A    
C36   C64   S    
C25   C26   A    
C39   H17   S    
C38   C43   A    
Cr3   O3    S    
C3    C10   A    
C45   O3    A    
C66   H38   S    
C61   C62   S    
C6    H26   S    
C4    C5    A    
C1    C30   S    
C33   C35   A    
C23   O1    A    
C58   H23   S    
Cr5   O16   S    
C10   C11   A    
C6    C16   A    
Cr2   O5    S    
C53   O11   A    
C43   C56   S    
Cr4   O6    S    
C20   C21   A    
C36   C37   A    
C49   C50   A    
C42   C43   A    
C27   C28   A    
C62   H32   S    
Cr2   O21   S    
Cr5   O9    S    
C14   C15   A    
C65   O30   D    
C22   H7    S    
Cr6   O18   S    
C61   H29   S    
C13   C14   A    
C45   O2    A    
C37   C45   S    
C12   O22   A    
