data_mof_unit_34228.cif
_audit_creation_date              2012-12-11T17:03:13-0500
_audit_creation_method            fapswitch 2.2
_symmetry_space_group_name_H-M    P1
_symmetry_Int_Tables_number       1
_space_group_crystal_system       triclinic
_cell_length_a                    16.669272
_cell_length_b                    7.105514
_cell_length_c                    15.230122
_cell_angle_alpha                 89.953755
_cell_angle_beta                  94.619591
_cell_angle_gamma                 89.973606
_cell_volume                      1798.05166495

loop_
_atom_site_label
_atom_site_type_symbol
_atom_type_description
_atom_site_fract_x
_atom_site_fract_y
_atom_site_fract_z
_atom_type_partial_charge
O1    O     O_R   0.413460 0.494300 0.415980 -0.533047
O2    O     O_R   0.586540 0.994300 0.584020 -0.533578
O3    O     O_R   0.577100 0.822370 0.413730 -0.534508
O4    O     O_R   0.422900 0.322370 0.586270 -0.535307
C1    C     C_R   0.603820 0.655384 0.393442 0.722819
C2    C     C_R   0.396079 0.155354 0.606431 0.716713
O5    O     O_R   0.413490 0.823910 0.405510 -0.544870
O6    O     O_R   0.586510 0.323910 0.594490 -0.544414
O7    O     O_R   0.421770 0.995890 0.575740 -0.532931
O8    O     O_R   0.578230 0.495890 0.424260 -0.531114
C3    C     C_R   0.385311 0.655374 0.383615 0.698039
C4    C     C_R   0.614486 0.155121 0.616607 0.696076
O9    O     O_3   0.502910 0.661350 0.555860 -0.373504
O10   O     O_3   0.497090 0.161350 0.444140 -0.371724
V1    V     V_3+5 0.499460 0.935550 0.489640 1.403085
V2    V     V_3+5 0.500540 0.435550 0.510360 1.403927
C5    C     C_R   0.734990 0.987360 0.690104 0.034784
C6    C     C_R   0.306364 0.489658 0.258545 0.017939
C7    C     C_R   0.685037 0.146274 0.682495 -0.091625
C8    C     C_R   0.318427 0.647102 0.313223 -0.091072
C9    C     C_R   0.705927 0.299474 0.738382 -0.196705
C10   C     C_R   0.265297 0.799827 0.297249 -0.188311
H1    H     H_    0.668913 0.424413 0.735793 0.144525
H2    H     H_    0.272006 0.924592 0.337632 0.128743
C11   C     C_R   0.771519 0.287864 0.802610 -0.197109
C12   C     C_R   0.199259 0.787590 0.233486 -0.115114
H3    H     H_    0.782964 0.403249 0.847580 0.189116
H4    H     H_    0.157357 0.903899 0.226602 0.146457
C13   C     C_R   0.818419 0.123449 0.813298 -0.096269
C14   C     C_R   0.184694 0.622951 0.182983 -0.151883
C15   C     C_R   0.799562 0.976096 0.754398 0.021597
C16   C     C_R   0.242133 0.479128 0.193879 0.049908
C17   C     C_3   0.782232 0.774080 0.772318 0.284425
C18   C     C_3   0.231257 0.273850 0.210765 0.290924
C19   C     C_3   0.712475 0.785652 0.700471 -0.485559
C20   C     C_3   0.301523 0.286327 0.282107 -0.485072
H5    H     H_    0.831832 0.682465 0.752752 0.087550
H6    H     H_    0.172931 0.245961 0.238984 0.076286
H7    H     H_    0.650555 0.768135 0.720839 0.161881
H8    H     H_    0.357433 0.209071 0.270460 0.167644
H9    H     H_    0.724011 0.702852 0.640874 0.151259
H10   H     H_    0.282067 0.266936 0.349674 0.145798
C21   C     C_1   0.165222 0.120530 0.830376 -0.212608
C22   C     C_1   0.833864 0.620609 0.168528 -0.209104
C23   C     C_1   0.217926 0.128481 0.779102 0.005227
C24   C     C_1   0.781078 0.628723 0.219689 0.002997
C25   C     C_1   0.280384 0.138110 0.719244 0.001436
C26   C     C_1   0.718860 0.638370 0.279840 0.003445
C27   C     C_1   0.333301 0.146187 0.668230 -0.200017
C28   C     C_1   0.666257 0.646338 0.331236 -0.198387
O11   O     O_R   0.921840 0.772560 0.075830 -0.532322
O12   O     O_R   0.078160 0.272560 0.924170 -0.529385
O13   O     O_R   0.086520 0.441250 0.094510 -0.532210
O14   O     O_R   0.913480 0.941250 0.905490 -0.522196
C29   C     C_R   0.114433 0.610213 0.116751 0.692568
C30   C     C_R   0.885463 0.110282 0.883417 0.695342
O15   O     O_R   0.922920 0.442940 0.086290 -0.538319
O16   O     O_R   0.077080 0.942940 0.913710 -0.537390
O17   O     O_R   0.913440 0.271120 0.915960 -0.543292
O18   O     O_R   0.086560 0.771120 0.084040 -0.531861
C31   C     C_R   0.896525 0.611517 0.106613 0.719219
C32   C     C_R   0.103088 0.111558 0.892935 0.724857
O19   O     O_3   0.997130 0.604020 0.944190 -0.370925
O20   O     O_3   0.002870 0.104020 0.055810 -0.371783
V3    V     V_3+5 0.000530 0.329760 0.010360 1.446561
V4    V     V_3+5 0.999470 0.829760 0.989640 1.456804
O21   O     O_3   0.765588 0.738371 0.861389 -0.567667
C33   C     C_3   0.691185 0.808143 0.886237 0.080288
H11   H     H_    0.642610 0.706663 0.865353 0.116130
H12   H     H_    0.676299 0.949187 0.857809 0.139334
C34   C     C_3   0.695974 0.824663 0.986501 -0.276124
H13   H     H_    0.710022 0.684416 0.016277 0.194410
H14   H     H_    0.745161 0.923477 0.008775 0.194844
C35   C     C_3   0.616943 0.895749 0.018319 -0.859316
H15   H     H_    0.602202 0.037318 0.990478 0.234495
H16   H     H_    0.622565 0.905963 0.091310 0.239209
H17   H     H_    0.567280 0.796801 0.998164 0.229992
O22   O     O_3   0.239648 0.159310 0.135084 -0.558756
C36   C     C_3   0.318109 0.152872 0.105781 0.104309
H18   H     H_    0.353605 0.042693 0.143475 0.131433
H19   H     H_    0.349891 0.290403 0.112621 0.114209
C37   C     C_3   0.311940 0.099311 0.008477 -0.282236
H20   H     H_    0.276975 0.966685 0.998707 0.200717
H21   H     H_    0.279778 0.213134 0.969985 0.192980
C38   C     C_3   0.394908 0.072167 0.974699 -0.857582
H22   H     H_    0.430639 0.203836 0.982765 0.231297
H23   H     H_    0.388151 0.035035 0.903680 0.239905
H24   H     H_    0.427595 0.956454 0.011284 0.233696

loop_
_geom_bond_atom_site_label_1
_geom_bond_atom_site_label_2
_ccdc_geom_bond_type
O16   C32   A    
C20   H10   S    
O11   C31   A    
O2    C4    A    
C2    O7    A    
C25   C27   T    
C38   H22   S    
O5    C3    A    
C35   H16   S    
C7    C9    A    
C23   C25   S    
C5    C7    A    
O16   V4    S    
C33   H11   S    
C35   H17   S    
O1    C3    A    
C15   C17   S    
O10   V2    S    
O13   V3    S    
C18   C20   S    
C26   C28   T    
O19   V4    S    
O18   V4    S    
O6    V2    S    
C29   O18   A    
C22   C24   T    
C24   C26   S    
O13   C29   A    
C11   C13   A    
O14   C30   A    
C3    C8    S    
C35   H15   S    
C38   H23   S    
O21   C33   S    
C20   H8    S    
O4    C2    A    
C36   H19   S    
O22   C36   S    
C17   H5    S    
O11   V4    S    
C16   C18   S    
O4    V2    S    
C19   H7    S    
C36   C37   S    
O6    C4    A    
O1    V2    S    
O2    V1    S    
C21   C23   T    
C8    C10   A    
C12   C14   A    
C37   H21   S    
O9    V1    S    
C5    C15   A    
C10   H2    S    
C1    C28   S    
C6    C16   A    
O3    V1    S    
C17   O21   S    
C34   H14   S    
C38   H24   S    
C9    C11   A    
C18   H6    S    
O15   V3    S    
O3    C1    A    
C34   C35   S    
O15   C31   A    
O14   V4    S    
C13   C30   S    
C22   C31   S    
C11   H3    S    
C37   C38   S    
C14   C29   S    
C12   H4    S    
C30   O17   A    
O20   V3    S    
C9    H1    S    
O7    V1    S    
C1    O8    A    
C13   C15   A    
O12   C32   A    
C18   O22   S    
C14   C16   A    
C33   C34   S    
C4    C7    S    
O5    V1    S    
C17   C19   S    
C6    C8    A    
C2    C27   S    
C19   H9    S    
C36   H18   S    
C34   H13   S    
C33   H12   S    
C37   H20   S    
C10   C12   A    
O9    V2    S    
O10   V1    S    
O8    V2    S    
C5    C19   S    
C6    C20   S    
O17   V3    S    
O12   V3    S    
C21   C32   S    
