data_mof_unit_57776.cif
_audit_creation_date              2013-03-05T15:40:19-0500
_audit_creation_method            fapswitch 2.2
_symmetry_space_group_name_H-M    P1
_symmetry_Int_Tables_number       1
_space_group_crystal_system       triclinic
_cell_length_a                    7.84554
_cell_length_b                    8.551416
_cell_length_c                    12.876328
_cell_angle_alpha                 88.51128
_cell_angle_beta                  88.433858
_cell_angle_gamma                 93.147121
_cell_volume                      861.927031425

loop_
_atom_site_label
_atom_site_type_symbol
_atom_site_description
_atom_site_fract_x
_atom_site_fract_y
_atom_site_fract_z
_atom_type_partial_charge
O1    O     O_R   0.609680 0.261530 0.506880 -0.591602
O2    O     O_R   0.390320 0.738470 0.493120 -0.591538
O3    O     O_R   0.323330 0.288220 0.488910 -0.574717
O4    O     O_R   0.676670 0.711780 0.511090 -0.574751
C1    C     C_R   0.455151 0.205991 0.504741 0.908934
C2    C     C_R   0.544848 0.794009 0.495266 0.909058
O5    O     O_R   0.619510 0.488830 0.661140 -0.606149
O6    O     O_R   0.380490 0.511170 0.338860 -0.606205
O7    O     O_R   0.333160 0.515520 0.643180 -0.597605
O8    O     O_R   0.666840 0.484480 0.356820 -0.597638
C3    C     C_R   0.466033 0.498609 0.699226 0.920901
C4    C     C_R   0.533967 0.501369 0.300778 0.921043
Zn1   Zn    Zn3+2 0.691200 0.482180 0.511990 1.128521
Zn2   Zn    Zn3+2 0.308800 0.517820 0.488010 1.128572
N1    N     N_2   0.054030 0.541640 0.471970 0.021718
N2    N     N_2   0.945970 0.458360 0.528030 0.021740
C5    C     C_R   0.554263 0.499553 0.189973 -0.066884
C6    C     C_R   0.445738 0.500358 0.810040 -0.066893
C7    C     C_R   0.321895 0.620559 0.957824 -0.226986
C8    C     C_R   0.678026 0.379252 0.042209 -0.227033
C9    C     C_R   0.324340 0.594630 0.852910 -0.155658
C10   C     C_R   0.675552 0.405160 0.147124 -0.155681
C11   C     C_R   0.559874 0.421827 0.872100 0.119145
C12   C     C_R   0.440221 0.578160 0.127907 0.119151
C13   C     C_R   0.560078 0.449446 0.978421 0.089112
C14   C     C_R   0.439920 0.550448 0.021598 0.089197
H1    H     H_    0.763515 0.345124 0.195589 0.217091
H2    H     H_    0.236295 0.654593 0.804458 0.217020
H3    H     H_    0.229273 0.698739 0.987006 0.166161
H4    H     H_    0.770577 0.300996 0.013040 0.166186
C15   C     C_2   0.440115 0.042063 0.523541 0.044575
C16   C     C_2   0.559884 0.957935 0.476473 0.044698
N3    N     N_2   0.326622 0.683009 0.174206 -0.297461
H5    H     H_    0.200153 0.668057 0.155111 0.254615
C17   C     C_3   0.391651 0.844357 0.174935 -0.643768
H6    H     H_    0.400936 0.895242 0.094577 0.222382
H7    H     H_    0.519871 0.851846 0.209540 0.266022
H8    H     H_    0.304242 0.913304 0.222525 0.275305
N4    N     N_2   0.673829 0.317297 0.825769 -0.297354
H9    H     H_    0.800240 0.332393 0.844998 0.254511
C18   C     C_3   0.609111 0.155858 0.824717 -0.643275
H10   H     H_    0.599625 0.104695 0.905000 0.222334
H11   H     H_    0.696847 0.087209 0.777126 0.275268
H12   H     H_    0.481021 0.148302 0.789932 0.265810
N5    N     N_R   0.996746 0.680447 0.432952 0.311713
O9    O     O_R   0.034215 0.808690 0.481468 -0.273405
O10   O     O_R   0.960848 0.689871 0.335106 -0.375032
N6    N     N_R   0.003255 0.319558 0.567056 0.311702
O11   O     O_R   0.965748 0.191305 0.518559 -0.273446
O12   O     O_R   0.039174 0.310156 0.664899 -0.375078
N7    N     N_R   0.341572 0.982827 0.614201 0.195231
O13   O     O_R   0.192127 0.034059 0.634894 -0.270939
O14   O     O_R   0.409963 0.893927 0.683388 -0.461426
N8    N     N_R   0.658413 0.017167 0.385808 0.195278
O15   O     O_R   0.807886 0.965987 0.365130 -0.270918
O16   O     O_R   0.589990 0.106022 0.316609 -0.461551

loop_
_geom_bond_atom_site_label_1
_geom_bond_atom_site_label_2
_geom_bond_distance
_ccdc_geom_bond_type
C4    C5    1.431858 S    
C1    C15   1.414304 S    
C2    C16   1.414274 S    
O7    Zn2   2.012024 S    
C3    C6    1.431956 S    
C12   N3    1.428322 S    
C6    C9    1.392989 A    
C18   H11   1.110839 S    
C18   H10   1.110994 S    
C5    C10   1.392934 A    
O6    C4    1.295490 A    
N2    N6    1.379599 S    
N6    O12   1.299907 A    
N3    H5    1.030704 S    
N7    O13   1.297314 A    
N4    C18   1.445071 S    
C8    H4    1.080575 S    
N5    O9    1.299837 A    
O5    C3    1.295486 A    
O7    C3    1.296417 A    
C12   C14   1.395332 A    
O2    C2    1.278836 A    
O3    Zn2   1.972703 S    
O8    C4    1.296364 A    
C6    C11   1.403084 A    
O1    C1    1.278842 A    
C16   N8    1.447056 S    
N6    O11   1.299836 A    
C7    C9    1.374440 A    
C9    H2    1.084047 S    
C8    C10   1.374424 A    
C10   H1    1.084010 S    
C11   C13   1.395323 A    
O2    Zn2   1.962117 S    
C18   H12   1.110705 S    
N8    O16   1.301992 A    
Zn1   N2    2.035798 S    
C5    C12   1.402953 A    
O1    Zn1   1.962117 S    
C8    C13   1.402907 A    
N1    N5    1.379602 S    
N1    N2    1.273000 D    
C7    H3    1.080589 S    
O3    C1    1.299815 A    
O5    Zn1   1.989487 S    
C17   H8    1.110684 S    
C17   H7    1.110630 S    
O4    C2    1.299807 A    
N5    O10   1.299903 A    
N4    H9    1.030815 S    
C7    C14   1.402909 A    
N8    O15   1.297310 A    
O6    Zn2   1.989487 S    
N3    C17   1.444904 S    
C13   C14   1.424594 A    
Zn2   N1    2.035796 S    
C11   N4    1.428468 S    
C15   C16   1.354091 D    
C17   H6    1.110981 S    
O4    Zn1   1.972701 S    
C15   N7    1.447068 S    
N7    O14   1.302000 A    
O8    Zn1   2.012022 S    
