data_mof_unit_48666.cif
_audit_creation_date              2012-12-11T15:23:33-0500
_audit_creation_method            fapswitch 2.2
_symmetry_space_group_name_H-M    P1
_symmetry_Int_Tables_number       1
_space_group_crystal_system       triclinic
_cell_length_a                    17.445156
_cell_length_b                    24.646579
_cell_length_c                    14.908922
_cell_angle_alpha                 90.147392
_cell_angle_beta                  125.731066
_cell_angle_gamma                 90.140543
_cell_volume                      5203.5837877

loop_
_atom_site_label
_atom_site_type_symbol
_atom_type_description
_atom_site_fract_x
_atom_site_fract_y
_atom_site_fract_z
_atom_type_partial_charge
C1    C     C_R   0.312404 0.374760 0.906804 -0.144463
C2    C     C_R   0.653484 0.350508 0.090593 -0.176589
C3    C     C_R   0.844396 0.851351 0.906568 -0.135463
C4    C     C_R   0.151334 0.849769 0.091925 -0.175607
C5    C     C_R   0.320914 0.644746 0.999023 0.046635
C6    C     C_R   0.632477 0.676631 0.003447 0.005796
C7    C     C_R   0.866311 0.174900 0.000887 0.023368
C8    C     C_R   0.121442 0.179752 0.997399 0.038280
C9    C     C_R   0.565028 0.500848 0.367805 0.012145
C10   C     C_R   0.551158 0.500218 0.726338 -0.001586
C11   C     C_R   0.947230 0.000081 0.271589 -0.009109
C12   C     C_R   0.941204 0.000568 0.635190 0.003676
C13   C     C_R   0.201279 0.498651 0.631589 0.106154
C14   C     C_R   0.824849 0.499762 0.288311 0.121609
C15   C     C_R   0.686157 0.998834 0.647653 0.110222
C16   C     C_R   0.322434 0.999395 0.269917 0.098213
C17   C     C_2   0.978012 0.458017 0.365335 -0.106362
C18   C     C_2   0.077484 0.454681 0.459638 -0.087710
C19   C     C_2   0.476018 0.956181 0.364359 -0.100239
C20   C     C_2   0.572651 0.959437 0.465012 -0.114773
C21   C     C_2   0.926661 0.501654 0.352058 -0.183799
C22   C     C_2   0.127766 0.499336 0.513439 -0.174157
C23   C     C_2   0.423316 0.000853 0.320621 -0.169438
C24   C     C_2   0.598073 0.999682 0.538366 -0.176776
C25   C     C_R   0.216348 0.681440 0.039620 -0.169371
C26   C     C_R   0.780967 0.697077 0.038536 -0.161159
C27   C     C_R   0.776498 0.203542 0.065967 -0.151495
C28   C     C_R   0.174450 0.233689 0.911066 -0.141409
C29   C     C_R   0.713095 0.237750 0.062071 -0.131688
C30   C     C_R   0.222398 0.276865 0.909797 -0.124720
C31   C     C_R   0.167063 0.724515 0.041514 -0.079329
C32   C     C_R   0.840021 0.731046 0.032649 -0.030925
C33   C     C_R   0.685552 0.283346 0.996418 0.136863
C34   C     C_R   0.252545 0.317898 0.987966 0.148938
C35   C     C_R   0.171940 0.774211 0.001254 0.142954
C36   C     C_R   0.809774 0.783259 0.994606 0.106968
C37   C     C_R   0.722878 0.296823 0.937826 -0.090196
C38   C     C_R   0.227669 0.318465 0.061643 -0.043877
C39   C     C_R   0.226433 0.782571 0.962202 -0.102606
C40   C     C_R   0.721152 0.802257 0.960882 -0.171357
C41   C     C_R   0.278427 0.740512 0.962797 -0.061928
C42   C     C_R   0.660205 0.768160 0.964737 -0.085491
C43   C     C_R   0.787469 0.262908 0.941549 -0.063651
C44   C     C_R   0.177049 0.274865 0.062604 -0.068421
C45   C     C_R   0.406565 0.628741 0.092011 -0.145514
C46   C     C_R   0.564860 0.648587 0.910337 -0.145569
C47   C     C_R   0.936186 0.147717 0.092064 -0.152642
C48   C     C_R   0.058719 0.148800 0.907044 -0.126114
C49   C     C_R   0.270375 0.689425 0.999255 0.029507
C50   C     C_R   0.692120 0.715654 0.004881 0.042801
C51   C     C_R   0.812159 0.215755 0.004962 0.033448
C52   C     C_R   0.155439 0.231163 0.989926 0.028256
C53   C     C_R   0.604772 0.550035 0.627808 -0.147567
C54   C     C_R   0.606179 0.550237 0.535894 -0.149491
C55   C     C_R   0.898838 0.049971 0.467286 -0.150302
C56   C     C_R   0.896487 0.049834 0.372903 -0.149344
C57   C     C_R   0.598312 0.501127 0.483471 0.114124
C58   C     C_R   0.594079 0.500750 0.666384 0.117803
C59   C     C_R   0.904895 0.000580 0.332081 0.135484
C60   C     C_R   0.907495 0.000805 0.519453 0.130333
C61   C     C_R   0.608171 0.452007 0.536680 -0.119784
C62   C     C_R   0.606592 0.451856 0.628400 -0.117475
C63   C     C_R   0.892679 0.951673 0.370052 -0.139036
C64   C     C_R   0.894521 0.951744 0.464077 -0.146352
C65   C     C_R   0.551313 0.455462 0.305493 -0.055889
C66   C     C_R   0.521501 0.454512 0.753054 -0.062612
C67   C     C_R   0.977347 0.954439 0.245454 -0.049803
C68   C     C_R   0.955306 0.955114 0.697322 -0.063107
C69   C     C_R   0.246930 0.544123 0.695025 -0.138961
C70   C     C_R   0.768728 0.545165 0.258334 -0.139693
C71   C     C_R   0.737869 0.044600 0.705194 -0.130699
C72   C     C_R   0.267289 0.044885 0.245926 -0.128175
C73   C     C_R   0.546922 0.545483 0.302438 -0.120311
C74   C     C_R   0.519524 0.545311 0.751484 -0.111308
C75   C     C_R   0.979514 0.045210 0.247374 -0.106555
C76   C     C_R   0.956159 0.045428 0.699391 -0.110422
C77   C     C_R   0.246958 0.453780 0.696310 -0.078195
C78   C     C_R   0.768087 0.453901 0.256579 -0.104018
C79   C     C_R   0.739012 0.953508 0.705030 -0.083077
C80   C     C_R   0.266558 0.953859 0.246323 -0.058923
C81   C     C_R   0.313269 0.627506 0.906024 -0.139716
C82   C     C_R   0.656565 0.647903 0.094408 -0.125848
C83   C     C_R   0.840588 0.146706 0.907410 -0.112936
C84   C     C_R   0.151144 0.150365 0.091090 -0.124835
C85   C     C_R   0.407771 0.367765 0.091480 0.534281
C86   C     C_R   0.558602 0.349358 0.907059 0.464435
C87   C     C_R   0.940304 0.848504 0.090001 0.493349
C88   C     C_R   0.058469 0.848433 0.908503 0.529694
C89   C     C_R   0.317658 0.356686 0.997297 -0.178182
C90   C     C_R   0.626391 0.321245 0.998271 -0.088784
C91   C     C_R   0.871870 0.820533 0.996414 -0.118249
C92   C     C_R   0.122927 0.819575 0.000980 -0.135042
H1    H     H_    0.254650 0.369600 0.820718 0.131114
H2    H     H_    0.701126 0.337961 0.175721 0.151333
H3    H     H_    0.792506 0.841223 0.820544 0.173566
H4    H     H_    0.195408 0.836683 0.177033 0.178518
H5    H     H_    0.958641 0.538985 0.397811 0.138742
H6    H     H_    0.106605 0.538876 0.474562 0.138709
H7    H     H_    0.456359 0.040667 0.339961 0.143744
H8    H     H_    0.552337 0.033922 0.520577 0.145425
H9    H     H_    0.212578 0.642093 0.069201 0.138261
H10   H     H_    0.803390 0.655822 0.066926 0.134590
H11   H     H_    0.795609 0.166615 0.113878 0.128351
H12   H     H_    0.158270 0.200340 0.854907 0.131163
H13   H     H_    0.685115 0.228714 0.108958 0.144799
H14   H     H_    0.242133 0.275896 0.853063 0.145102
H15   H     H_    0.124652 0.719203 0.072379 0.163146
H16   H     H_    0.908338 0.716788 0.057162 0.165194
H17   H     H_    0.703143 0.334427 0.891838 0.145632
H18   H     H_    0.249630 0.352041 0.118994 0.169163
H19   H     H_    0.230148 0.822560 0.934547 0.160925
H20   H     H_    0.700805 0.843791 0.933203 0.164782
H21   H     H_    0.602249 0.588683 0.660338 0.114557
H22   H     H_    0.604366 0.588978 0.500949 0.114800
H23   H     H_    0.902523 0.088724 0.503677 0.110842
H24   H     H_    0.898461 0.088510 0.340334 0.107166
H25   H     H_    0.607820 0.413221 0.502568 0.148790
H26   H     H_    0.605291 0.413072 0.661150 0.150349
H27   H     H_    0.891815 0.912934 0.335341 0.138812
H28   H     H_    0.894261 0.912958 0.497401 0.140170
H29   H     H_    0.437090 0.639076 0.177171 0.108945
H30   H     H_    0.526702 0.662155 0.825722 0.100806
H31   H     H_    0.976680 0.161369 0.177069 0.105184
H32   H     H_    0.014798 0.161332 0.821489 0.094917
H33   H     H_    0.577000 0.415728 0.338102 0.178640
H34   H     H_    0.534575 0.412969 0.744509 0.151820
H35   H     H_    0.963895 0.912852 0.253465 0.155248
H36   H     H_    0.938527 0.914380 0.667077 0.187973
H37   H     H_    0.237471 0.585157 0.664694 0.109119
H38   H     H_    0.791799 0.586943 0.273925 0.108710
H39   H     H_    0.721972 0.086037 0.676265 0.108525
H40   H     H_    0.289565 0.086665 0.255111 0.120211
H41   H     H_    0.563325 0.587331 0.328907 0.092450
H42   H     H_    0.527952 0.587290 0.739247 0.098650
H43   H     H_    0.971085 0.087138 0.259851 0.094429
H44   H     H_    0.940068 0.087204 0.673323 0.089480
H45   H     H_    0.237549 0.412398 0.667708 0.126614
H46   H     H_    0.790221 0.412107 0.271527 0.095365
H47   H     H_    0.723606 0.911778 0.677317 0.117231
H48   H     H_    0.287619 0.912028 0.256135 0.090667
H49   H     H_    0.258465 0.636883 0.820630 0.121496
H50   H     H_    0.702976 0.660587 0.179863 0.110950
H51   H     H_    0.790661 0.158332 0.822012 0.103084
H52   H     H_    0.194276 0.164590 0.175735 0.105691
H53   H     H_    0.943657 0.420775 0.320139 0.125796
H54   H     H_    0.102097 0.414806 0.495831 0.120809
H55   H     H_    0.444610 0.916019 0.339693 0.122258
H56   H     H_    0.618397 0.924811 0.485565 0.126836
N1    N     N_R   0.395440 0.396300 0.944370 -0.052471
N2    N     N_R   0.604560 0.396300 0.055630 -0.068446
N3    N     N_R   0.895440 0.896300 0.944370 -0.072567
N4    N     N_R   0.104560 0.896300 0.055630 -0.071796
N5    N     N_R   0.449890 0.602500 0.055780 -0.043398
N6    N     N_R   0.550110 0.602500 0.944220 -0.040109
N7    N     N_R   0.949890 0.102500 0.055780 -0.040712
N8    N     N_R   0.050110 0.102500 0.944220 -0.040525
N9    N     N_R   0.525090 0.470990 0.205640 -0.060569
N10   N     N_R   0.474910 0.470990 0.794360 -0.026549
N11   N     N_R   0.025090 0.970990 0.205640 -0.025050
N12   N     N_R   0.974910 0.970990 0.794360 -0.044436
N13   N     N_R   0.320240 0.527820 0.794510 -0.049647
N14   N     N_R   0.679760 0.527820 0.205490 -0.048595
N15   N     N_R   0.820240 0.027820 0.794510 -0.051380
N16   N     N_R   0.179760 0.027820 0.205490 -0.051761
N17   N     N_R   0.524580 0.527810 0.205160 -0.048347
N18   N     N_R   0.475420 0.527810 0.794840 -0.049202
N19   N     N_R   0.024580 0.027810 0.205160 -0.049578
N20   N     N_R   0.975420 0.027810 0.794840 -0.048838
N21   N     N_R   0.320750 0.470990 0.794990 -0.040932
N22   N     N_R   0.679250 0.470990 0.205010 -0.043916
N23   N     N_R   0.820750 0.970990 0.794990 -0.040141
N24   N     N_R   0.179250 0.970990 0.205010 -0.031402
N25   N     N_R   0.393580 0.602500 0.942610 -0.047243
N26   N     N_R   0.606420 0.602500 0.057390 -0.041773
N27   N     N_R   0.893580 0.102500 0.942610 -0.041578
N28   N     N_R   0.106420 0.102500 0.057390 -0.044182
N29   N     N_R   0.451750 0.396300 0.057540 -0.094045
N30   N     N_R   0.548250 0.396300 0.942460 -0.106154
N31   N     N_R   0.951750 0.896300 0.057540 -0.110359
N32   N     N_R   0.048250 0.896300 0.942460 -0.107179
Ni1   Ni    Ni4+2 0.435420 0.434250 0.870220 0.301804
Ni2   Ni    Ni4+2 0.564580 0.434250 0.129780 0.270348
Ni3   Ni    Ni4+2 0.935420 0.934250 0.870220 0.278915
Ni4   Ni    Ni4+2 0.064580 0.934250 0.129780 0.301997
Ni5   Ni    Ni4+2 0.563400 0.564580 0.128670 0.202462
Ni6   Ni    Ni4+2 0.436600 0.564580 0.871330 0.209658
Ni7   Ni    Ni4+2 0.063400 0.064580 0.128670 0.217741
Ni8   Ni    Ni4+2 0.936600 0.064580 0.871330 0.203012
C93   C     C_2   0.343308 0.751358 0.930532 0.511678
H57   H     H_    0.397621 0.722573 0.949452 -0.000616
O1    O     O_2   0.337581 0.793218 0.883304 -0.544090
C94   C     C_2   0.565669 0.787489 0.928804 0.552355
H58   H     H_    0.518860 0.761121 0.934351 0.020871
O2    O     O_2   0.538906 0.833228 0.892587 -0.545324
C95   C     C_2   0.830091 0.277570 0.882787 0.518566
H59   H     H_    0.887566 0.253914 0.894298 -0.006666
O3    O     O_2   0.801933 0.316630 0.821242 -0.575208
C96   C     C_2   0.145984 0.275956 0.136443 0.528038
H60   H     H_    0.095206 0.246451 0.126308 -0.013965
O4    O     O_2   0.175641 0.310461 0.208607 -0.552269
S1    S     S_3+6 0.467762 0.326886 0.210818 -0.062974
O5    O     O_2   0.449683 0.347662 0.291735 -0.318026
O6    O     O_2   0.432489 0.269396 0.179973 -0.266374
O7    O     O_3   0.584183 0.327692 0.268027 -0.586658
H61   H     H_    0.613228 0.306011 0.336376 0.371836
S2    S     S_3+6 0.472069 0.318339 0.779722 -0.052745
O8    O     O_2   0.514082 0.305076 0.718487 -0.295471
O9    O     O_2   0.439504 0.266720 0.801398 -0.267628
O10   O     O_3   0.379514 0.359797 0.702833 -0.583198
H62   H     H_    0.335613 0.339679 0.632975 0.375925
S3    S     S_3+6 0.025959 0.818074 0.217671 -0.081149
O11   O     O_2   0.981242 0.802543 0.274844 -0.299230
O12   O     O_2   0.063054 0.767995 0.197718 -0.333093
O13   O     O_3   0.116190 0.861262 0.297810 -0.571294
H63   H     H_    0.161279 0.840761 0.366157 0.380531
S4    S     S_3+6 0.975827 0.817393 0.779527 -0.072487
O14   O     O_2   0.010803 0.821972 0.708563 -0.308468
O15   O     O_2   0.966313 0.758350 0.796587 -0.279014
O16   O     O_3   0.869566 0.846846 0.716506 -0.617344
H64   H     H_    0.828932 0.827853 0.644508 0.363678

loop_
_geom_bond_atom_site_label_1
_geom_bond_atom_site_label_2
_ccdc_geom_bond_type
C2    N2    A    
C23   H7    S    
C55   C56   A    
C25   C31   A    
C6    C82   A    
C83   N27   A    
C27   C29   A    
S1    O6    D    
S1    O5    D    
C7    C83   A    
C19   C20   S    
C16   C72   A    
S4    O16   S    
C70   H38   S    
C82   H50   S    
N16   Ni7   S    
C5    C49   S    
C86   S2    S    
C76   H44   S    
C39   C41   A    
C53   C54   A    
C44   C96   S    
C94   O2    D    
C12   C68   A    
C10   C66   A    
C47   N7    A    
N20   Ni8   S    
C32   C36   A    
C14   C21   S    
N23   Ni3   S    
C10   C58   S    
S4    O15   D    
C87   C91   A    
C26   C50   A    
N26   Ni5   S    
C6    C46   A    
C75   H43   S    
C84   H52   S    
N29   Ni2   S    
C29   C33   A    
C78   N22   A    
C14   C78   A    
C63   H27   S    
N6    Ni6   S    
C3    C91   A    
C79   N23   A    
C57   C61   A    
C2    C90   A    
C28   H12   S    
C53   H21   S    
N27   Ni8   S    
C4    H4    S    
N3    N31   A    
C15   C79   A    
C82   N26   A    
C43   C95   S    
C11   C67   A    
C20   H56   S    
C88   N32   A    
C96   H60   S    
N11   Ni4   S    
N4    Ni4   S    
C3    N3    A    
N15   N23   A    
C68   H36   S    
N12   Ni3   S    
C37   H17   S    
N32   Ni3   S    
C85   S1    S    
N2    N30   A    
N13   N21   A    
C35   C92   S    
C44   C52   A    
C40   C42   A    
C48   N8    A    
C24   H8    S    
C55   C60   A    
N22   Ni2   S    
N1    Ni1   S    
C14   C70   A    
C29   H13   S    
C93   H57   S    
C9    C73   A    
C86   N30   A    
C11   C59   S    
C78   H46   S    
C41   C49   A    
N5    Ni5   S    
C27   C51   A    
C72   H40   S    
C9    C65   A    
N8    Ni8   S    
C56   H24   S    
C46   N6    A    
O10   H62   S    
C31   H15   S    
N25   Ni6   S    
C30   C34   A    
C63   C64   A    
C61   H25   S    
C88   C92   A    
C2    H2    S    
S4    O14   D    
C73   N17   A    
C79   H47   S    
C86   C90   A    
N9    N17   A    
C22   H6    S    
N7    Ni7   S    
C85   C89   A    
S2    O8    D    
C4    C92   A    
C28   C52   A    
C45   H29   S    
C80   H48   S    
C5    C45   A    
C19   H55   S    
C66   H34   S    
N15   Ni8   S    
C16   C80   A    
C34   C38   A    
N4    N32   A    
C35   C39   A    
C8    C48   A    
C38   C44   A    
N13   Ni6   S    
C67   H35   S    
C5    C81   A    
N24   Ni4   S    
C47   H31   S    
S3    O11   D    
N14   N22   A    
C36   C40   A    
N5    N25   A    
N19   Ni7   S    
C81   H49   S    
S3    O13   S    
N1    N29   A    
C17   C18   S    
C72   N16   A    
C6    C50   S    
C4    N4    A    
C1    N1    A    
C66   N10   A    
N21   Ni1   S    
C71   N15   A    
C58   C62   A    
C42   C50   A    
C36   C91   S    
C85   N29   A    
C15   C24   S    
S3    O12   D    
C87   N31   A    
C73   H41   S    
C16   C23   S    
C12   C76   A    
C13   C77   A    
C32   H16   S    
C17   H53   S    
S1    O7    S    
C31   C35   A    
C37   C43   A    
N16   N24   A    
C38   H18   S    
N9    Ni2   S    
C80   N24   A    
C68   N12   A    
C74   N18   A    
N2    Ni2   S    
C15   C71   A    
N10   N18   A    
N28   Ni7   S    
C33   C37   A    
N31   Ni4   S    
N7    N27   A    
O13   H63   S    
O16   H64   S    
C77   N21   A    
C8    C52   S    
N8    N28   A    
C1    C89   A    
C88   S4    S    
N17   Ni5   S    
C18   C22   D    
C87   S3    S    
C77   H45   S    
C40   H20   S    
C18   H54   S    
C74   H42   S    
N14   Ni5   S    
C96   O4    D    
C53   C58   A    
N3    Ni3   S    
C26   C32   A    
C65   N9    A    
C7    C47   A    
C59   C63   A    
C64   H28   S    
C56   C59   A    
C41   C93   S    
C60   C64   A    
C94   H58   S    
C13   C69   A    
C28   C30   A    
C34   C89   S    
C7    C51   S    
C11   C75   A    
C33   C90   S    
C26   H10   S    
C83   H51   S    
C39   H19   S    
C10   C74   A    
S2    O10   S    
C25   H9    S    
C55   H23   S    
C43   C51   A    
C69   H37   S    
C54   H22   S    
C27   H11   S    
C75   N19   A    
C3    H3    S    
N11   N19   A    
C13   C22   S    
C76   N20   A    
C9    C57   S    
N12   N20   A    
C61   C62   A    
N10   Ni1   S    
C25   C49   A    
C62   H26   S    
N30   Ni1   S    
C21   H5    S    
N18   Ni6   S    
C71   H39   S    
C95   H59   S    
C12   C60   S    
C69   N13   A    
C42   C94   S    
C19   C23   D    
N6    N26   A    
C45   N5    A    
O7    H61   S    
C1    H1    S    
C48   H32   S    
C8    C84   A    
C46   H30   S    
C67   N11   A    
C65   H33   S    
C84   N28   A    
S2    O9    D    
C20   C24   D    
C30   H14   S    
C70   N14   A    
C81   N25   A    
C93   O1    D    
C95   O3    D    
C54   C57   A    
C17   C21   D    
