data_mof_unit_64051.cif
_audit_creation_date              2012-12-10T17:20:35-0500
_audit_creation_method            fapswitch 2.2
_symmetry_space_group_name_H-M    P1
_symmetry_Int_Tables_number       1
_space_group_crystal_system       triclinic
_cell_length_a                    10.162844
_cell_length_b                    10.815866
_cell_length_c                    13.638956
_cell_angle_alpha                 91.758206
_cell_angle_beta                  75.251326
_cell_angle_gamma                 95.657663
_cell_volume                      1442.71109568

loop_
_atom_site_label
_atom_site_type_symbol
_atom_type_description
_atom_site_fract_x
_atom_site_fract_y
_atom_site_fract_z
_atom_type_partial_charge
C1    C     C_R   0.556737 0.732754 0.496546 0.807067
C2    C     C_2   0.073710 0.488870 0.491768 -0.095358
C3    C     C_1   0.448588 0.507532 0.882320 0.021439
C4    C     C_1   0.551403 0.492440 0.117679 0.025258
C5    C     C_2   0.587872 0.865172 0.504539 0.445655
C6    C     C_2   0.408046 0.135587 0.525020 0.446230
C7    C     C_2   0.483671 0.934545 0.538345 -0.236875
C8    C     C_2   0.506046 0.067380 0.535793 -0.235928
C9    C     C_R   0.442419 0.267399 0.509566 0.806779
C10   C     C_R   0.477213 0.503406 0.688150 0.882068
C11   C     C_R   0.522787 0.496596 0.311855 0.907547
C12   C     C_1   0.539280 0.494191 0.206578 -0.162509
C13   C     C_1   0.460715 0.505795 0.793422 -0.162824
C14   C     C_2   0.556734 0.491700 0.013371 -0.151837
C15   C     C_2   0.443253 0.508258 0.986627 -0.151440
C16   C     C_2   0.926274 0.511108 0.508258 -0.099483
F1    F     F_    0.280044 0.083853 0.525861 -0.641116
F2    F     F_    0.719772 0.916169 0.475793 -0.640347
H1    H     H_    0.109539 0.618317 0.590333 0.177069
H2    H     H_    0.890475 0.381701 0.409655 0.180647
H3    H     H_    0.347862 0.522133 0.042076 0.166140
H4    H     H_    0.652125 0.477827 0.957922 0.165036
H5    H     H_    0.608084 0.109159 0.535201 0.210935
H6    H     H_    0.378503 0.893359 0.561348 0.208546
H7    H     H_    0.115754 0.418089 0.437949 0.175200
H8    H     H_    0.884220 0.581873 0.562089 0.173766
N1    N     N_2   0.847200 0.448220 0.460120 -0.185579
N2    N     N_2   0.152800 0.551780 0.539880 -0.185528
O1    O     O_R   0.430150 0.692610 0.508030 -0.641781
O2    O     O_R   0.569850 0.307390 0.491970 -0.642520
O3    O     O_R   0.653100 0.659360 0.482430 -0.563268
O4    O     O_R   0.346900 0.340640 0.517570 -0.564212
O5    O     O_R   0.372470 0.518990 0.654990 -0.602723
O6    O     O_R   0.627530 0.481010 0.345010 -0.595001
O7    O     O_R   0.595430 0.485740 0.629390 -0.607812
O8    O     O_R   0.404570 0.514260 0.370610 -0.600585
Zn1   Zn    Zn3+2 0.351130 0.522200 0.517090 0.983329
Zn2   Zn    Zn3+2 0.648870 0.477800 0.482910 0.984017

loop_
_geom_bond_atom_site_label_1
_geom_bond_atom_site_label_2
_ccdc_geom_bond_type
C6    C8    D    
C11   C12   S    
C10   O7    A    
H2    N1    S    
C4    C12   T    
C2    C16   S    
C3    C13   T    
O3    Zn2   S    
C15   H3    S    
C14   H4    S    
C6    C9    S    
C1    O1    A    
C7    C8    S    
O6    Zn2   S    
O4    Zn1   S    
C4    C14   S    
H1    N2    S    
C9    O2    A    
C16   N1    D    
C1    C5    S    
N2    Zn1   S    
C11   O8    A    
C2    H7    S    
C16   H8    S    
N1    Zn2   S    
C7    H6    S    
C1    O3    A    
C8    H5    S    
C3    C15   S    
O2    Zn2   S    
C10   O5    A    
O1    Zn1   S    
C5    C7    D    
C6    F1    S    
O7    Zn2   S    
O8    Zn1   S    
C2    N2    D    
C5    F2    S    
C9    O4    A    
C14   C15   D    
C11   O6    A    
O5    Zn1   S    
C10   C13   S    
