data_mof_unit_28003.cif
_audit_creation_date              2013-03-05T15:41:27-0500
_audit_creation_method            fapswitch 2.2
_symmetry_space_group_name_H-M    P1
_symmetry_Int_Tables_number       1
_space_group_crystal_system       triclinic
_cell_length_a                    11.851062
_cell_length_b                    18.36875
_cell_length_c                    10.27905
_cell_angle_alpha                 89.999578
_cell_angle_beta                  110.336971
_cell_angle_gamma                 90.000184
_cell_volume                      2098.15466609

loop_
_atom_site_label
_atom_site_type_symbol
_atom_site_description
_atom_site_fract_x
_atom_site_fract_y
_atom_site_fract_z
_atom_type_partial_charge
O1    O     O_R   0.267710 0.668200 0.902110 -0.493383
O2    O     O_R   0.732290 0.331800 0.097890 -0.487896
O3    O     O_R   0.732290 0.168200 0.097890 -0.493362
O4    O     O_R   0.267710 0.831800 0.902110 -0.487910
O5    O     O_R   0.099480 0.674460 0.038850 -0.505477
O6    O     O_R   0.900520 0.325540 0.961150 -0.521269
O7    O     O_R   0.900520 0.174460 0.961150 -0.505460
O8    O     O_R   0.099480 0.825540 0.038850 -0.521301
C1    C     C_R   0.133400 0.639269 0.159389 0.556234
C2    C     C_R   0.920665 0.356075 0.858714 0.595033
C3    C     C_R   0.866592 0.139269 0.840611 0.556222
C4    C     C_R   0.079334 0.856075 0.141284 0.595057
O9    O     O_R   0.116720 0.669210 0.267660 -0.425337
O10   O     O_R   0.883280 0.330790 0.732340 -0.435489
O11   O     O_R   0.883280 0.169210 0.732340 -0.425325
O12   O     O_R   0.116720 0.830790 0.267660 -0.435485
O13   O     O_R   0.366710 0.675440 0.427590 -0.489848
O14   O     O_R   0.633290 0.324560 0.572410 -0.514481
O15   O     O_R   0.633290 0.175440 0.572410 -0.489878
O16   O     O_R   0.366710 0.824560 0.427590 -0.514445
C5    C     C_R   0.478218 0.654995 0.453460 0.562203
C6    C     C_R   0.556954 0.362360 0.613554 0.546863
C7    C     C_R   0.521779 0.155000 0.546531 0.562169
C8    C     C_R   0.443050 0.862360 0.386452 0.546909
O17   O     O_R   0.534870 0.669390 0.371760 -0.533967
O18   O     O_R   0.465130 0.330610 0.628240 -0.524732
O19   O     O_R   0.465130 0.169390 0.628240 -0.533943
O20   O     O_R   0.534870 0.830610 0.371760 -0.524964
O21   O     O_R   0.453080 0.674480 0.075160 -0.494920
O22   O     O_R   0.546920 0.325520 0.924840 -0.522859
O23   O     O_R   0.546920 0.174480 0.924840 -0.494929
O24   O     O_R   0.453080 0.825520 0.075160 -0.522815
C9    C     C_R   0.351913 0.638487 0.011962 0.539430
C10   C     C_R   0.624778 0.356262 0.032043 0.535749
C11   C     C_R   0.648085 0.138487 0.988041 0.539382
C12   C     C_R   0.375222 0.856262 0.967955 0.535781
Cr1   Cr    Cr6+3 0.187610 0.750000 0.979860 1.096012
Cr2   Cr    Cr6+3 0.812390 0.250000 0.020140 1.096084
Cr3   Cr    Cr6+3 0.245810 0.750000 0.341640 1.099418
Cr4   Cr    Cr6+3 0.754190 0.250000 0.658360 1.099391
Cr5   Cr    Cr6+3 0.485760 0.750000 0.219910 1.072050
Cr6   Cr    Cr6+3 0.514240 0.250000 0.780090 1.072099
O25   O     O_3   0.306390 0.750000 0.180470 -0.347784
O26   O     O_3   0.693610 0.250000 0.819530 -0.347805
C13   C     C_R   0.537254 0.440251 0.577839 0.049062
C14   C     C_R   0.528829 0.592345 0.545122 0.009199
C15   C     C_R   0.462759 0.940252 0.422170 0.049200
C16   C     C_R   0.471178 0.092348 0.454868 0.009200
C17   C     C_R   0.393200 0.454371 0.706896 -0.065583
C18   C     C_R   0.707350 0.581819 0.473234 -0.009201
C19   C     C_R   0.606854 0.954364 0.293160 -0.065790
C20   C     C_R   0.292648 0.081825 0.526736 -0.009219
C21   C     C_R   0.286425 0.488995 0.691536 0.298541
C22   C     C_R   0.759905 0.544197 0.391713 0.295367
C23   C     C_R   0.713636 0.988987 0.308538 0.298586
C24   C     C_R   0.240096 0.044209 0.608269 0.295376
C25   C     C_R   0.281687 0.564621 0.677398 -0.011758
C26   C     C_R   0.725380 0.472293 0.354762 -0.066616
C27   C     C_R   0.718374 0.064612 0.322678 -0.011666
C28   C     C_R   0.274618 0.972306 0.645228 -0.066700
C29   C     C_R   0.378196 0.600809 0.659285 -0.099773
C30   C     C_R   0.643226 0.437741 0.404789 -0.107213
C31   C     C_R   0.621853 0.100803 0.340757 -0.099768
C32   C     C_R   0.356769 0.937748 0.595203 -0.107000
C33   C     C_R   0.462049 0.560195 0.618838 0.053717
C34   C     C_R   0.596878 0.474620 0.496487 0.079872
C35   C     C_R   0.537980 0.060193 0.381180 0.053741
C36   C     C_R   0.403123 0.974624 0.503506 0.080131
C37   C     C_R   0.469356 0.484055 0.640446 0.030973
C38   C     C_R   0.613860 0.549922 0.509901 0.026007
C39   C     C_R   0.530676 0.984051 0.359581 0.030810
C40   C     C_R   0.386140 0.049925 0.490079 0.025951
H1    H     H_    0.200924 0.594720 0.668470 0.225579
H2    H     H_    0.768807 0.441101 0.296674 0.183314
H3    H     H_    0.799137 0.094712 0.331605 0.225582
H4    H     H_    0.231191 0.941117 0.703323 0.183303
H5    H     H_    0.399509 0.401291 0.750773 0.190508
H6    H     H_    0.734859 0.637488 0.502578 0.145263
H7    H     H_    0.600545 0.901286 0.249272 0.190556
H8    H     H_    0.265143 0.137494 0.497387 0.145301
H9    H     H_    0.376764 0.659681 0.657490 0.137093
H10   H     H_    0.618069 0.382585 0.370985 0.132930
H11   H     H_    0.623282 0.159675 0.342537 0.137074
H12   H     H_    0.381921 0.882592 0.629010 0.133060
H13   H     H_    0.455253 0.061232 0.850730 0.175880
H14   H     H_    0.555954 0.906232 0.905664 0.182747
H15   H     H_    0.544755 0.561234 0.149252 0.175923
H16   H     H_    0.444037 0.406232 0.094310 0.182429
C41   C     C_2   0.400691 0.932407 0.946983 0.134584
C42   C     C_2   0.637092 0.057651 0.981537 0.199700
C43   C     C_2   0.599309 0.432407 0.053013 0.134663
C44   C     C_2   0.362907 0.557651 0.018479 0.199703
C45   C     C_2   0.500866 0.949871 0.921947 -0.158390
C46   C     C_2   0.530572 0.026824 0.907909 -0.035865
C47   C     C_2   0.499132 0.449871 0.078042 -0.158559
C48   C     C_2   0.469432 0.526825 0.092088 -0.036035
H17   H     H_    0.044941 0.070144 0.009952 0.179458
H18   H     H_    0.961920 0.915608 0.902502 0.195331
H19   H     H_    0.955063 0.570146 0.990026 0.179449
H20   H     H_    0.038061 0.415608 0.097489 0.195486
C49   C     C_2   0.041468 0.932646 0.115962 0.319942
C50   C     C_2   0.881725 0.060169 0.848983 0.284618
C51   C     C_2   0.958533 0.432646 0.884033 0.319909
C52   C     C_2   0.118256 0.560170 0.151029 0.284620
C53   C     C_2   0.988696 0.955356 0.984800 0.009897
C54   C     C_2   0.977121 0.032560 0.947746 0.022722
C55   C     C_2   0.011296 0.455357 0.015195 0.009864
C56   C     C_2   0.022871 0.532561 0.052251 0.022731
S1    S     S_3+6 0.155214 0.435160 0.635327 0.123855
O27   O     O_2   0.141230 0.390842 0.751207 -0.237168
O28   O     O_2   0.049106 0.484162 0.574273 -0.134309
O29   O     O_3   0.164194 0.377457 0.512241 -0.497269
H21   H     H_    0.082290 0.356774 0.470415 0.366858
S2    S     S_3+6 0.867932 0.587560 0.337140 0.095660
O30   O     O_2   0.944983 0.531461 0.302591 -0.188968
O31   O     O_2   0.805457 0.632307 0.209998 -0.260617
O32   O     O_3   0.955577 0.642006 0.463691 -0.466355
H22   H     H_    0.912651 0.689213 0.450501 0.343460
S3    S     S_3+6 0.844850 0.935152 0.364728 0.123691
O33   O     O_2   0.858844 0.890849 0.248838 -0.237017
O34   O     O_2   0.950953 0.984156 0.425800 -0.134289
O35   O     O_3   0.835882 0.877428 0.487790 -0.498368
H23   H     H_    0.917793 0.856759 0.529622 0.366887
S4    S     S_3+6 0.132090 0.087584 0.662859 0.095663
O36   O     O_2   0.055039 0.031496 0.697439 -0.188995
O37   O     O_2   0.194588 0.132336 0.789987 -0.260622
O38   O     O_3   0.044439 0.142028 0.536307 -0.466374
H24   H     H_    0.087367 0.189235 0.549485 0.343468
N1    N     N_R   0.742540 0.014022 0.043929 0.034771
O39   O     O_R   0.749082 0.947355 0.005325 -0.305694
O40   O     O_R   0.839602 0.044518 0.125323 -0.308148
N2    N     N_R   0.323602 0.987384 0.971138 0.083662
O41   O     O_R   0.367623 0.047187 0.037286 -0.337513
O42   O     O_R   0.210733 0.972927 0.944197 -0.313621
N3    N     N_R   0.257456 0.514020 0.956119 0.034762
O43   O     O_R   0.250904 0.447366 0.994791 -0.306183
O44   O     O_R   0.160399 0.544509 0.874697 -0.308119
N4    N     N_R   0.676400 0.487384 0.028858 0.083659
O45   O     O_R   0.632379 0.547185 0.962701 -0.337517
O46   O     O_R   0.789269 0.472927 0.055802 -0.313614
S5    S     S_3+6 0.771707 0.007393 0.724398 0.028287
O47   O     O_2   0.650559 0.037848 0.706980 -0.376261
O48   O     O_2   0.796675 0.018103 0.593681 -0.224812
O49   O     O_3   0.768287 0.917574 0.754080 -0.501816
H25   H     H_    0.701198 0.898474 0.673569 0.379284
S6    S     S_3+6 0.120012 0.993791 0.246476 0.040353
O50   O     O_2   0.056719 0.063730 0.253171 -0.244157
O51   O     O_2   0.144940 0.953899 0.379046 -0.244857
O52   O     O_3   0.248032 0.013234 0.219222 -0.542193
H26   H     H_    0.244627 0.066196 0.200113 0.374888
S7    S     S_3+6 0.228253 0.507404 0.275663 0.028486
O53   O     O_2   0.349407 0.537826 0.292988 -0.376902
O54   O     O_2   0.203347 0.518187 0.406397 -0.224170
O55   O     O_3   0.231596 0.417566 0.246109 -0.501544
H27   H     H_    0.299874 0.398661 0.325468 0.378854
S8    S     S_3+6 0.879995 0.493792 0.753512 0.040376
O56   O     O_2   0.943290 0.563730 0.746818 -0.244161
O57   O     O_2   0.855073 0.453899 0.620943 -0.244821
O58   O     O_3   0.751974 0.513235 0.780760 -0.542187
H28   H     H_    0.755379 0.566196 0.799872 0.374881

loop_
_geom_bond_atom_site_label_1
_geom_bond_atom_site_label_2
_geom_bond_distance
_ccdc_geom_bond_type
C12   C41   1.462577 S    
C26   C30   1.401130 A    
O4    C12   1.297694 A    
C45   C46   1.475855 S    
O23   Cr6   1.971701 S    
O5    Cr1   1.955522 S    
O32   H22   0.990545 S    
C47   C48   1.475859 S    
S2    O30   1.499069 D    
O1    C9    1.336227 A    
N3    O43   1.297889 A    
C23   S3    1.762196 S    
O7    C3    1.329823 A    
H19   C56   1.083627 S    
C26   H2    1.078561 S    
C18   C22   1.389416 A    
C41   N2    1.440062 S    
C19   C39   1.416681 A    
C24   S4    1.757072 S    
C52   S7    1.766123 S    
C2    C51   1.471808 S    
S6    O50   1.501227 D    
C23   C27   1.395822 A    
S1    O28   1.495601 D    
C33   C37   1.414056 A    
O52   H26   0.990520 S    
C43   N4    1.440062 S    
O21   C9    1.324834 A    
O20   Cr5   2.082339 S    
C44   C48   1.350153 D    
O13   Cr3   1.956860 S    
S7    O55   1.680910 S    
C25   H1    1.081279 S    
O14   Cr4   1.956858 S    
C10   C43   1.462577 S    
C32   H12   1.078928 S    
C1    O9    1.316461 A    
C42   N1    1.434638 S    
C3    O11   1.316489 A    
O16   C8    1.321115 A    
O3    Cr2   2.079623 S    
N2    O41   1.301784 A    
C55   C56   1.462428 S    
O6    Cr2   1.955521 S    
C9    C44   1.490030 S    
C50   S5    1.766117 S    
C7    O19   1.271978 A    
O8    C4    1.286465 A    
C19   C23   1.375443 A    
O1    Cr1   2.079635 S    
O2    C10   1.297693 A    
C30   H10   1.078929 S    
H16   C47   1.082922 S    
C17   C37   1.416652 A    
C41   C45   1.338235 D    
Cr5   O25   2.020903 S    
C27   H3    1.081281 S    
Cr6   O26   2.020903 S    
C16   C40   1.416825 A    
C18   H6    1.083768 S    
O29   H21   0.990600 S    
Cr2   O26   2.053308 S    
C42   C46   1.350162 D    
S6    O51   1.483687 D    
O15   Cr4   1.956862 S    
S3    O34   1.495598 D    
C49   C53   1.340433 D    
C31   C35   1.415689 A    
C49   S6    1.749221 S    
O9    Cr3   2.076630 S    
O22   C10   1.295302 A    
C13   C37   1.438386 A    
C4    O12   1.303619 A    
C14   C33   1.402156 A    
C2    O10   1.303613 A    
S5    O49   1.680898 S    
O17   Cr5   2.082326 S    
O16   Cr3   1.956861 S    
C30   C34   1.417358 A    
Cr3   O25   2.021564 S    
C43   C47   1.338234 D    
C28   H4    1.078561 S    
O13   C5    1.309131 A    
C24   C28   1.395747 A    
C31   H11   1.081582 S    
Cr1   O25   2.053308 S    
O15   C7    1.309121 A    
O5    C1    1.329825 A    
C20   C40   1.415327 A    
H14   C45   1.082924 S    
S6    O52   1.674288 S    
H13   C46   1.084901 S    
O2    Cr2   2.079634 S    
O58   H28   0.990520 S    
O3    C11   1.336216 A    
C36   C40   1.397663 A    
H15   C48   1.084899 S    
H18   C53   1.078338 S    
C15   C39   1.438398 A    
O55   H27   0.990945 S    
N4    O46   1.295738 A    
S4    O38   1.682886 S    
H17   C54   1.083631 S    
O23   C11   1.324834 A    
S1    O29   1.682005 S    
C44   N3    1.434634 S    
O8    Cr1   1.955532 S    
O24   Cr5   1.971699 S    
O38   H24   0.990544 S    
C32   C36   1.417361 A    
C15   C36   1.416980 A    
C52   C56   1.329729 D    
O18   Cr6   2.082326 S    
S4    O37   1.503062 D    
C5    C14   1.476154 S    
C22   C26   1.395744 A    
S3    O35   1.681992 S    
C21   S1    1.762164 S    
N3    O44   1.291508 A    
C5    O17   1.271944 A    
S8    O56   1.501228 D    
H20   C55   1.078313 S    
C21   C25   1.395820 A    
C7    C16   1.476176 S    
O21   Cr5   1.971714 S    
O14   C6    1.321107 A    
C8    C15   1.475412 S    
S8    O58   1.674288 S    
C8    O20   1.288901 A    
O49   H25   0.991341 S    
O6    C2    1.286471 A    
S2    O31   1.503060 D    
S3    O33   1.498705 D    
O24   C12   1.295306 A    
C25   C29   1.390208 A    
C53   C54   1.462428 S    
C27   C31   1.390211 A    
C28   C32   1.401141 A    
S5    O48   1.485930 D    
N1    O39   1.297880 A    
C4    C49   1.471804 S    
C29   H9    1.081584 S    
S5    O47   1.492539 D    
O19   Cr6   2.082341 S    
C34   C38   1.397656 A    
C1    C52   1.462844 S    
C17   C21   1.375429 A    
C22   S2    1.757065 S    
S8    O57   1.483694 D    
O7    Cr2   1.955533 S    
C17   H5    1.065933 S    
C50   C54   1.329723 D    
C3    C50   1.462862 S    
C35   C39   1.414062 A    
S7    O54   1.485901 D    
C16   C35   1.402189 A    
C18   C38   1.415331 A    
C19   H7    1.065944 S    
O11   Cr4   2.076629 S    
C14   C38   1.416828 A    
S2    O32   1.682884 S    
N4    O45   1.301785 A    
O12   Cr3   2.076627 S    
O10   Cr4   2.076629 S    
C11   C42   1.490021 S    
C29   C33   1.415685 A    
C51   S8    1.749227 S    
Cr4   O26   2.021565 S    
C6    C13   1.475401 S    
O4    Cr1   2.079621 S    
N2    O42   1.295740 A    
C6    O18   1.288916 A    
S1    O27   1.498716 D    
C13   C34   1.416981 A    
O22   Cr6   1.971713 S    
C51   C55   1.340434 D    
O35   H23   0.990580 S    
C20   H8    1.083769 S    
S7    O53   1.492584 D    
C20   C24   1.389415 A    
S4    O36   1.499067 D    
N1    O40   1.291508 A    
