data_mof_unit_8684.cif
_audit_creation_date              2012-12-11T19:09:42-0500
_audit_creation_method            fapswitch 2.2
_symmetry_space_group_name_H-M    P1
_symmetry_Int_Tables_number       1
_space_group_crystal_system       triclinic
_cell_length_a                    8.227811
_cell_length_b                    15.166816
_cell_length_c                    27.031655
_cell_angle_alpha                 98.915301
_cell_angle_beta                  92.808739
_cell_angle_gamma                 81.153399
_cell_volume                      3291.77828793

loop_
_atom_site_label
_atom_site_type_symbol
_atom_type_description
_atom_site_fract_x
_atom_site_fract_y
_atom_site_fract_z
_atom_type_partial_charge
Ba1   Ba    Ba6+2 0.860050 0.456430 0.522540 1.652104
Ba2   Ba    Ba6+2 0.329780 0.543490 0.477450 1.684536
C1    C     C_3   0.755438 0.120506 0.643904 -0.334821
C2    C     C_R   0.909643 0.590756 0.181419 0.574643
C3    C     C_2   0.754545 0.560369 0.274133 -0.084795
C4    C     C_3   0.155501 0.261645 0.652194 0.353047
C5    C     C_3   0.731782 0.588134 0.329548 -0.046044
C6    C     C_1   0.983103 0.484045 0.343010 0.035506
C7    C     C_2   0.025390 0.480698 0.295438 -0.101381
C8    C     C_2   0.903372 0.518345 0.257419 0.195632
C9    C     C_R   0.021623 0.507240 0.102807 -0.079581
C10   C     C_R   0.057819 0.429772 0.126551 -0.036389
C11   C     C_R   0.132142 0.349317 0.098757 -0.059107
C12   C     C_3   0.696468 0.213686 0.629876 0.325814
C13   C     C_R   0.947093 0.588101 0.130663 -0.024809
C14   C     C_2   0.842016 0.528859 0.360923 -0.287434
C15   C     C_2   0.351209 0.474206 0.639464 -0.299658
C16   C     C_3   0.145111 0.234708 0.703679 -0.282246
C17   C     C_R   0.169338 0.417880 0.971737 0.018992
C18   C     C_R   0.061118 0.579901 0.976556 0.019661
C19   C     C_R   0.133772 0.497225 0.948641 0.050595
C20   C     C_R   0.239818 0.337222 0.941963 -0.099688
C21   C     C_R   0.275517 0.334752 0.891958 -0.056551
C22   C     C_R   0.242847 0.412415 0.868916 -0.025553
C23   C     C_3   0.493370 0.667871 0.634238 0.336089
C24   C     C_R   0.171634 0.493814 0.897030 -0.077372
C25   C     C_R   0.139258 0.571772 0.873588 -0.045722
C26   C     C_R   0.179725 0.567440 0.822683 0.591556
C27   C     C_R   0.280233 0.409622 0.818174 0.573966
C28   C     C_3   0.222226 0.265087 0.410226 0.312998
C29   C     C_2   0.436716 0.439304 0.725499 -0.097663
C30   C     C_3   0.458591 0.412191 0.670053 -0.041518
C31   C     C_1   0.208253 0.516986 0.657006 0.035142
C32   C     C_2   0.166173 0.519769 0.704548 -0.077080
C33   C     C_2   0.288632 0.481983 0.742399 0.202600
C34   C     C_3   0.503291 0.683549 0.692545 0.344198
C35   C     C_R   0.133431 0.421422 0.023387 0.020532
C36   C     C_R   0.059380 0.503884 0.051186 0.050208
C37   C     C_R   0.022406 0.583046 0.027970 0.019963
C38   C     C_R   0.169244 0.345090 0.048594 -0.097590
C39   C     C_R   0.910808 0.665307 0.107301 -0.059029
C40   C     C_3   0.248767 0.163525 0.393253 -0.384149
C41   C     C_R   0.030064 0.656876 0.951747 -0.095902
C42   C     C_R   0.068355 0.652747 0.901666 -0.056101
C43   C     C_R   0.947253 0.663017 0.057349 -0.100051
C44   C     C_R   0.340992 0.176036 0.526501 0.007298
C45   C     C_3   0.031627 0.737989 0.347993 0.321454
C46   C     C_R   0.577265 0.208723 0.487996 0.063138
C47   C     C_R   0.756035 0.774178 0.493729 -0.307266
C48   C     C_R   0.845252 0.830784 0.474701 0.047509
C49   C     C_R   0.784361 0.922281 0.478241 -0.059532
C50   C     C_R   0.630966 0.958895 0.500492 -0.023523
C51   C     C_R   0.540983 0.900611 0.523320 -0.132207
C52   C     C_3   0.945580 0.736639 0.595421 0.350622
C53   C     C_R   0.565447 0.052755 0.501274 -0.002072
C54   C     C_R   0.406251 0.083852 0.519602 -0.104317
C55   C     C_R   0.313017 0.023485 0.532082 -0.069409
C56   C     C_3   0.041306 0.763594 0.296168 -0.305916
C57   C     C_R   0.380985 0.939953 0.543183 0.432156
C58   C     C_R   0.647248 0.117032 0.482999 -0.114374
C59   C     C_R   0.430379 0.238023 0.512500 -0.298793
C60   C     C_R   0.611785 0.807224 0.520057 0.015360
C61   C     C_3   0.869487 0.828800 0.622208 -0.242521
C62   C     C_3   0.694733 0.341959 0.372119 0.297499
C63   C     C_3   0.701526 0.318948 0.315389 -0.361146
C64   C     C_3   0.681989 0.681380 0.713338 -0.207115
C65   C     C_3   0.708206 0.643721 0.762967 -0.378407
C66   C     C_3   0.491466 0.785240 0.368665 0.341956
C67   C     C_3   0.427672 0.877970 0.354730 -0.368566
C68   C     C_R   0.018245 0.434025 0.177523 0.597720
H1    H     H_    0.733131 0.213205 0.590801 0.074955
H2    H     H_    0.813805 0.361337 0.386903 0.012869
H3    H     H_    0.594908 0.399474 0.381494 0.075565
H4    H     H_    0.890231 0.102680 0.639338 0.161413
H5    H     H_    0.805893 0.264543 0.304763 0.136674
H6    H     H_    0.718406 0.379242 0.298805 0.070963
H7    H     H_    0.584799 0.296043 0.300057 0.131643
H8    H     H_    0.560000 0.226017 0.631773 -0.038812
H9    H     H_    0.693758 0.069473 0.619032 0.095852
H10   H     H_    0.364797 0.661715 0.622002 0.029848
H11   H     H_    0.571720 0.603115 0.620394 -0.045922
H12   H     H_    0.327669 0.146671 0.359918 0.131789
H13   H     H_    0.450875 0.627510 0.704777 -0.031475
H14   H     H_    0.725407 0.119126 0.683355 0.129525
H15   H     H_    0.125421 0.296245 0.731963 0.112610
H16   H     H_    0.132118 0.681457 0.352085 0.105301
H17   H     H_    0.911141 0.715883 0.351176 -0.046313
H18   H     H_    0.145004 0.801893 0.294668 0.139802
H19   H     H_    0.063152 0.701406 0.268397 0.122336
H20   H     H_    0.924892 0.805668 0.286421 0.127739
H21   H     H_    0.627618 0.774138 0.365631 -0.052366
H22   H     H_    0.458971 0.785639 0.408159 0.062386
H23   H     H_    0.309885 0.127680 0.423347 0.058337
H24   H     H_    0.489214 0.929783 0.379007 0.067157
H25   H     H_    0.293119 0.894638 0.360235 0.150338
H26   H     H_    0.059172 0.320590 0.649032 0.090768
H27   H     H_    0.454081 0.879462 0.314998 0.125666
H28   H     H_    0.149018 0.451492 0.283941 0.129500
H29   H     H_    0.162362 0.288516 0.115795 0.123319
H30   H     H_    0.531227 0.413108 0.751081 0.114319
H31   H     H_    0.329613 0.270848 0.871248 0.128322
H32   H     H_    0.268973 0.273826 0.955903 0.073791
H33   H     H_    0.227009 0.280231 0.030817 0.071517
H34   H     H_    0.128524 0.139698 0.383484 0.127294
H35   H     H_    0.659940 0.586055 0.248432 0.117060
H36   H     H_    0.853136 0.728686 0.127704 0.123240
H37   H     H_    0.976639 0.722358 0.969926 0.073679
H38   H     H_    0.278586 0.280685 0.648691 -0.055850
H39   H     H_    0.041780 0.714004 0.884912 0.134817
H40   H     H_    0.042983 0.549135 0.716228 0.108790
H41   H     H_    0.913589 0.725795 0.042995 0.071526
H42   H     H_    0.818669 0.538275 0.400695 0.079993
H43   H     H_    0.380950 0.471215 0.600518 0.082074
H44   H     H_    0.379764 0.308927 0.517507 0.067618
H45   H     H_    0.846731 0.698280 0.579967 -0.034154
H46   H     H_    0.184952 0.045868 0.539322 0.168971
H47   H     H_    0.762927 0.098571 0.464389 0.087259
H48   H     H_    0.804500 0.702989 0.489732 0.050307
H49   H     H_    0.858268 0.962688 0.462132 0.071704
H50   H     H_    0.039851 0.197407 0.704911 0.139599
H51   H     H_    0.260330 0.191112 0.712928 0.141539
H52   H     H_    0.342579 0.287664 0.419878 0.007182
H53   H     H_    0.142765 0.280514 0.443431 0.055728
H54   H     H_    0.390068 0.929260 0.722554 0.367716
H55   H     H_    0.632020 0.686530 0.792752 0.192831
H56   H     H_    0.023047 0.745341 0.564561 0.081483
H57   H     H_    0.677757 0.574053 0.758372 0.124499
H58   H     H_    0.838941 0.641752 0.775383 0.155779
H59   H     H_    0.767613 0.638284 0.686684 0.119914
H60   H     H_    0.718590 0.749753 0.718472 0.170179
H61   H     H_    0.147027 0.994678 0.656298 0.354196
H62   H     H_    0.780899 0.820828 0.650138 0.132057
H63   H     H_    0.805125 0.871012 0.595272 0.070850
H64   H     H_    0.965819 0.864996 0.642473 0.196464
N1    N     N_R   0.945002 0.514145 0.204760 -0.422060
N2    N     N_R   0.248042 0.486582 0.795108 -0.425669
O1    O     O_2   0.906490 0.548660 0.619040 -0.481328
O2    O     O_2   0.187196 0.823050 0.471681 -0.449106
O3    O     O_3   0.048234 0.813090 0.384203 -0.617212
O4    O     O_3   0.138490 0.548590 0.558860 -0.495183
O5    O     O_3   0.572560 0.389970 0.472910 -0.496052
O6    O     O_2   0.345680 0.723560 0.528460 -0.415377
O7    O     O_3   0.544500 0.739243 0.614441 -0.589127
O8    O     O_2   0.405407 0.544156 0.323811 -0.497503
O9    O     O_3   0.419761 0.718630 0.336416 -0.597876
O10   O     O_2   0.046669 0.365858 0.197269 -0.596336
O11   O     O_2   0.341468 0.337975 0.794493 -0.618257
O12   O     O_3   0.664853 0.265994 0.391775 -0.634122
O13   O     O_2   0.845868 0.662037 0.204882 -0.621274
O14   O     O_2   0.156894 0.636108 0.803320 -0.555095
O15   O     O_3   0.686290 0.382320 0.585720 -0.477868
O16   O     O_2   0.787716 0.453208 0.676027 -0.510267
O17   O     O_3   0.043374 0.692611 0.630244 -0.586440
O18   O     O_3   0.768114 0.279325 0.662866 -0.598365
O19   O     O_2   0.844020 0.276410 0.471510 -0.459522
O20   O     O_3   0.101490 0.335510 0.560360 -0.501452
O21   O     O_2   0.999364 0.179555 0.526136 -0.489286
O22   O     O_2   0.204051 0.788090 0.702286 -0.244477
O23   O     O_3   0.130487 0.188544 0.615534 -0.573316
O24   O     O_2   0.387617 0.794763 0.775671 -0.281510
O25   O     O_3   0.452947 0.875472 0.702787 -0.466786
O26   O     O_2   0.075694 0.921359 0.564250 -0.384388
O27   O     O_2   0.277014 0.829768 0.609379 -0.229685
O28   O     O_3   0.242148 0.999567 0.636333 -0.511534
O29   O     O_2   0.283210 0.451320 0.380930 -0.465117
O30   O     O_3   0.051220 0.451340 0.441130 -0.498965
O31   O     O_3   0.503420 0.617610 0.414270 -0.481138
O32   O     O_3   0.147951 0.306813 0.370638 -0.625448
O33   O     O_3   0.617160 0.609950 0.527080 -0.490717
O34   O     O_3   0.088220 0.664410 0.439630 -0.500671
P1    P     P_3+3 0.071960 0.575810 0.612130 1.001616
P2    P     P_3+3 0.664360 0.290070 0.457280 0.979831
P3    P     P_3+3 0.142010 0.219674 0.556282 0.955697
P4    P     P_3+3 0.117760 0.424110 0.387870 0.987824
P5    P     P_3+3 0.041613 0.782295 0.443770 0.972085
P6    P     P_3+3 0.676114 0.385558 0.650008 0.938940
P7    P     P_3+3 0.529418 0.721609 0.548207 1.031503
P8    P     P_3+3 0.514384 0.613247 0.349825 0.938958
S1    S     S_3+6 0.380191 0.786945 0.719543 -0.016788
S2    S     S_3+6 0.245514 0.915053 0.587875 -0.072002

loop_
_geom_bond_atom_site_label_1
_geom_bond_atom_site_label_2
_ccdc_geom_bond_type
C53   C54   A    
C26   O14   D    
C7    H28   S    
Ba1   O20   S    
C40   H23   S    
C12   H1    S    
O3    P5    S    
C40   H12   S    
C19   C24   A    
C1    H9    S    
C52   O17   S    
C4    O23   S    
C51   C57   A    
C15   H43   S    
C3    H35   S    
O32   P4    S    
C2    O13   D    
C52   H56   S    
C24   C25   A    
C63   H6    S    
C61   H63   S    
C25   C26   A    
C57   S2    S    
C17   C19   A    
C22   C24   A    
C32   C33   S    
C35   C38   A    
C65   H55   S    
C36   C37   A    
C6    P4    S    
C55   C57   A    
O6    P7    D    
C52   C61   S    
C34   H13   S    
C23   H10   S    
C66   H21   S    
C54   C55   A    
C59   H44   S    
Ba1   Ba2   S    
Ba1   O19   S    
C1    H4    S    
C22   C27   A    
C11   C38   A    
C17   C35   A    
C66   H22   S    
C46   P2    S    
C9    C13   A    
C25   C42   A    
C28   H52   S    
C66   C67   S    
O9    P8    S    
C49   H49   S    
C21   C22   A    
O31   P8    S    
C68   O10   D    
O25   S1    S    
C7    C8    S    
Ba2   O30   S    
O26   S2    D    
O28   S2    S    
C50   C53   A    
C37   C43   A    
C64   H59   S    
C42   H39   S    
O7    P7    S    
C64   C65   S    
C6    C14   D    
C53   C58   A    
C62   O12   S    
C23   H11   S    
C23   O7    S    
C34   S1    S    
C15   C31   D    
C60   P7    S    
O19   P2    D    
O33   P7    S    
C46   C58   A    
C55   H46   S    
O34   P5    S    
C4    C16   S    
O20   P3    S    
O30   P4    S    
C16   H15   S    
C63   H7    S    
C39   H36   S    
C44   C59   A    
C49   C50   A    
C61   H64   S    
C17   C20   A    
C8    N1    S    
C13   C39   A    
C67   H24   S    
C3    C5    S    
C18   C37   A    
C6    C7    D    
C23   C34   S    
O29   P4    D    
C29   H30   S    
Ba1   P1    S    
O5    P2    S    
C5    P8    S    
C56   H18   S    
C48   P5    S    
C45   H17   S    
C11   H29   S    
C9    C36   A    
O22   S1    D    
C45   H16   S    
O24   S1    D    
C35   C36   A    
C65   H57   S    
C12   H8    S    
C30   P6    S    
C51   C60   A    
C47   H48   S    
C62   H3    S    
C52   H45   S    
O17   P1    S    
C48   C49   A    
C44   P3    S    
C58   H47   S    
C41   H37   S    
C61   H62   S    
C28   H53   S    
C56   H20   S    
Ba2   O29   S    
Ba1   O4    S    
Ba2   O34   S    
C2    N1    Am   
C5    C14   S    
O8    P8    D    
O4    P1    S    
C4    H26   S    
C41   C42   A    
C68   N1    Am   
Ba2   O6    S    
C29   C33   D    
C45   O3    S    
C31   P1    S    
C16   H50   S    
C1    H14   S    
C18   C41   A    
Ba1   O1    S    
C50   C51   A    
C14   H42   S    
H54   O25   S    
C15   C30   S    
C10   C68   A    
C39   C43   A    
O15   P6    S    
C18   C19   A    
C26   N2    Am   
C29   C30   S    
C67   H25   S    
C40   H34   S    
C33   N2    S    
C27   O11   D    
C9    C10   A    
C43   H41   S    
C1    C12   S    
C16   H51   S    
Ba1   P2    S    
C20   H32   S    
O18   P6    S    
Ba2   O4    S    
C62   C63   S    
O2    P5    D    
C2    C13   A    
C28   O32   S    
C3    C8    D    
C65   H58   S    
Ba2   P4    S    
C38   H33   S    
C46   C59   A    
C21   H31   S    
H61   O28   S    
C32   H40   S    
Ba1   O33   S    
O12   P2    S    
C31   C32   D    
Ba1   O15   S    
C34   C64   S    
C62   H2    S    
C56   H19   S    
O1    P1    D    
Ba1   O5    S    
C66   O9    S    
Ba2   O33   S    
O16   P6    D    
C27   N2    Am   
C10   C11   A    
O21   P3    D    
C47   C48   A    
O23   P3    S    
C44   C54   A    
O27   S2    D    
Ba2   O5    S    
C4    H38   S    
C20   C21   A    
C28   C40   S    
C47   C60   A    
C64   H60   S    
Ba2   O31   S    
C12   O18   S    
C63   H5    S    
Ba1   O30   S    
C45   C56   S    
C67   H27   S    
