data_mof_unit_46649.cif
_audit_creation_date              2012-12-10T19:45:41-0500
_audit_creation_method            fapswitch 2.2
_symmetry_space_group_name_H-M    P1
_symmetry_Int_Tables_number       1
_space_group_crystal_system       triclinic
_cell_length_a                    10.881628
_cell_length_b                    14.717145
_cell_length_c                    14.861444
_cell_angle_alpha                 64.502439
_cell_angle_beta                  103.845304
_cell_angle_gamma                 101.794115
_cell_volume                      2071.78491006

loop_
_atom_site_label
_atom_site_type_symbol
_atom_type_description
_atom_site_fract_x
_atom_site_fract_y
_atom_site_fract_z
_atom_type_partial_charge
C1    C     C_R   0.475217 0.120442 0.311938 0.784402
C2    C     C_R   0.524158 0.879389 0.687564 0.803365
C3    C     C_R   0.869356 0.995534 0.498617 -0.086743
C4    C     C_R   0.130057 0.003069 0.503144 -0.086897
C5    C     C_R   0.909299 0.943036 0.451926 0.017813
C6    C     C_R   0.088730 0.058883 0.546285 0.026078
C7    C     C_R   0.443488 0.189105 0.203651 -0.061380
C8    C     C_R   0.529833 0.808849 0.794695 -0.060512
C9    C     C_R   0.338045 0.216255 0.031907 -0.193949
C10   C     C_R   0.550740 0.778738 0.970186 -0.187148
C11   C     C_R   0.375442 0.150706 0.132101 -0.194655
C12   C     C_R   0.565095 0.844090 0.871682 -0.216597
C13   C     C_R   0.470760 0.294688 0.172776 -0.212624
C14   C     C_R   0.492317 0.704758 0.819630 -0.217395
C15   C     C_R   0.419770 0.361960 0.075131 0.073461
C16   C     C_R   0.466771 0.638578 0.916454 0.070923
C17   C     C_R   0.361158 0.321671 0.002682 0.130069
C18   C     C_R   0.500482 0.677162 0.992636 0.137291
C19   C     C_R   0.429269 0.468368 0.046690 0.015745
C20   C     C_R   0.415849 0.534322 0.941856 0.011740
C21   C     C_R   0.344670 0.492606 0.870526 0.144735
C22   C     C_R   0.438809 0.512091 0.117429 0.113538
C23   C     C_R   0.263177 0.000875 0.501583 0.787339
C24   C     C_R   0.736580 0.999017 0.498684 0.783694
C25   C     C_R   0.320910 0.386597 0.902934 -0.281627
C26   C     C_R   0.480046 0.615099 0.090168 -0.272338
C27   C     C_R   0.742101 0.293953 0.645580 0.056255
C28   C     C_R   0.263300 0.711543 0.346730 0.050484
C29   C     C_R   0.692970 0.206508 0.627425 -0.023656
C30   C     C_R   0.312221 0.797468 0.367140 -0.050636
C31   C     C_R   0.514445 0.283849 0.512392 0.512401
C32   C     C_R   0.481144 0.713939 0.491864 0.545158
C33   C     C_R   0.550474 0.372295 0.532838 -0.088560
C34   C     C_R   0.448635 0.628772 0.466010 -0.142205
C35   C     C_R   0.670584 0.378440 0.595858 0.033021
C36   C     C_R   0.331816 0.625611 0.398722 0.053194
C37   C     C_R   0.474863 0.455690 0.491039 0.113368
C38   C     C_R   0.524901 0.546356 0.505996 0.080990
C39   C     C_R   0.651291 0.553350 0.556611 -0.237128
C40   C     C_R   0.349780 0.451500 0.436907 -0.201004
C41   C     C_R   0.719720 0.470704 0.604140 -0.223290
C42   C     C_R   0.283117 0.534910 0.388166 -0.252414
C43   C     C_R   0.320805 0.188580 0.706048 0.192612
C44   C     C_R   0.647341 0.871620 0.263147 0.216020
C45   C     C_R   0.265834 0.115135 0.665317 -0.103531
C46   C     C_R   0.725428 0.927853 0.316141 -0.087614
C47   C     C_R   0.166265 0.137566 0.581390 0.051201
C48   C     C_R   0.822691 0.883956 0.396753 0.099054
C49   C     C_R   0.120912 0.232986 0.540876 -0.216238
C50   C     C_R   0.845335 0.784919 0.419621 -0.175050
C51   C     C_R   0.168801 0.302014 0.585205 -0.176107
C52   C     C_R   0.771607 0.730684 0.364277 -0.176818
C53   C     C_R   0.269213 0.280698 0.666195 -0.182080
C54   C     C_R   0.671769 0.773008 0.287601 -0.158649
C55   C     C_R   0.959556 0.048021 0.548263 -0.231974
C56   C     C_R   0.039350 0.946460 0.457094 -0.239500
Cu1   Cu    Cu3+1 0.466270 0.918260 0.475690 0.969764
Cu2   Cu    Cu3+1 0.533730 0.081740 0.524310 0.947194
H1    H     H_    0.308066 0.336979 0.697405 0.125183
H2    H     H_    0.613245 0.728515 0.247802 0.116187
H3    H     H_    0.287675 0.184420 0.977842 0.126076
H4    H     H_    0.577532 0.807925 0.028730 0.139515
H5    H     H_    0.814082 0.481859 0.645023 0.140924
H6    H     H_    0.190531 0.525607 0.343965 0.142631
H7    H     H_    0.265923 0.865716 0.329934 0.163110
H8    H     H_    0.742701 0.140055 0.662512 0.162572
H9    H     H_    0.702029 0.623309 0.559123 0.203201
H10   H     H_    0.296876 0.384944 0.429939 0.192836
H11   H     H_    0.297189 0.040565 0.699167 0.144104
H12   H     H_    0.709064 0.004949 0.296005 0.112216
H13   H     H_    0.043244 0.252119 0.477197 0.148396
H14   H     H_    0.920807 0.749639 0.480274 0.133287
H15   H     H_    0.129711 0.373407 0.555116 0.149954
H16   H     H_    0.790453 0.654796 0.382186 0.152862
H17   H     H_    0.928684 0.085396 0.586647 0.161346
H18   H     H_    0.069602 0.907090 0.420446 0.157069
H19   H     H_    0.268369 0.353728 0.850114 0.131169
H20   H     H_    0.492959 0.648065 0.144857 0.127265
H21   H     H_    0.488272 0.676009 0.763896 0.163744
H22   H     H_    0.534872 0.323699 0.224396 0.153189
H23   H     H_    0.604869 0.921621 0.855960 0.159793
H24   H     H_    0.349716 0.070111 0.153461 0.149916
N1    N     N_R   0.584450 0.204570 0.560790 -0.222566
N2    N     N_R   0.415550 0.795430 0.439210 -0.210637
O1    O     O_R   0.455540 0.022090 0.338120 -0.610958
O2    O     O_R   0.544460 0.977910 0.661880 -0.611333
O3    O     O_R   0.512510 0.160150 0.379180 -0.525891
O4    O     O_R   0.487490 0.839850 0.620820 -0.528732
O5    O     O_R   0.291160 0.930970 0.479480 -0.591213
O6    O     O_R   0.708840 0.069030 0.520520 -0.599384
O7    O     O_R   0.348130 0.069020 0.520540 -0.587258
O8    O     O_R   0.651870 0.930980 0.479460 -0.534238
C57   C     C_3   0.270278 0.553526 0.766908 -0.395402
C58   C     C_3   0.180370 0.617167 0.773294 -0.799761
H25   H     H_    0.116595 0.568385 0.828615 0.248075
H26   H     H_    0.233601 0.678727 0.796071 0.257150
H27   H     H_    0.120684 0.652455 0.697973 0.231877
H28   H     H_    0.331144 0.599623 0.709512 0.188032
H29   H     H_    0.208590 0.501545 0.733606 0.189172
C59   C     C_3   0.382170 0.458724 0.213471 -0.368607
C60   C     C_3   0.242636 0.415737 0.194279 -0.785931
H30   H     H_    0.202022 0.386011 0.264716 0.233899
H31   H     H_    0.186286 0.476133 0.134824 0.241396
H32   H     H_    0.233224 0.352433 0.170606 0.259427
H33   H     H_    0.439838 0.400500 0.271131 0.253217
H34   H     H_    0.384508 0.512996 0.247456 0.211162
O9    O     O_3   0.569016 0.714402 0.575167 -0.715829
H35   H     H_    0.555399 0.647051 0.631029 0.284941
O10   O     O_3   0.420332 0.280886 0.434353 -0.754234
H36   H     H_    0.347060 0.238519 0.465918 0.337669
C61   C     C_3   0.869677 0.299210 0.715118 -0.399695
C62   C     C_3   0.935204 0.202264 0.768213 -0.859008
H37   H     H_    0.873170 0.139254 0.816542 0.245828
H38   H     H_    0.959588 0.181007 0.711928 0.257417
H39   H     H_    0.025270 0.215475 0.817395 0.245429
H40   H     H_    0.937062 0.359836 0.670033 0.200348
H41   H     H_    0.854515 0.319904 0.774986 0.209420
C63   C     C_3   0.139986 0.709799 0.271784 -0.402505
C64   C     C_3   0.077711 0.808303 0.217659 -0.860624
H42   H     H_    0.049094 0.828496 0.273068 0.252300
H43   H     H_    0.143643 0.870968 0.173136 0.243260
H44   H     H_    0.990487 0.797746 0.164618 0.251689
H45   H     H_    0.159883 0.690183 0.212700 0.208988
H46   H     H_    0.068732 0.649767 0.312764 0.202886
C65   C     C_3   0.432310 0.174033 0.792288 -0.422469
C66   C     C_3   0.496583 0.080016 0.824076 -0.888837
H47   H     H_    0.432579 0.010706 0.860571 0.256019
H48   H     H_    0.522455 0.078405 0.757284 0.280340
H49   H     H_    0.585658 0.082386 0.878474 0.247240
H50   H     H_    0.505418 0.240780 0.768878 0.213361
H51   H     H_    0.399991 0.171706 0.858742 0.201113
C67   C     C_3   0.535616 0.915013 0.183406 -0.435282
C68   C     C_3   0.578012 0.007955 0.093922 -0.859128
H52   H     H_    0.626417 0.070150 0.117687 0.254358
H53   H     H_    0.643806 0.988052 0.060194 0.252012
H54   H     H_    0.493060 0.035398 0.036010 0.257132
H55   H     H_    0.479261 0.857761 0.154912 0.195513
H56   H     H_    0.471605 0.935666 0.217636 0.219718

loop_
_geom_bond_atom_site_label_1
_geom_bond_atom_site_label_2
_ccdc_geom_bond_type
C1    O3    A    
C57   C58   S    
C56   H18   S    
Cu1   O8    S    
C27   C29   A    
C5    C56   A    
C36   C42   A    
C61   C62   S    
C18   C26   A    
C6    C55   A    
C49   H13   S    
Cu2   O3    S    
C43   C65   S    
C62   H38   S    
C53   H1    S    
C39   C41   A    
C54   H2    S    
C15   C19   A    
C59   H33   S    
C26   H20   S    
Cu1   O5    S    
C25   H19   S    
C29   N1    A    
C37   C40   A    
C52   H16   S    
C38   C39   A    
C67   H56   S    
Cu2   O2    S    
C31   N1    A    
C50   H14   S    
C63   C64   S    
C3    C55   A    
C65   H50   S    
C43   C53   A    
C19   C20   A    
C44   C46   A    
C67   C68   S    
C49   C51   A    
C32   O9    S    
C68   H54   S    
C50   C52   A    
O9    H35   S    
C23   O5    A    
C2    O4    A    
C61   H40   S    
C14   C16   A    
C23   O7    A    
Cu2   O7    S    
C57   H29   S    
C16   C20   A    
C55   H17   S    
C40   C42   A    
C13   H22   S    
C27   C61   S    
C60   H31   S    
C1    C7    S    
C4    C56   A    
C3    C24   S    
C10   H4    S    
C24   O8    A    
C62   H37   S    
C52   C54   A    
C45   C47   A    
C11   H24   S    
C1    O1    A    
C32   N2    A    
C5    C48   S    
C46   C48   A    
C22   C59   S    
C6    C47   S    
C45   H11   S    
C60   H30   S    
C19   C22   A    
C47   C49   A    
C4    C23   S    
C66   H49   S    
C27   C35   A    
C67   H55   S    
C33   C37   A    
C51   C53   A    
C32   C34   A    
C7    C11   A    
C37   C38   A    
C43   C45   A    
C65   H51   S    
C8    C12   A    
C31   C33   A    
C31   O10   S    
Cu1   N2    S    
C63   H46   S    
C14   H21   S    
C58   H26   S    
C9    C11   A    
C64   H43   S    
C10   C12   A    
Cu2   O6    S    
C4    C6    A    
C60   H32   S    
C13   C15   A    
C22   C26   A    
C65   C66   S    
C9    H3    S    
C41   H5    S    
C42   H6    S    
C66   H48   S    
C64   H44   S    
C9    C17   A    
C15   C17   A    
C21   C25   A    
C8    C14   A    
C34   C38   A    
C39   H9    S    
C2    C8    S    
C51   H15   S    
C3    C5    A    
C24   O6    A    
C64   H42   S    
C44   C67   S    
C59   H34   S    
C58   H27   S    
Cu1   O4    S    
C61   H41   S    
C17   C25   A    
C28   C30   A    
C28   C63   S    
Cu2   N1    S    
Cu1   Cu2   S    
C68   H52   S    
C21   C57   S    
C10   C18   A    
C66   H47   S    
C48   C50   A    
C59   C60   S    
C33   C35   A    
Cu1   O1    S    
C12   H23   S    
C2    O2    A    
C34   C36   A    
C63   H45   S    
C30   N2    A    
C58   H25   S    
C35   C41   A    
C46   H12   S    
C30   H7    S    
C29   H8    S    
C44   C54   A    
C7    C13   A    
C20   C21   A    
C28   C36   A    
C16   C18   A    
C40   H10   S    
C68   H53   S    
O10   H36   S    
C57   H28   S    
C62   H39   S    
