data_mof_unit_26519.cif
_audit_creation_date              2012-10-26T19:00:11-0400
_audit_creation_method            fapswitch 2.2
_symmetry_space_group_name_H-M    P1
_symmetry_Int_Tables_number       1
_space_group_crystal_system       triclinic
_cell_length_a                    10.792676
_cell_length_b                    10.803138
_cell_length_c                    9.539776
_cell_angle_alpha                 90.034739
_cell_angle_beta                  90.144021
_cell_angle_gamma                 90.007297
_cell_volume                      1112.28424395

loop_
_atom_site_label
_atom_site_type_symbol
_atom_type_description
_atom_site_fract_x
_atom_site_fract_y
_atom_site_fract_z
_atom_type_partial_charge
C1    C     C_R   0.498349 0.262545 0.499814 0.547698
C2    C     C_R   0.844338 0.255540 0.929653 -0.112051
C3    C     C_R   0.777305 0.156088 0.874287 -0.107814
C4    C     C_R   0.262436 0.502941 0.499861 0.541037
C5    C     C_R   0.762236 0.144669 0.729281 -0.108992
C6    C     C_R   0.812089 0.233793 0.639547 -0.060395
C7    C     C_R   0.879636 0.333975 0.694376 0.048057
C8    C     C_R   0.428688 0.062992 0.598745 -0.006888
C9    C     C_R   0.492498 0.129560 0.496551 -0.052952
C10   C     C_R   0.544088 0.065575 0.382611 -0.137477
C11   C     C_R   0.546767 0.936753 0.382558 0.329616
C12   C     C_R   0.237264 0.818459 0.108674 -0.087129
C13   C     C_R   0.497218 0.870944 0.496901 0.008631
C14   C     C_R   0.432122 0.935924 0.599261 -0.054855
C15   C     C_3   0.434279 0.929252 0.755385 -0.259158
C16   C     C_R   0.501394 0.737609 0.499772 0.575555
C17   C     C_3   0.428163 0.070125 0.755149 -0.262165
C18   C     C_R   0.559326 0.591623 0.073820 0.207886
C19   C     C_R   0.431667 0.416758 0.074198 -0.014622
C20   C     C_R   0.431845 0.416593 0.925261 -0.012618
C21   C     C_R   0.558345 0.592291 0.926402 0.158142
C22   C     C_3   0.692300 0.624877 0.919557 -0.287956
C23   C     C_R   0.932910 0.567448 0.400916 -0.152841
C24   C     C_3   0.694333 0.621396 0.078440 -0.272830
C25   C     C_R   0.737614 0.496757 0.500126 0.546917
C26   C     C_R   0.243321 0.842999 0.252303 -0.080668
C27   C     C_R   0.186685 0.762887 0.347608 -0.071370
C28   C     C_R   0.122120 0.658297 0.299253 0.051329
C29   C     C_R   0.114926 0.634924 0.154606 -0.087052
C30   C     C_R   0.173289 0.714426 0.059752 -0.113463
C31   C     C_R   0.871588 0.494287 0.499833 -0.003488
C32   C     C_R   0.938934 0.424075 0.598689 -0.034202
C33   C     C_R   0.067370 0.432128 0.598996 -0.151373
C34   C     C_R   0.128550 0.505089 0.500004 0.000637
C35   C     C_R   0.061366 0.573966 0.400077 -0.032944
C36   C     C_R   0.896880 0.343343 0.840043 -0.107032
Cu1   Cu    Cu3+1 0.499990 0.499980 0.640670 0.936645
Cu2   Cu    Cu3+1 0.500010 0.500020 0.359330 0.971555
F1    F     F_    0.604253 0.877736 0.275348 -0.661682
H1    H     H_    0.281614 0.880591 0.035555 0.106468
H2    H     H_    0.378218 0.347919 0.129870 0.116246
H3    H     H_    0.291608 0.924347 0.289701 0.114216
H4    H     H_    0.378574 0.347620 0.869208 0.110038
H5    H     H_    0.749574 0.551255 0.871273 0.164555
H6    H     H_    0.707203 0.719128 0.876036 0.126569
H7    H     H_    0.751222 0.543970 0.120382 0.134501
H8    H     H_    0.713432 0.713118 0.126281 0.199341
H9    H     H_    0.192454 0.782603 0.458791 0.094371
H10   H     H_    0.065309 0.554729 0.115691 0.093058
H11   H     H_    0.168579 0.695646 0.948385 0.108498
H12   H     H_    0.737672 0.087478 0.943623 0.121096
H13   H     H_    0.880404 0.622936 0.327005 0.131932
H14   H     H_    0.120270 0.376722 0.672758 0.122374
H15   H     H_    0.950108 0.419068 0.884052 0.090001
H16   H     H_    0.856512 0.264031 0.041911 0.110078
H17   H     H_    0.712183 0.066530 0.686269 0.109720
H18   H     H_    0.799984 0.223587 0.527371 0.096824
H19   H     H_    0.588269 0.114891 0.297399 0.150100
H20   H     H_    0.349289 0.884737 0.797092 0.136034
H21   H     H_    0.523179 0.892319 0.797200 0.146986
H22   H     H_    0.338923 0.106512 0.795986 0.126244
H23   H     H_    0.511911 0.115107 0.799540 0.150900
N1    N     N_R   0.500790 0.500930 0.147930 -0.233223
N2    N     N_R   0.500790 0.500890 0.852020 -0.231251
O1    O     O_R   0.500000 0.319640 0.618810 -0.497408
O2    O     O_R   0.500010 0.319680 0.381230 -0.519670
O3    O     O_R   0.319640 0.499990 0.618790 -0.515042
O4    O     O_R   0.319650 0.500030 0.381210 -0.495036
O5    O     O_R   0.499990 0.680320 0.618770 -0.516627
O6    O     O_R   0.500000 0.680360 0.381190 -0.434296
O7    O     O_R   0.680350 0.499970 0.618790 -0.495715
O8    O     O_R   0.680360 0.500010 0.381210 -0.511571

loop_
_geom_bond_atom_site_label_1
_geom_bond_atom_site_label_2
_ccdc_geom_bond_type
C27   H9    S    
C12   H1    S    
C4    O3    A    
C1    O1    A    
Cu2   O6    S    
C20   N2    A    
C29   C30   A    
C25   O7    A    
Cu1   O5    S    
C17   H23   S    
C18   C21   A    
C9    C10   A    
C5    H17   S    
C8    C17   S    
C15   H20   S    
C33   C34   A    
C24   H7    S    
C32   C33   A    
C20   H4    S    
C2    C3    A    
C30   H11   S    
C1    C9    S    
Cu2   O8    S    
C29   H10   S    
C21   C22   S    
C11   F1    S    
C11   C13   A    
C6    H18   S    
C19   H2    S    
C23   H13   S    
C6    C7    A    
C25   O8    A    
C18   C24   S    
Cu1   O3    S    
C22   C24   S    
C28   C29   A    
C10   H19   S    
Cu1   Cu2   S    
Cu2   O4    S    
C1    O2    A    
C23   C35   A    
C2    H16   S    
Cu1   O7    S    
C26   C27   A    
C5    C6    A    
C34   C35   A    
C31   C32   A    
C4    C34   S    
C18   N1    A    
C36   H15   S    
C10   C11   A    
C2    C36   A    
C23   C31   A    
Cu2   O2    S    
C22   H6    S    
C16   O6    A    
C33   H14   S    
C26   H3    S    
C4    O4    A    
Cu2   N1    S    
C7    C36   A    
C13   C16   S    
C19   N1    A    
C27   C28   A    
C15   C17   S    
C3    H12   S    
C14   C15   S    
C8    C9    A    
C21   N2    A    
C8    C14   A    
C7    C32   S    
C17   H22   S    
C13   C14   A    
C24   H8    S    
C12   C30   A    
C25   C31   S    
C15   H21   S    
C22   H5    S    
C16   O5    A    
C19   C20   A    
C28   C35   S    
C12   C26   A    
Cu1   N2    S    
C3    C5    A    
Cu1   O1    S    
