data_mof_unit_49792.cif
_audit_creation_date              2012-12-11T14:33:53-0500
_audit_creation_method            fapswitch 2.2
_symmetry_space_group_name_H-M    P1
_symmetry_Int_Tables_number       1
_space_group_crystal_system       triclinic
_cell_length_a                    14.126904
_cell_length_b                    14.090103
_cell_length_c                    27.275339
_cell_angle_alpha                 89.935189
_cell_angle_beta                  90.216512
_cell_angle_gamma                 120.080287
_cell_volume                      4697.93233217

loop_
_atom_site_label
_atom_site_type_symbol
_atom_type_description
_atom_site_fract_x
_atom_site_fract_y
_atom_site_fract_z
_atom_type_partial_charge
C1    C     C_R   0.259217 0.768434 0.574217 0.539293
C2    C     C_R   0.215875 0.453322 0.570350 0.537048
C3    C     C_R   0.546975 0.762180 0.570345 0.537737
C4    C     C_3   0.680975 0.753559 0.792162 -0.194323
C5    C     C_3   0.247306 0.919985 0.791265 -0.194366
C6    C     C_3   0.080145 0.316609 0.790258 -0.196171
C7    C     C_3   0.642794 0.725576 0.738408 0.029499
C8    C     C_3   0.281828 0.903729 0.739892 0.022654
C9    C     C_3   0.093543 0.357795 0.737109 0.023599
C10   C     C_1   0.676042 0.847722 0.866812 -0.021460
C11   C     C_1   0.148263 0.827327 0.866227 -0.013141
C12   C     C_1   0.174854 0.322213 0.866382 -0.018069
C13   C     C_1   0.596907 0.797133 0.664022 -0.016611
C14   C     C_1   0.221386 0.779119 0.668085 -0.020053
C15   C     C_1   0.209866 0.404468 0.663843 -0.015027
C16   C     C_1   0.579632 0.784246 0.620605 0.020038
C17   C     C_1   0.239147 0.775193 0.625176 0.014883
C18   C     C_1   0.208959 0.421221 0.620568 0.026644
C19   C     C_R   0.106665 0.222435 0.087702 0.548015
C20   C     C_R   0.777652 0.884122 0.087711 0.547662
C21   C     C_R   0.115887 0.893237 0.087645 0.548490
C22   C     C_R   0.107944 0.222123 0.951864 0.575620
C23   C     C_R   0.776701 0.885209 0.952335 0.573718
C24   C     C_R   0.113412 0.892500 0.951492 0.575484
C25   C     C_R   0.628612 0.898334 0.361731 -0.106972
C26   C     C_R   0.101378 0.730874 0.361864 -0.106953
C27   C     C_R   0.268500 0.370536 0.362049 -0.106499
C28   C     C_R   0.652873 0.915420 0.311421 -0.012306
C29   C     C_R   0.084398 0.737715 0.311471 -0.012370
C30   C     C_R   0.261974 0.347094 0.311659 -0.012272
C31   C     C_R   0.689566 0.937605 0.209232 -0.009257
C32   C     C_R   0.062651 0.751224 0.209133 -0.009142
C33   C     C_R   0.248644 0.311600 0.209376 -0.009081
C34   C     C_R   0.233731 0.787898 0.431464 0.555395
C35   C     C_R   0.212104 0.446114 0.431414 0.547949
C36   C     C_R   0.553797 0.766189 0.431390 0.548916
C37   C     C_R   0.687539 0.022349 0.236109 0.174541
C38   C     C_R   0.977957 0.664584 0.236015 0.173781
C39   C     C_R   0.334726 0.313064 0.236619 0.174317
C40   C     C_R   0.668902 0.011157 0.287142 0.172164
C41   C     C_R   0.988888 0.657685 0.287146 0.171465
C42   C     C_R   0.341528 0.330986 0.287722 0.171903
C43   C     C_R   0.715908 0.948624 0.159103 -0.109978
C44   C     C_R   0.051696 0.766362 0.158927 -0.110170
C45   C     C_R   0.233370 0.285028 0.159222 -0.110064
C46   C     C_R   0.719801 0.863854 0.134041 -0.013775
C47   C     C_R   0.136335 0.855074 0.133899 -0.014138
C48   C     C_R   0.145261 0.281553 0.133833 -0.014107
C49   C     C_R   0.626593 0.725243 0.358095 -0.110009
C50   C     C_R   0.274107 0.902272 0.358237 -0.110170
C51   C     C_R   0.098782 0.374282 0.357609 -0.110360
C52   C     C_R   0.643425 0.736697 0.308109 0.009491
C53   C     C_R   0.262843 0.907201 0.308179 0.009462
C54   C     C_R   0.094011 0.358079 0.307564 0.009486
C55   C     C_R   0.655820 0.831413 0.284350 0.022514
C56   C     C_R   0.168391 0.824494 0.284376 0.022529
C57   C     C_R   0.176008 0.345266 0.284178 0.022568
C58   C     C_R   0.641798 0.651290 0.281349 -0.086441
C59   C     C_R   0.348268 0.990723 0.281415 -0.086090
C60   C     C_R   0.011272 0.360830 0.280403 -0.086802
C61   C     C_R   0.651396 0.658543 0.230846 -0.089000
C62   C     C_R   0.341311 0.992386 0.230858 -0.089029
C63   C     C_R   0.009597 0.351840 0.229874 -0.089447
C64   C     C_R   0.667366 0.753215 0.206940 0.012722
C65   C     C_R   0.246846 0.913404 0.206902 0.012727
C66   C     C_R   0.087872 0.335314 0.206339 0.012892
C67   C     C_3   0.512988 0.792830 0.744976 -0.270504
C68   C     C_3   0.213862 0.706768 0.752712 -0.272398
C69   C     C_3   0.290756 0.487976 0.745679 -0.269263
C70   C     C_R   0.670351 0.840816 0.233498 0.023319
C71   C     C_R   0.159234 0.829052 0.233465 0.023445
C72   C     C_R   0.171514 0.331349 0.233292 0.023434
C73   C     C_R   0.687179 0.763771 0.157141 -0.118327
C74   C     C_R   0.236395 0.922318 0.157029 -0.118491
C75   C     C_R   0.078884 0.315536 0.156515 -0.118460
C76   C     C_R   0.610916 0.801350 0.384443 -0.009581
C77   C     C_R   0.198270 0.810306 0.384587 -0.009854
C78   C     C_R   0.189731 0.388871 0.384398 -0.009521
C79   C     C_3   0.713508 0.935706 0.728798 0.051836
C80   C     C_3   0.073745 0.761910 0.726668 0.054192
C81   C     C_3   0.233065 0.287492 0.728883 0.051065
C82   C     C_3   0.722013 0.953096 0.787558 0.199414
C83   C     C_3   0.049959 0.759425 0.784818 0.201861
C84   C     C_3   0.240242 0.278818 0.787839 0.198759
C85   C     C_1   0.715430 0.863413 0.907451 0.027160
C86   C     C_1   0.133224 0.852736 0.906463 0.030708
C87   C     C_1   0.148432 0.283012 0.906938 0.029339
C88   C     C_3   0.618274 0.814183 0.717291 0.076723
C89   C     C_3   0.196536 0.787664 0.719984 0.077924
C90   C     C_3   0.207114 0.382919 0.717061 0.077818
C91   C     C_3   0.528515 0.793030 0.801705 -0.271975
C92   C     C_3   0.208352 0.729409 0.808156 -0.272251
C93   C     C_3   0.270961 0.471609 0.802219 -0.272386
C94   C     C_3   0.651364 0.837852 0.813555 0.050875
C95   C     C_3   0.161970 0.807868 0.814047 0.053108
C96   C     C_3   0.193131 0.347780 0.813246 0.051704
Cr1   Cr    Cr6+3 0.164410 0.584450 0.499910 1.060706
Cr2   Cr    Cr6+3 0.415550 0.579960 0.499910 1.057729
Cr3   Cr    Cr6+3 0.420040 0.835590 0.499910 1.059612
Cr4   Cr    Cr6+3 0.155170 0.075460 0.019960 1.059806
Cr5   Cr    Cr6+3 0.924540 0.079710 0.019960 1.059014
Cr6   Cr    Cr6+3 0.920290 0.844830 0.019960 1.058292
H1    H     H_    0.496610 0.841400 0.820178 0.114654
H2    H     H_    0.158853 0.651353 0.828363 0.115497
H3    H     H_    0.349762 0.504536 0.822278 0.114680
H4    H     H_    0.445232 0.711772 0.733640 0.101584
H5    H     H_    0.295212 0.718048 0.745211 0.104709
H6    H     H_    0.280775 0.557044 0.733555 0.101235
H7    H     H_    0.479222 0.707894 0.815896 0.115394
H8    H     H_    0.291944 0.767996 0.824368 0.114499
H9    H     H_    0.233050 0.519706 0.815214 0.116276
H10   H     H_    0.769662 0.787013 0.794495 0.240021
H11   H     H_    0.212483 0.974229 0.788563 0.236460
H12   H     H_    0.026210 0.227247 0.790951 0.236166
H13   H     H_    0.740525 0.024749 0.139999 0.171789
H14   H     H_    0.975642 0.714910 0.139755 0.171636
H15   H     H_    0.284170 0.259531 0.140402 0.171803
H16   H     H_    0.617073 0.956481 0.382940 0.180286
H17   H     H_    0.043357 0.661146 0.383116 0.180531
H18   H     H_    0.337480 0.381149 0.383626 0.180716
H19   H     H_    0.688155 0.697455 0.137365 0.148257
H20   H     H_    0.302648 0.989507 0.137226 0.147889
H21   H     H_    0.012223 0.315160 0.136418 0.147514
H22   H     H_    0.648988 0.591244 0.210588 0.192978
H23   H     H_    0.408621 0.057040 0.210585 0.192647
H24   H     H_    0.945419 0.354940 0.209304 0.192043
H25   H     H_    0.631128 0.578028 0.299407 0.198447
H26   H     H_    0.421327 0.053573 0.299521 0.198677
H27   H     H_    0.948948 0.371807 0.298181 0.198322
H28   H     H_    0.487706 0.852650 0.734754 0.119864
H29   H     H_    0.154268 0.620419 0.744107 0.115431
H30   H     H_    0.376303 0.512203 0.737193 0.117986
H31   H     H_    0.614986 0.650801 0.375392 0.165653
H32   H     H_    0.348359 0.965320 0.375597 0.165459
H33   H     H_    0.036382 0.386441 0.374632 0.165492
H34   H     H_    0.565227 0.645277 0.738575 0.139432
H35   H     H_    0.361823 0.907378 0.744183 0.137440
H36   H     H_    0.091457 0.435603 0.737909 0.140452
H37   H     H_    0.642193 0.676602 0.814145 0.110291
H38   H     H_    0.321319 0.962422 0.815058 0.115113
H39   H     H_    0.039012 0.352529 0.811927 0.114153
O1    O     O_R   0.137150 0.468200 0.553200 -0.487503
O2    O     O_R   0.531800 0.668950 0.553200 -0.484057
O3    O     O_R   0.331050 0.862850 0.553200 -0.471522
O4    O     O_R   0.179100 0.982980 0.967000 -0.502075
O5    O     O_R   0.017020 0.196120 0.967000 -0.502543
O6    O     O_R   0.803880 0.820900 0.967000 -0.503825
O7    O     O_R   0.173970 0.688730 0.549930 -0.495403
O8    O     O_R   0.311270 0.485240 0.549930 -0.504893
O9    O     O_R   0.514760 0.826030 0.549930 -0.512946
O10   O     O_R   0.140110 0.470540 0.446010 -0.508791
O11   O     O_R   0.529460 0.669570 0.446010 -0.508022
O12   O     O_R   0.330430 0.859890 0.446010 -0.506969
O13   O     O_R   0.176710 0.690910 0.450560 -0.495446
O14   O     O_R   0.309090 0.485800 0.450560 -0.497663
O15   O     O_R   0.514200 0.823290 0.450560 -0.498819
O16   O     O_3   0.333333 0.666667 0.499990 -0.314968
O17   O     O_R   0.176750 0.985260 0.074180 -0.515231
O18   O     O_R   0.014740 0.191490 0.074180 -0.515618
O19   O     O_R   0.808510 0.823250 0.074180 -0.515914
O20   O     O_R   0.146100 0.172630 0.068980 -0.501222
O21   O     O_R   0.827370 0.973470 0.068980 -0.501012
O22   O     O_R   0.026530 0.853900 0.068980 -0.500738
O23   O     O_3   1.000000 0.000000 0.020040 -0.225002
O24   O     O_R   0.148270 0.170520 0.969620 -0.483050
O25   O     O_R   0.829480 0.977750 0.969620 -0.481976
O26   O     O_R   0.022250 0.851730 0.969620 -0.486401
Br1   Br    Br    0.707221 0.152878 0.203501 -0.444562
Br2   Br    Br    0.847950 0.553105 0.203284 -0.446641
Br3   Br    Br    0.445667 0.293923 0.204397 -0.446407
Br4   Br    Br    0.668309 0.128886 0.323237 -0.422415
Br5   Br    Br    0.871094 0.539786 0.323299 -0.423626
Br6   Br    Br    0.458806 0.330617 0.324345 -0.425571
C97   C     C_3   0.822440 0.953190 0.706638 -0.320822
H40   H     H_    0.885901 0.040586 0.708065 0.191016
H41   H     H_    0.854944 0.907396 0.726670 0.220962
H42   H     H_    0.812869 0.928647 0.667457 0.157268
C98   C     C_3   0.058163 0.850374 0.699460 -0.321866
H43   H     H_    0.970778 0.826968 0.697886 0.194146
H44   H     H_    0.101723 0.930642 0.717999 0.201424
H45   H     H_    0.087109 0.861170 0.660972 0.163427
C99   C     C_3   0.142601 0.178011 0.706205 -0.323564
H46   H     H_    0.166686 0.114476 0.707943 0.187371
H47   H     H_    0.064525 0.145645 0.725927 0.207181
H48   H     H_    0.128042 0.187558 0.666943 0.157851
C100  C     C_3   0.691375 0.020392 0.701306 -0.370659
H49   H     H_    0.610088 0.010405 0.708810 0.133608
H50   H     H_    0.752700 0.105184 0.711555 0.200898
H51   H     H_    0.697094 0.014464 0.660918 0.159250
C101  C     C_3   0.992283 0.652052 0.700218 -0.373584
H52   H     H_    0.998512 0.580751 0.712712 0.130931
H53   H     H_    0.906624 0.632065 0.705743 0.197971
H54   H     H_    0.005783 0.658314 0.659962 0.157256
C102  C     C_3   0.340271 0.309806 0.702291 -0.372767
H55   H     H_    0.412334 0.390093 0.711251 0.131074
H56   H     H_    0.361088 0.246046 0.711782 0.198294
H57   H     H_    0.330298 0.307293 0.661801 0.157656
C103  C     C_3   0.684863 0.034332 0.805486 -0.348326
H58   H     H_    0.743513 0.119437 0.793730 0.168963
H59   H     H_    0.602705 0.013042 0.791692 0.104520
H60   H     H_    0.682259 0.036032 0.846139 0.147173
C104  C     C_3   0.967013 0.642942 0.804355 -0.345827
H61   H     H_    0.884005 0.614215 0.789113 0.174718
H62   H     H_    0.990565 0.581012 0.795236 0.100876
H63   H     H_    0.959600 0.643684 0.844849 0.148520
C105  C     C_3   0.358325 0.318133 0.806872 -0.347762
H64   H     H_    0.386713 0.261196 0.795035 0.167597
H65   H     H_    0.418658 0.401364 0.793921 0.102912
H66   H     H_    0.360946 0.319622 0.847573 0.148188
Br7   Br    Br    0.873296 0.021849 0.812454 -0.519409
Br8   Br    Br    0.979611 0.844546 0.802377 -0.525859
Br9   Br    Br    0.159240 0.126944 0.812215 -0.518503
Br10  Br    Br    0.736404 0.690101 0.699447 -0.618895
Br11  Br    Br    0.320755 0.028072 0.696384 -0.618298
Br12  Br    Br    0.966839 0.267037 0.695978 -0.631939

loop_
_geom_bond_atom_site_label_1
_geom_bond_atom_site_label_2
_ccdc_geom_bond_type
C15   C18   T    
C102  H56   S    
C10   C85   T    
C101  H52   S    
C21   O22   A    
C79   C100  S    
C82   Br7   S    
Cr2   O2    S    
C2    C18   S    
C33   C45   A    
C21   O17   A    
C48   C75   A    
C27   C78   A    
C92   H8    S    
C25   H16   S    
C6    C9    S    
C98   H43   S    
C53   C59   A    
Cr2   O11   S    
C27   H18   S    
C9    Br12  S    
C25   C28   A    
C67   C88   S    
Cr6   O26   S    
C31   C43   A    
C38   Br2   S    
C60   C63   A    
C82   C94   S    
Cr5   O21   S    
C35   O14   A    
C82   C103  S    
C39   Br3   S    
C69   C93   S    
C24   O4    A    
C83   C104  S    
C34   C77   S    
C19   O20   A    
C84   Br9   S    
C105  H65   S    
C53   C56   A    
C102  H57   S    
C28   C40   A    
C11   C86   T    
C45   H15   S    
C30   C57   A    
C20   C46   S    
C84   C96   S    
C80   C89   S    
C97   H40   S    
C6    H12   S    
C36   C76   S    
C33   C72   A    
C93   H3    S    
C81   C102  S    
C99   H46   S    
C22   O24   A    
C51   H33   S    
C28   C55   A    
C31   C70   A    
C66   C72   A    
C22   O5    A    
Cr6   O22   S    
C59   C62   A    
C104  H63   S    
C64   C73   A    
C103  H58   S    
C68   H5    S    
C32   C38   A    
C37   Br1   S    
C4    H37   S    
C101  H54   S    
C44   C47   A    
C43   H13   S    
C56   C71   A    
C2    O8    A    
C102  H55   S    
C4    H10   S    
C63   C66   A    
C83   C95   S    
C58   H25   S    
Cr4   O24   S    
C27   C30   A    
C79   C97   S    
C35   O10   A    
C81   C99   S    
C4    C7    S    
C79   C88   S    
C5    C95   S    
C69   H6    S    
C10   C94   S    
C39   C42   A    
C97   H41   S    
C34   O13   A    
C32   C44   A    
C52   C58   A    
Cr3   O9    S    
Cr5   O5    S    
C26   C77   A    
C104  H61   S    
C98   H45   S    
Cr3   O3    S    
C24   O26   A    
C3    O2    A    
C26   H17   S    
C38   C41   A    
C50   H32   S    
Cr6   O19   S    
C105  H64   S    
C36   O11   A    
C54   C60   A    
C59   H26   S    
C22   C87   S    
C23   O6    A    
C92   C95   S    
C65   C74   A    
C31   C37   A    
C8    H35   S    
C99   H48   S    
Cr1   O16   S    
C9    C90   S    
C68   H29   S    
C64   C70   A    
C14   C89   S    
C84   C105  S    
Cr6   O6    S    
C62   H23   S    
C23   O25   A    
C33   C39   A    
C9    H36   S    
C5    H11   S    
C7    C88   S    
Cr2   O16   S    
Cr4   O4    S    
C49   C52   A    
C20   O21   A    
Cr3   O15   S    
C103  H60   S    
C67   C91   S    
C68   C89   S    
Cr1   O10   S    
C49   C76   A    
Cr4   O23   S    
C32   C71   A    
Cr1   O13   S    
C6    H39   S    
C97   H42   S    
C44   H14   S    
Cr4   O20   S    
C104  H62   S    
C93   H9    S    
C4    C94   S    
C81   C90   S    
C74   H20   S    
C93   C96   S    
C73   H19   S    
Cr3   O16   S    
C20   O19   A    
C2    O1    A    
Cr1   O7    S    
C75   H21   S    
C67   H28   S    
C100  H50   S    
C69   C90   S    
C50   C77   A    
C81   C84   S    
C36   O15   A    
C5    H38   S    
C80   C83   S    
C45   C48   A    
C11   C95   S    
C49   H31   S    
Cr2   O14   S    
C3    O9    A    
C101  H53   S    
C62   C65   A    
C29   C41   A    
C19   C48   S    
C80   C101  S    
Cr5   O23   S    
C30   C42   A    
C47   C74   A    
C91   H1    S    
C7    Br10  S    
C42   Br6   S    
C60   H27   S    
C79   C82   S    
C98   H44   S    
C52   C55   A    
C67   H4    S    
C29   C56   A    
C37   C40   A    
C35   C78   S    
C6    C96   S    
C51   C54   A    
C19   O18   A    
C25   C76   A    
C100  H51   S    
C51   C78   A    
C7    H34   S    
C12   C87   T    
C1    O3    A    
C65   C71   A    
C41   Br5   S    
C54   C57   A    
C91   C94   S    
C105  H66   S    
C91   H7    S    
C58   C61   A    
C69   H30   S    
C66   C75   A    
Cr3   O12   S    
C13   C88   S    
C68   C92   S    
C61   H22   S    
C46   C73   A    
C57   C72   A    
Cr5   O25   S    
C43   C46   A    
C99   H47   S    
Cr1   O1    S    
C34   O12   A    
C55   C70   A    
C92   H2    S    
Cr4   O17   S    
C63   H24   S    
C1    C17   S    
Cr5   O18   S    
C26   C29   A    
Cr6   O23   S    
C23   C85   S    
C13   C16   T    
C61   C64   A    
C5    C8    S    
C12   C96   S    
C1    O7    A    
C103  H59   S    
C8    C89   S    
C21   C47   S    
C100  H49   S    
C24   C86   S    
C8    Br11  S    
C40   Br4   S    
C83   Br8   S    
C3    C16   S    
C80   C98   S    
C50   C53   A    
C15   C90   S    
Cr2   O8    S    
C14   C17   T    
