data_mof_unit_56380.cif
_audit_creation_date              2013-03-05T15:45:20-0500
_audit_creation_method            fapswitch 2.2
_symmetry_space_group_name_H-M    P1
_symmetry_Int_Tables_number       1
_space_group_crystal_system       triclinic
_cell_length_a                    10.770197
_cell_length_b                    11.0523
_cell_length_c                    9.844536
_cell_angle_alpha                 111.801119
_cell_angle_beta                  97.733478
_cell_angle_gamma                 91.158692
_cell_volume                      1074.9977294

loop_
_atom_site_label
_atom_site_type_symbol
_atom_site_description
_atom_site_fract_x
_atom_site_fract_y
_atom_site_fract_z
_atom_type_partial_charge
O1    O     O_R   0.511700 0.332340 0.577400 -0.607684
O2    O     O_R   0.488300 0.667660 0.422600 -0.607684
O3    O     O_R   0.474680 0.295500 0.332650 -0.507893
O4    O     O_R   0.525320 0.704500 0.667350 -0.507892
C1    C     C_R   0.489774 0.253621 0.439397 0.727059
C2    C     C_R   0.510226 0.746379 0.560603 0.727058
O5    O     O_R   0.338170 0.518410 0.622370 -0.572764
O6    O     O_R   0.661830 0.481590 0.377630 -0.572764
O7    O     O_R   0.301150 0.481570 0.377630 -0.561860
O8    O     O_R   0.698850 0.518430 0.622370 -0.561860
C3    C     C_R   0.263146 0.500311 0.501728 0.785121
C4    C     C_R   0.736854 0.499689 0.498272 0.785120
Cu1   Cu    Cu3+1 0.521920 0.521810 0.644910 1.004407
Cu2   Cu    Cu3+1 0.478080 0.478190 0.355090 1.004407
H1    H     H_    0.094534 0.058682 0.409842 0.147974
H2    H     H_    0.905465 0.941317 0.590154 0.147973
C5    C     C_R   0.140905 0.737599 0.555382 -0.113188
C6    C     C_R   0.859095 0.262400 0.444616 -0.113188
C7    C     C_R   0.081294 0.852738 0.577726 -0.119052
C8    C     C_R   0.918706 0.147261 0.422270 -0.119055
C9    C     C_R   0.951640 0.851796 0.572545 -0.116655
C10   C     C_R   0.048359 0.148204 0.427452 -0.116653
C11   C     C_R   0.881134 0.735721 0.545070 -0.120424
C12   C     C_R   0.118866 0.264279 0.454929 -0.120422
C13   C     C_R   0.939820 0.617577 0.522286 0.059838
C14   C     C_R   0.060179 0.382423 0.477714 0.059837
C15   C     C_R   0.071130 0.618510 0.527429 0.066296
C16   C     C_R   0.928870 0.381490 0.472570 0.066297
C17   C     C_R   0.870242 0.499116 0.495128 -0.162871
C18   C     C_R   0.129758 0.500884 0.504872 -0.162871
H3    H     H_    0.241895 0.743109 0.560890 0.122960
H4    H     H_    0.758105 0.256891 0.439107 0.122959
H5    H     H_    0.136014 0.943002 0.599440 0.149134
H6    H     H_    0.863985 0.056997 0.400555 0.149134
H7    H     H_    0.780572 0.739644 0.541841 0.125774
H8    H     H_    0.219427 0.260356 0.458158 0.125776
H9    H     H_    0.451178 0.862760 0.378626 0.214125
H10   H     H_    0.548830 0.137239 0.621371 0.214124
C19   C     C_2   0.481195 0.112689 0.402117 0.144366
C20   C     C_2   0.518805 0.887311 0.597882 0.144364
C21   C     C_2   0.510640 0.068647 0.511222 -0.243461
C22   C     C_2   0.489365 0.931352 0.488776 -0.243463
H11   H     H_    0.416271 0.416493 0.845385 0.164076
H12   H     H_    0.583729 0.583507 0.154615 0.164075
N1    N     N_2   0.445130 0.445420 0.137360 -0.267662
N2    N     N_2   0.554870 0.554580 0.862640 -0.267662
C23   C     C_2   0.510670 0.510666 0.081413 -0.025845
C24   C     C_2   0.489330 0.489333 0.918587 -0.025844
H13   H     H_    0.623487 0.623241 0.934779 0.223646
H14   H     H_    0.376513 0.376759 0.065221 0.223647
N3    N     N_R   0.559746 0.974309 0.748950 0.142562
O9    O     O_R   0.655408 0.948541 0.826899 -0.319377
O10   O     O_R   0.489866 0.066187 0.815199 -0.338599
N4    N     N_R   0.440250 0.025692 0.251051 0.142562
O11   O     O_R   0.344584 0.051459 0.173107 -0.319382
O12   O     O_R   0.510130 0.933815 0.184797 -0.338596

loop_
_geom_bond_atom_site_label_1
_geom_bond_atom_site_label_2
_geom_bond_distance
_ccdc_geom_bond_type
N3    O10   1.301558 A    
O7    Cu2   1.947398 S    
N4    O12   1.301558 A    
H2    C9    1.082599 S    
C4    C17   1.441198 S    
C13   C15   1.408005 A    
C20   N3    1.440456 S    
C21   C22   1.458486 S    
C14   C16   1.408004 A    
C23   C24   1.515183 S    
H12   C23   1.085097 S    
O6    C4    1.289257 A    
C8    H6    1.082687 S    
C20   C22   1.339433 D    
O2    Cu2   1.943252 S    
C6    C16   1.417102 A    
C19   C21   1.339433 D    
C12   H8    1.081473 S    
Cu1   Cu2   2.683717 S    
C15   C18   1.412312 A    
O5    C3    1.289257 A    
O7    C3    1.285691 A    
N2    H13   1.030604 S    
O2    C2    1.298396 A    
O3    Cu2   1.946948 S    
O8    C4    1.285691 A    
N1    H14   1.030604 S    
O1    C1    1.298395 A    
C10   C12   1.393985 A    
C16   C17   1.412311 A    
C5    C7    1.393945 A    
C12   C14   1.417329 A    
C8    C10   1.390136 A    
C14   C18   1.411958 A    
Cu2   N1    2.016173 S    
C6    C8    1.393945 A    
C9    C11   1.393984 A    
C13   C17   1.411959 A    
Cu1   N2    2.016172 S    
C5    H3    1.081061 S    
C11   H7    1.081472 S    
C2    C20   1.459409 S    
C19   N4    1.440457 S    
C6    H4    1.081062 S    
N3    O9    1.301116 A    
C5    C15   1.417101 A    
N2    C24   1.304103 D    
O5    Cu1   1.959539 S    
C11   C13   1.417328 A    
O1    Cu1   1.943253 S    
H10   C21   1.084662 S    
O4    C2    1.289711 A    
H11   C24   1.085097 S    
N1    C23   1.304103 D    
H9    C22   1.084662 S    
C1    C19   1.459407 S    
N4    O11   1.301116 A    
O6    Cu2   1.959539 S    
C7    C9    1.390137 A    
H1    C10   1.082599 S    
O4    Cu1   1.946948 S    
C3    C18   1.441199 S    
C7    H5    1.082688 S    
O3    C1    1.289711 A    
O8    Cu1   1.947397 S    
