data_mof_unit_54047.cif
_audit_creation_date              2012-10-26T18:54:14-0400
_audit_creation_method            fapswitch 2.2
_symmetry_space_group_name_H-M    P1
_symmetry_Int_Tables_number       1
_space_group_crystal_system       triclinic
_cell_length_a                    14.688853
_cell_length_b                    14.476225
_cell_length_c                    23.493893
_cell_angle_alpha                 76.495822
_cell_angle_beta                  102.523169
_cell_angle_gamma                 114.305494
_cell_volume                      4385.77487929

loop_
_atom_site_label
_atom_site_type_symbol
_atom_type_description
_atom_site_fract_x
_atom_site_fract_y
_atom_site_fract_z
_atom_type_partial_charge
C1    C     C_R   0.880872 0.310630 0.509334 0.537179
C2    C     C_R   0.093144 0.539052 0.307849 -0.137210
C3    C     C_R   0.906196 0.461980 0.752448 0.062269
C4    C     C_R   0.099329 0.542773 0.248697 0.062268
C5    C     C_R   0.996752 0.506067 0.789302 0.230271
C6    C     C_R   0.009674 0.502361 0.210343 0.229904
C7    C     C_R   0.815077 0.199454 0.514439 -0.002021
C8    C     C_R   0.184911 0.799582 0.488779 -0.001031
C9    C     C_R   0.781499 0.016532 0.533355 -0.089854
C10   C     C_R   0.220450 0.979446 0.487128 -0.090425
C11   C     C_R   0.851284 0.118230 0.530521 -0.007451
C12   C     C_R   0.119050 0.689154 0.490866 0.536035
C13   C     C_R   0.149780 0.879004 0.485275 -0.009538
C14   C     C_R   0.710783 0.174639 0.503327 -0.148946
C15   C     C_R   0.288480 0.824808 0.492286 -0.144293
C16   C     C_R   0.001259 0.503084 0.608615 0.525431
C17   C     C_R   0.999075 0.497461 0.391317 0.528563
C18   C     C_R   0.640528 0.072606 0.510578 0.012040
C19   C     C_R   0.360304 0.923786 0.498913 0.014279
C20   C     C_R   0.676818 0.992272 0.521803 0.049366
C21   C     C_R   0.325028 0.002679 0.496190 0.049899
C22   C     C_R   0.535199 0.049235 0.506411 0.021913
C23   C     C_R   0.088622 0.551732 0.766621 -0.033527
C24   C     C_R   0.466059 0.946073 0.507179 0.023925
C25   C     C_R   0.504698 0.867935 0.517501 -0.145629
C26   C     C_R   0.497733 0.125474 0.505105 -0.147939
C27   C     C_R   0.607565 0.889419 0.523413 0.015727
C28   C     C_R   0.395127 0.103395 0.501383 0.018458
C29   C     C_R   0.709226 0.660689 0.396243 -0.123917
C30   C     C_R   0.294991 0.346769 0.606988 -0.110119
C31   C     C_R   0.792931 0.633739 0.413703 0.048246
C32   C     C_R   0.209120 0.369702 0.587836 0.049372
C33   C     C_R   0.717506 0.513151 0.494254 0.040660
C34   C     C_R   0.916540 0.457579 0.231588 -0.033696
C35   C     C_R   0.283058 0.488027 0.506197 0.037517
C36   C     C_R   0.630040 0.537736 0.479120 0.012918
C37   C     C_R   0.373241 0.468378 0.523439 -0.000415
C38   C     C_R   0.627339 0.612583 0.428451 0.072282
C39   C     C_R   0.377356 0.396005 0.575199 0.068990
C40   C     C_R   0.001597 0.584431 0.108769 0.389250
C41   C     C_R   0.008379 0.425702 0.891104 0.394066
C42   C     C_R   0.545726 0.490862 0.511791 0.012142
C43   C     C_R   0.458698 0.517409 0.491682 0.009798
C44   C     C_R   0.460326 0.592309 0.440738 -0.145194
C45   C     C_R   0.092874 0.554483 0.707213 -0.021469
C46   C     C_R   0.545782 0.419032 0.564063 -0.154185
C47   C     C_R   0.543157 0.639071 0.410147 -0.097334
C48   C     C_R   0.463446 0.373103 0.595046 -0.100452
C49   C     C_R   0.019932 0.422940 0.133523 0.388177
C50   C     C_R   0.989277 0.586821 0.866316 0.382432
C51   C     C_R   0.018011 0.420100 0.073201 0.036136
C52   C     C_R   0.993022 0.590551 0.926728 0.035963
C53   C     C_R   0.007190 0.504199 0.030482 -0.046292
C54   C     C_R   0.003937 0.506498 0.969450 -0.046139
C55   C     C_R   0.999382 0.586337 0.048701 0.012089
C56   C     C_R   0.910102 0.452151 0.291008 -0.020188
C57   C     C_R   0.011593 0.424285 0.951222 0.012608
C58   C     C_R   0.026123 0.337847 0.053467 0.002686
C59   C     C_R   0.986228 0.673454 0.946521 0.003161
C60   C     C_R   0.022583 0.341909 0.992961 -0.112233
C61   C     C_R   0.989355 0.669180 0.007013 -0.111135
C62   C     C_3   0.037462 0.243215 0.093617 -0.237065
C63   C     C_3   0.935821 0.164090 0.110563 -0.390169
C64   C     C_3   0.977328 0.769234 0.906472 -0.236679
C65   C     C_3   0.079485 0.845342 0.888651 -0.390383
C66   C     C_2   0.191105 0.611028 0.683936 0.234222
C67   C     C_R   0.002319 0.507808 0.670489 -0.045325
C68   C     C_2   0.810408 0.396490 0.312615 0.234473
C69   C     C_3   0.805038 0.413292 0.774907 -0.256484
C70   C     C_3   0.763742 0.296550 0.780368 -0.431931
C71   C     C_3   0.201718 0.591400 0.227716 -0.255586
C72   C     C_3   0.263446 0.524628 0.253236 -0.430375
C73   C     C_2   0.637057 0.800431 0.529430 0.202021
C74   C     C_2   0.366418 0.189163 0.504267 0.195311
C75   C     C_3   0.039316 0.862267 0.479795 -0.257263
C76   C     C_3   0.999651 0.818236 0.539376 -0.391963
C77   C     C_3   0.962096 0.133996 0.544538 -0.256597
C78   C     C_R   0.999791 0.495357 0.329243 -0.044075
C79   C     C_3   0.010505 0.161802 0.488299 -0.398239
C80   C     C_R   0.910130 0.463716 0.693197 -0.137337
Cu1   Cu    Cu3+1 0.081740 0.475680 0.515360 0.916533
Cu2   Cu    Cu3+1 0.918260 0.524320 0.484640 0.917423
H1    H     H_    0.810602 0.956194 0.546411 0.164716
H2    H     H_    0.856104 0.670744 0.388815 0.125583
H3    H     H_    0.708388 0.718631 0.357642 0.100469
H4    H     H_    0.297234 0.291254 0.646667 0.107436
H5    H     H_    0.398733 0.617442 0.423366 0.087012
H6    H     H_    0.608897 0.396743 0.582642 0.090246
H7    H     H_    0.027734 0.278841 0.978218 0.162387
H8    H     H_    0.984685 0.732441 0.021812 0.163044
H9    H     H_    0.156761 0.586769 0.795742 0.168447
H10   H     H_    0.849126 0.425011 0.201359 0.168434
H11   H     H_    0.840794 0.429178 0.664721 0.119240
H12   H     H_    0.192071 0.039400 0.481495 0.162703
H13   H     H_    0.161691 0.572140 0.337256 0.118677
H14   H     H_    0.311172 0.765030 0.488523 0.122501
H15   H     H_    0.685332 0.237084 0.487421 0.129977
H16   H     H_    0.898045 0.197528 0.131351 0.201116
H17   H     H_    0.885484 0.135056 0.070553 0.142346
H18   H     H_    0.947248 0.098335 0.142157 0.147042
H19   H     H_    0.068056 0.205159 0.070843 0.122698
H20   H     H_    0.094575 0.263380 0.132837 0.199228
H21   H     H_    0.114274 0.809615 0.867311 0.200376
H22   H     H_    0.069681 0.912041 0.857261 0.146626
H23   H     H_    0.456537 0.787712 0.522424 0.092268
H24   H     H_    0.131676 0.873528 0.928349 0.143208
H25   H     H_    0.918969 0.750135 0.867654 0.202263
H26   H     H_    0.949854 0.809668 0.929559 0.121914
H27   H     H_    0.194393 0.631216 0.636802 0.137106
H28   H     H_    0.805009 0.373763 0.359489 0.135302
H29   H     H_    0.751845 0.273532 0.736591 0.146499
H30   H     H_    0.816902 0.265387 0.811369 0.199198
H31   H     H_    0.690278 0.262887 0.797704 0.141317
H32   H     H_    0.809859 0.432875 0.818686 0.170087
H33   H     H_    0.750906 0.443333 0.743984 0.141099
H34   H     H_    0.547450 0.202849 0.511023 0.088259
H35   H     H_    0.277631 0.515931 0.302227 0.145418
H36   H     H_    0.223030 0.447522 0.239898 0.198154
H37   H     H_    0.337252 0.561230 0.236186 0.142057
H38   H     H_    0.195273 0.603974 0.178813 0.169278
H39   H     H_    0.243012 0.668149 0.241507 0.139926
H40   H     H_    0.592602 0.725994 0.552327 0.117843
H41   H     H_    0.409133 0.266595 0.483990 0.117061
H42   H     H_    0.917677 0.801999 0.533177 0.176943
H43   H     H_    0.011416 0.746050 0.559716 0.179234
H44   H     H_    0.039061 0.874868 0.570139 0.149117
H45   H     H_    0.541044 0.696516 0.371432 0.114063
H46   H     H_    0.028594 0.936173 0.463592 0.125228
H47   H     H_    0.992735 0.814042 0.445732 0.169265
H48   H     H_    0.975627 0.096520 0.463196 0.143004
H49   H     H_    0.000904 0.230514 0.459342 0.181964
H50   H     H_    0.092383 0.177850 0.500220 0.175043
H51   H     H_    0.003592 0.191193 0.574520 0.165227
H52   H     H_    0.971363 0.062471 0.569832 0.128467
H53   H     H_    0.466920 0.318133 0.634851 0.121309
H54   H     H_    0.273277 0.542084 0.467710 0.115711
H55   H     H_    0.725498 0.456065 0.531387 0.115915
H56   H     H_    0.146311 0.333071 0.612976 0.122522
N1    N     N_R   0.011602 0.503839 0.149366 -0.401128
N2    N     N_R   0.997135 0.505687 0.850445 -0.400786
N3    N     N_R   0.795430 0.560810 0.461550 -0.232754
N4    N     N_R   0.204570 0.439190 0.538450 -0.233323
O1    O     O_R   0.977900 0.338110 0.520250 -0.500792
O2    O     O_2   0.016665 0.347762 0.873150 -0.510189
O3    O     O_2   0.029497 0.346394 0.176503 -0.532166
O4    O     O_2   0.977571 0.662319 0.823221 -0.525703
O5    O     O_2   0.270181 0.637437 0.717377 -0.504788
O6    O     O_2   0.732429 0.373691 0.278027 -0.505785
O7    O     O_2   0.705931 0.806960 0.505542 -0.535360
O8    O     O_2   0.299912 0.175835 0.532302 -0.539900
O9    O     O_R   0.022100 0.661890 0.479750 -0.502371
O10   O     O_R   0.839850 0.379180 0.494310 -0.513485
O11   O     O_R   0.160150 0.620820 0.505690 -0.512498
O12   O     O_R   0.069020 0.479430 0.595090 -0.505559
O13   O     O_R   0.930980 0.520570 0.404910 -0.505138
O14   O     O_R   0.930970 0.520500 0.569150 -0.501932
O15   O     O_R   0.069030 0.479500 0.430850 -0.501346
O16   O     O_2   0.993618 0.662509 0.126753 -0.502468

loop_
_geom_bond_atom_site_label_1
_geom_bond_atom_site_label_2
_ccdc_geom_bond_type
C58   C62   S    
C56   C78   A    
C34   C56   A    
C8    C13   A    
C23   C45   A    
C76   H44   S    
C14   C18   A    
C48   H53   S    
C36   C42   A    
C12   O11   A    
C43   C44   A    
C28   C74   S    
Cu1   Cu2   S    
C25   H23   S    
C60   H7    S    
C15   C19   A    
C59   C64   S    
C63   H18   S    
C71   H38   S    
C14   H15   S    
C1    O1    A    
C22   C24   A    
C40   O16   S    
C2    H13   S    
C3    C69   S    
C63   H16   S    
C50   N2    A    
C10   H12   S    
C58   C60   A    
C40   N1    A    
C33   C36   A    
Cu1   O11   S    
C1    O10   A    
C75   H46   S    
C42   C46   A    
C6    N1    S    
C41   N2    A    
C63   H17   S    
C11   C77   S    
C7    C14   A    
C69   H33   S    
C13   C75   S    
C33   H55   S    
C49   C51   A    
C72   H35   S    
C16   O14   A    
C50   C52   A    
C30   H4    S    
C44   H5    S    
C17   O15   A    
C32   N4    A    
Cu2   O9    S    
C68   O6    D    
C44   C47   A    
C62   H19   S    
Cu2   O14   S    
C50   O4    S    
C53   C55   A    
C74   H41   S    
C10   C21   A    
C1    C7    S    
C76   H43   S    
C12   O9    A    
C77   H51   S    
Cu2   N3    S    
C3    C80   A    
C52   C54   A    
C64   H26   S    
C46   H6    S    
C77   C79   S    
C70   H31   S    
C46   C48   A    
C69   H32   S    
C59   C61   A    
Cu1   O15   S    
C76   H42   S    
C24   C25   A    
C41   O2    S    
C4    C6    A    
C15   H14   S    
C16   C67   S    
C57   C60   A    
C33   N3    A    
C53   C54   A    
C79   H48   S    
C31   H2    S    
C6    C34   A    
C51   C53   A    
C29   C38   A    
C7    C11   A    
C75   C76   S    
C32   H56   S    
C62   C63   S    
C2    C78   A    
C52   C59   A    
C9    C20   A    
C79   H50   S    
C5    C23   A    
C8    C12   S    
C40   C55   A    
C79   H49   S    
C66   O5    D    
C49   O3    S    
C51   C58   A    
C68   H28   S    
C9    C11   A    
C38   C47   A    
C70   H30   S    
C9    H1    S    
Cu2   O13   S    
C31   N3    A    
C21   C28   A    
C8    C15   A    
C5    N2    S    
C49   N1    A    
C16   O12   A    
C23   H9    S    
C37   C43   A    
C42   C43   A    
C65   H21   S    
C17   O13   A    
C65   H24   S    
C61   H8    S    
C35   C37   A    
C64   H25   S    
Cu1   N4    S    
C73   O7    D    
C18   C22   A    
C29   H3    S    
C71   H39   S    
C67   C80   A    
C3    C5    A    
C10   C13   A    
C35   H54   S    
C47   H45   S    
C45   C67   A    
C20   C27   A    
C25   C27   A    
C26   C28   A    
C64   C65   S    
C36   C38   A    
C19   C24   A    
C41   C57   A    
C71   C72   S    
C37   C39   A    
C56   C68   S    
C30   C32   A    
C2    C4    A    
C55   C61   A    
C72   H37   S    
C17   C78   S    
C30   C39   A    
C18   C20   A    
C66   H27   S    
C69   C70   S    
C26   H34   S    
C70   H29   S    
Cu1   O12   S    
C35   N4    A    
C22   C26   A    
Cu1   O1    S    
C29   C31   A    
C73   H40   S    
C77   H52   S    
C72   H36   S    
C45   C66   S    
C74   O8    D    
C65   H22   S    
C62   H20   S    
C80   H11   S    
C27   C73   S    
C54   C57   A    
C4    C71   S    
Cu2   O10   S    
C75   H47   S    
C39   C48   A    
C19   C21   A    
C34   H10   S    
