data_mof_unit_22942.cif
_audit_creation_date              2012-10-26T18:44:00-0400
_audit_creation_method            fapswitch 2.2
_symmetry_space_group_name_H-M    P1
_symmetry_Int_Tables_number       1
_space_group_crystal_system       monoclinic
_cell_length_a                    15.082293
_cell_length_b                    9.097339
_cell_length_c                    7.786874
_cell_angle_alpha                 90.00549
_cell_angle_beta                  90.0
_cell_angle_gamma                 90.0
_cell_volume                      1068.42710536

loop_
_atom_site_label
_atom_site_type_symbol
_atom_type_description
_atom_site_fract_x
_atom_site_fract_y
_atom_site_fract_z
_atom_type_partial_charge
C1    C     C_R   0.500000 0.220024 0.499996 0.553190
C2    C     C_R   0.231520 0.500000 0.500000 -0.009424
C3    C     C_R   0.907088 0.455669 0.648587 0.009605
C4    C     C_R   0.092912 0.544331 0.351413 0.009605
C5    C     C_R   0.907088 0.544331 0.351413 0.009605
C6    C     C_R   0.092912 0.455669 0.648587 0.009605
C7    C     C_R   0.953522 0.500000 0.500000 0.063908
C8    C     C_R   0.046478 0.500000 0.500000 0.063908
C9    C     C_R   0.953778 0.410487 0.794971 -0.136951
C10   C     C_R   0.046222 0.589513 0.205029 -0.136951
C11   C     C_R   0.953778 0.589513 0.205029 -0.136952
C12   C     C_R   0.500000 0.779976 0.500004 0.553190
C13   C     C_R   0.046222 0.410487 0.794971 -0.136952
C14   C     C_1   0.500000 0.065366 0.499994 -0.047162
C15   C     C_1   0.500000 0.934634 0.500006 -0.047162
C16   C     C_R   0.328196 0.500000 0.500000 0.543281
C17   C     C_R   0.671804 0.500000 0.500000 0.543281
C18   C     C_R   0.814696 0.543031 0.352075 -0.136402
C19   C     C_R   0.185304 0.456969 0.647925 -0.136402
C20   C     C_R   0.814696 0.456969 0.647925 -0.136402
C21   C     C_R   0.185304 0.543031 0.352075 -0.136402
C22   C     C_R   0.768479 0.500000 0.500000 -0.009424
Cu1   Cu    Cu3+1 0.500000 0.500000 0.669080 1.019191
Cu2   Cu    Cu3+1 0.500000 0.500000 0.330920 1.019191
H1    H     H_    0.918799 0.375190 0.909318 0.117933
H2    H     H_    0.081201 0.624810 0.090682 0.117933
H3    H     H_    0.918799 0.624810 0.090682 0.117933
H4    H     H_    0.081201 0.375190 0.909318 0.117933
H5    H     H_    0.778784 0.577060 0.238145 0.129355
H6    H     H_    0.221216 0.422940 0.761854 0.129355
H7    H     H_    0.778784 0.422940 0.761854 0.129355
H8    H     H_    0.221216 0.577060 0.238145 0.129355
N1    N     N_1   0.500000 0.500000 0.076820 -0.084427
N2    N     N_1   0.500000 0.500000 0.923180 -0.084427
O1    O     O_R   0.500000 0.288390 0.642760 -0.496567
O2    O     O_R   0.500000 0.711610 0.357240 -0.496567
O3    O     O_R   0.500000 0.711610 0.642760 -0.494242
O4    O     O_R   0.500000 0.288390 0.357240 -0.494242
O5    O     O_R   0.370260 0.500000 0.642800 -0.507414
O6    O     O_R   0.629740 0.500000 0.357200 -0.507414
O7    O     O_R   0.629740 0.500000 0.642800 -0.507414
O8    O     O_R   0.370260 0.500000 0.357200 -0.507414

loop_
_geom_bond_atom_site_label_1
_geom_bond_atom_site_label_2
_ccdc_geom_bond_type
Cu2   O4    S    
Cu1   Cu2   S    
C13   H4    S    
C3    C9    A    
C12   O2    A    
C2    C16   S    
Cu1   O1    S    
Cu2   N1    S    
Cu1   O7    S    
C12   C15   S    
C11   H3    S    
C4    C8    A    
Cu1   N2    S    
C10   H2    S    
C2    C21   A    
N1    N2    T    
C9    H1    S    
C7    C8    A    
C18   H5    S    
Cu1   O3    S    
C6    C13   A    
C4    C21   A    
C1    C14   S    
Cu2   O2    S    
C1    O4    A    
Cu1   O5    S    
Cu2   O6    S    
C6    C19   A    
C5    C11   A    
C3    C7    A    
C21   H8    S    
C17   O7    A    
C10   C11   A    
C16   O5    A    
C4    C10   A    
C16   O8    A    
C3    C20   A    
Cu2   O8    S    
C1    O1    A    
C12   O3    A    
C5    C7    A    
C9    C13   A    
C14   C15   T    
C6    C8    A    
C5    C18   A    
C2    C19   A    
C18   C22   A    
C19   H6    S    
C20   H7    S    
C17   C22   S    
C20   C22   A    
C17   O6    A    
