data_mof_unit_50937.cif
_audit_creation_date              2013-03-05T16:11:39-0500
_audit_creation_method            fapswitch 2.2
_symmetry_space_group_name_H-M    P1
_symmetry_Int_Tables_number       1
_space_group_crystal_system       triclinic
_cell_length_a                    10.745061
_cell_length_b                    9.476619
_cell_length_c                    19.301006
_cell_angle_alpha                 90.47208
_cell_angle_beta                  89.152018
_cell_angle_gamma                 89.895451
_cell_volume                      1965.07495547

loop_
_atom_site_label
_atom_site_type_symbol
_atom_site_description
_atom_site_fract_x
_atom_site_fract_y
_atom_site_fract_z
_atom_type_partial_charge
O1    O     O_R   0.317570 0.620260 0.500040 -0.579477
O2    O     O_R   0.317570 0.379740 0.500040 -0.592051
C1    C     C_R   0.260198 0.499951 0.498029 0.855527
O3    O     O_R   0.499870 0.620300 0.400170 -0.574306
O4    O     O_R   0.499870 0.379700 0.400170 -0.537148
C2    C     C_R   0.500452 0.499887 0.367837 0.839861
Cu1   Cu    Cu3+1 0.499860 0.642410 0.500030 0.973416
Cu2   Cu    Cu3+1 0.499860 0.357590 0.500030 0.982114
O5    O     O_R   0.682190 0.620260 0.500020 -0.576263
O6    O     O_R   0.682190 0.379740 0.500020 -0.565682
O7    O     O_R   0.499890 0.620220 0.599880 -0.584997
O8    O     O_R   0.499890 0.379780 0.599880 -0.602438
C3    C     C_R   0.739948 0.499806 0.498386 0.811864
C4    C     C_R   0.499822 0.500538 0.632520 0.803636
C5    C     C_R   0.415400 0.585248 0.257390 -0.098393
C6    C     C_R   0.590666 0.424089 0.254762 -0.107187
H1    H     H_    0.346988 0.647410 0.286052 0.144025
H2    H     H_    0.662264 0.366195 0.281265 0.193201
C7    C     C_R   0.416522 0.588056 0.185171 -0.119644
C8    C     C_R   0.591142 0.425384 0.182594 -0.116834
H3    H     H_    0.348333 0.652254 0.159197 0.164149
H4    H     H_    0.661205 0.364443 0.154637 0.171567
C9    C     C_R   0.503642 0.506873 0.147131 0.030064
C10   C     C_R   0.501118 0.501253 0.292310 -0.003607
N1    N     N_R   0.562302 0.403123 0.034277 -0.220486
N2    N     N_R   0.444050 0.610331 0.035984 -0.220726
N3    N     N_R   0.561378 0.402256 0.965390 -0.227453
N4    N     N_R   0.443719 0.609897 0.967058 -0.223645
C11   C     C_R   0.502172 0.505669 0.930450 0.411853
C12   C     C_R   0.503509 0.507028 0.070902 0.424203
C13   C     C_R   0.471595 0.627394 0.817792 -0.144697
C14   C     C_R   0.530138 0.380230 0.817183 -0.140282
H5    H     H_    0.449424 0.724789 0.845041 0.157890
H6    H     H_    0.552768 0.283746 0.843951 0.157272
C15   C     C_R   0.471853 0.626362 0.745574 -0.129604
C16   C     C_R   0.528776 0.378706 0.745010 -0.194586
H7    H     H_    0.449053 0.722738 0.718722 0.159590
H8    H     H_    0.551232 0.281383 0.717744 0.141800
C17   C     C_R   0.500075 0.501877 0.708625 -0.025531
C18   C     C_R   0.501237 0.504471 0.854215 0.052671
C19   C     C_3   0.070021 0.522097 0.571894 0.176693
C20   C     C_3   0.072091 0.352290 0.470399 0.136179
H9    H     H_    0.102251 0.431773 0.603746 0.083839
H10   H     H_    0.096390 0.272130 0.509962 0.090770
C21   C     C_3   0.925735 0.518352 0.572225 -0.441421
C22   C     C_3   0.929040 0.358185 0.466707 -0.357476
H11   H     H_    0.892533 0.429093 0.604751 0.139721
H12   H     H_    0.890531 0.266667 0.495687 0.191064
H13   H     H_    0.885750 0.616275 0.595819 0.211179
H14   H     H_    0.898871 0.348512 0.411954 0.237627
H15   H     H_    0.110321 0.721658 0.461734 0.219096
H16   H     H_    0.101274 0.597637 0.393390 0.208263
H17   H     H_    0.900652 0.724665 0.475894 0.246048
H18   H     H_    0.889848 0.616068 0.399398 0.196039
C23   C     C_3   0.072011 0.616555 0.447997 -0.350953
C24   C     C_3   0.122343 0.499201 0.496300 -0.083533
C25   C     C_3   0.878125 0.499317 0.497461 -0.031934
C26   C     C_3   0.929027 0.621851 0.452423 -0.309823
C27   C     C_3   0.601510 0.083221 0.544563 -0.196526
C28   C     C_3   0.595418 0.917184 0.548724 -0.202307
H19   H     H_    0.594997 0.127783 0.597959 0.138971
H20   H     H_    0.572987 0.887358 0.603164 0.140266
H21   H     H_    0.694573 0.114667 0.525282 0.205807
H22   H     H_    0.688469 0.870551 0.539222 0.202853
H23   H     H_    0.370501 0.119713 0.586477 0.180395
H24   H     H_    0.356290 0.873423 0.579541 0.220377
C29   C     C_3   0.382521 0.084276 0.531664 -0.304337
C30   C     C_3   0.379576 0.916860 0.527568 -0.272464
C31   C     C_3   0.509726 0.080157 0.429583 0.282942
C32   C     C_3   0.519547 0.914030 0.430300 0.282540
N5    N     N_3   0.500250 0.143650 0.501520 -0.189607
N6    N     N_3   0.500250 0.856350 0.501520 -0.208359
H25   H     H_    0.420876 0.105898 0.403090 0.091646
H26   H     H_    0.441626 0.874988 0.397793 0.068313
H27   H     H_    0.300598 0.125046 0.503672 0.189403
H28   H     H_    0.302564 0.884166 0.493106 0.177135
N7    N     N_R   0.607715 0.140180 0.384919 0.165483
O9    O     O_R   0.595400 0.127791 0.318176 -0.344894
O10   O     O_R   0.716296 0.173656 0.408407 -0.348794
N8    N     N_R   0.635747 0.862298 0.396853 0.179342
O11   O     O_R   0.632219 0.814565 0.333473 -0.326226
O12   O     O_R   0.744029 0.891026 0.422516 -0.359843
N9    N     N_R   0.116082 0.652385 0.604439 0.137469
O13   O     O_R   0.076591 0.775803 0.585305 -0.392366
O14   O     O_R   0.191596 0.644530 0.656353 -0.386197
N10   N     N_R   0.124896 0.301423 0.403767 0.140567
O15   O     O_R   0.201625 0.376524 0.366608 -0.394478
O16   O     O_R   0.099061 0.173969 0.382975 -0.328153

loop_
_geom_bond_atom_site_label_1
_geom_bond_atom_site_label_2
_geom_bond_distance
_ccdc_geom_bond_type
H24   C30   1.112688 S    
C23   C24   1.558288 S    
N3    C11   1.356912 A    
C31   N7    1.469253 S    
Cu1   Cu2   2.699130 S    
N7    O9    1.301295 A    
C5    C7    1.394243 A    
C21   C25   1.547413 S    
C14   C16   1.393259 A    
C6    C8    1.393012 A    
C7    H3    1.082849 S    
C15   C17   1.403795 A    
O7    C4    1.301920 A    
N10   O16   1.301352 A    
C3    C25   1.484554 S    
C28   N6    1.493044 S    
C19   N9    1.470590 S    
C13   C18   1.404067 A    
C28   H20   1.113414 S    
C20   C22   1.540734 S    
C31   N5    1.510634 S    
O5    C3    1.298233 A    
C20   C24   1.574491 S    
C4    C17   1.468900 S    
H23   C29   1.112944 S    
C32   H26   1.115531 S    
C13   H5    1.082932 S    
C31   H25   1.117176 S    
C20   N10   1.474942 S    
H15   C23   1.110033 S    
H16   C23   1.108489 S    
C30   N6    1.495372 S    
N7    O10   1.296928 A    
C27   C28   1.577608 S    
C6    C10   1.397802 A    
C19   H9    1.115540 S    
C20   H10   1.114921 S    
O3    Cu1   1.937035 S    
C21   H11   1.113605 S    
C22   H12   1.112970 S    
C27   H19   1.111735 S    
C32   N8    1.478084 S    
C29   C30   1.588249 S    
C9    C12   1.471339 S    
N8    O12   1.299684 A    
Cu1   N6    2.027408 S    
C7    C9    1.405337 A    
O1    C1    1.297672 A    
C14   H6    1.082944 S    
Cu1   O7    1.940370 S    
C19   C24   1.569095 S    
C1    C24   1.482160 S    
N9    O13   1.301666 A    
C8    C9    1.404964 A    
C21   H13   1.113061 S    
Cu2   O8    1.936926 S    
C2    C10   1.457815 S    
C6    H2    1.081327 S    
O3    C2    1.296046 A    
C5    C10   1.400259 A    
N9    O14   1.301132 A    
C8    H4    1.082909 S    
N2    C12   1.357234 A    
C22   C25   1.554046 S    
C13   C15   1.393799 A    
N1    N3    1.329744 A    
N10   O15   1.301414 A    
H18   C26   1.113344 S    
N1    C12   1.356981 A    
C5    H1    1.083716 S    
N4    C11   1.357355 A    
Cu2   N5    2.027866 S    
C15   H7    1.083294 S    
O1    Cu1   1.970312 S    
C27   H21   1.104138 S    
C16   C17   1.403339 A    
O2    Cu2   1.969550 S    
O8    C4    1.301765 A    
N8    O11   1.301859 A    
O6    C3    1.297457 A    
O4    Cu2   1.940468 S    
H17   C26   1.111324 S    
C30   H28   1.112210 S    
C22   H14   1.113081 S    
N2    N4    1.330377 A    
C28   H22   1.104645 S    
C16   H8    1.083156 S    
O2    C1    1.295440 A    
C25   C26   1.551804 S    
O4    C2    1.303209 A    
C11   C18   1.471546 S    
C29   N5    1.497178 S    
C14   C18   1.404200 A    
C31   C32   1.577852 S    
Cu1   O5    1.969975 S    
C29   H27   1.110095 S    
Cu2   O6    1.970737 S    
C23   C26   1.538188 S    
C19   C21   1.550751 S    
C32   N6    1.495230 S    
C27   N5    1.494760 S    
