data_mof_unit_6378.cif
_audit_creation_date              2012-12-10T17:42:35-0500
_audit_creation_method            fapswitch 2.2
_symmetry_space_group_name_H-M    P1
_symmetry_Int_Tables_number       1
_space_group_crystal_system       triclinic
_cell_length_a                    10.036886
_cell_length_b                    10.689794
_cell_length_c                    13.555972
_cell_angle_alpha                 95.48996
_cell_angle_beta                  72.608442
_cell_angle_gamma                 90.123738
_cell_volume                      1381.05777947

loop_
_atom_site_label
_atom_site_type_symbol
_atom_type_description
_atom_site_fract_x
_atom_site_fract_y
_atom_site_fract_z
_atom_type_partial_charge
Br1   Br    Br    0.896887 0.292042 0.347189 -0.292065
Br2   Br    Br    0.804249 0.930736 0.788425 -0.591424
Br3   Br    Br    0.893071 0.542909 0.805434 -0.435065
Br4   Br    Br    0.227444 0.299061 0.339882 -0.378105
Br5   Br    Br    0.313604 0.545006 0.200594 -0.456117
Br6   Br    Br    0.112303 0.197360 0.000529 -0.390558
Br7   Br    Br    0.553459 0.715258 0.910278 -0.460658
C1    C     C_R   0.508374 0.733911 0.479834 0.871280
C2    C     C_R   0.382772 0.451387 0.810642 -0.268971
C3    C     C_R   0.321152 0.870046 0.384025 0.361330
C4    C     C_R   0.423840 0.489529 0.701661 0.928964
C5    C     C_R   0.190745 0.924934 0.392449 0.403415
C6    C     C_R   0.146293 0.035181 0.458713 0.459411
C7    C     C_R   0.243181 0.100752 0.498937 -0.356466
C8    C     C_R   0.380772 0.052164 0.479589 -0.020092
C9    C     C_R   0.404134 0.925806 0.442472 -0.096958
C10   C     C_R   0.519822 0.862988 0.453635 -0.070011
C11   C     C_R   0.637434 0.930175 0.456745 -0.224273
C12   C     C_R   0.438052 0.434447 0.973627 0.094220
C13   C     C_R   0.627388 0.059275 0.472870 -0.168763
C14   C     C_R   0.498715 0.122008 0.489447 -0.070514
C15   C     C_R   0.820168 0.702203 0.630226 0.511791
C16   C     C_R   0.499069 0.258822 0.499092 0.861556
C17   C     C_R   0.887751 0.796574 0.681122 0.204312
C18   C     C_R   0.027639 0.786419 0.670183 -0.294392
C19   C     C_R   0.102485 0.681648 0.619096 -0.102456
C20   C     C_R   0.050695 0.592132 0.560007 0.033665
C21   C     C_R   0.905369 0.596686 0.561951 -0.058770
C22   C     C_R   0.953340 0.414444 0.438464 0.258830
C23   C     C_R   0.470152 0.478589 0.874706 -0.119596
C24   C     C_R   0.095989 0.415378 0.437603 0.309090
C25   C     C_R   0.575085 0.495212 0.297506 0.982264
C26   C     C_R   0.777715 0.415847 0.012493 0.471476
C27   C     C_R   0.610903 0.473674 0.183309 -0.345196
C28   C     C_R   0.271421 0.366528 0.846062 0.511994
C29   C     C_R   0.242168 0.324477 0.946655 0.236700
C30   C     C_R   0.323764 0.360318 0.008936 -0.233883
C31   C     C_3   0.941682 0.522820 0.151481 -0.078722
C32   C     C_3   0.464966 0.826151 0.220250 -0.125895
C33   C     C_3   0.032344 0.782603 0.370634 -0.171404
C34   C     C_R   0.536760 0.448561 0.027880 -0.060525
C35   C     C_3   0.932309 0.102294 0.568950 -0.310960
C36   C     C_3   0.604766 0.818030 0.679263 -0.127088
C37   C     C_3   0.869198 0.245520 0.897000 -0.033063
C38   C     C_3   0.256670 0.192982 0.740922 -0.309440
C39   C     C_R   0.675895 0.450571 0.968769 -0.216238
C40   C     C_R   0.706569 0.496864 0.871346 0.229565
C41   C     C_R   0.593355 0.546692 0.845545 0.351951
C42   C     C_R   0.502085 0.474498 0.135032 0.259082
C43   C     C_R   0.749019 0.438047 0.120808 0.387991
H1    H     H_    0.207183 0.190020 0.542353 0.236526
H2    H     H_    0.404067 0.887592 0.186597 0.209312
H3    H     H_    0.514559 0.749225 0.159631 0.210952
H4    H     H_    0.551374 0.879189 0.238863 0.141442
H5    H     H_    0.962291 0.814235 0.449504 0.095086
H6    H     H_    0.098069 0.700233 0.373063 0.189159
H7    H     H_    0.965432 0.752162 0.321329 0.176173
H8    H     H_    0.987701 0.114799 0.628998 0.159128
H9    H     H_    0.867503 0.017950 0.581039 0.175750
H10   H     H_    0.861334 0.185619 0.581553 0.200788
H11   H     H_    0.665925 0.889126 0.631999 0.116591
H12   H     H_    0.719922 0.109290 0.475235 0.219599
H13   H     H_    0.502868 0.807457 0.664296 0.141840
H14   H     H_    0.571078 0.855568 0.761128 0.233496
H15   H     H_    0.819458 0.266790 0.837329 0.129959
H16   H     H_    0.802247 0.182723 0.951287 0.170121
H17   H     H_    0.966603 0.192155 0.853810 0.223715
H18   H     H_    0.269664 0.134550 0.800940 0.181772
H19   H     H_    0.360130 0.198353 0.683415 0.137311
H20   H     H_    0.184245 0.141725 0.705316 0.179316
H21   H     H_    0.076600 0.853607 0.712614 0.203358
H22   H     H_    0.199539 0.668839 0.633466 0.230775
H23   H     H_    0.306592 0.318395 0.081295 0.240688
H24   H     H_    0.734341 0.883142 0.452949 0.169000
H25   H     H_    0.016552 0.513435 0.196230 0.211233
H26   H     H_    0.882095 0.613279 0.181798 0.107224
H27   H     H_    0.003237 0.524911 0.068516 0.194579
N1    N     N_R   0.856860 0.501200 0.500990 -0.156995
N2    N     N_R   0.142450 0.501280 0.501020 -0.148909
O1    O     O_R   0.385310 0.683220 0.500000 -0.638030
O2    O     O_3   0.376975 0.773676 0.307850 -0.567455
O3    O     O_3   0.115427 0.880984 0.326685 -0.526359
O4    O     O_3   0.019892 0.091841 0.465283 -0.532968
O5    O     O_3   0.675188 0.698574 0.661775 -0.545351
O6    O     O_3   0.901198 0.356001 0.951737 -0.540800
O7    O     O_3   0.200551 0.315309 0.779705 -0.548511
O8    O     O_R   0.614640 0.683250 0.500010 -0.602945
O9    O     O_R   0.328400 0.499950 0.653610 -0.587430
O10   O     O_R   0.557730 0.499970 0.653620 -0.564227
O11   O     O_R   0.385360 0.316750 0.499990 -0.595745
O12   O     O_R   0.614690 0.316780 0.500000 -0.607476
O13   O     O_R   0.442270 0.500030 0.346380 -0.531380
O14   O     O_R   0.671600 0.500050 0.346390 -0.582000
O15   O     O_3   0.853290 0.418997 0.165296 -0.525873
Zn1   Zn    Zn3+2 0.346880 0.499980 0.499990 1.034280
Zn2   Zn    Zn3+2 0.653120 0.500020 0.500010 1.022063

loop_
_geom_bond_atom_site_label_1
_geom_bond_atom_site_label_2
_ccdc_geom_bond_type
C36   O5    S    
C19   H22   S    
C37   H16   S    
C28   C29   A    
C35   H8    S    
C36   H13   S    
O11   Zn1   S    
C31   H26   S    
C19   C20   A    
C23   C41   A    
C29   C30   A    
C20   N2    A    
C28   O7    S    
C32   H4    S    
C8    C9    A    
C26   O6    S    
C12   C30   A    
O12   Zn2   S    
C22   N1    A    
C7    H1    S    
N1    Zn2   S    
C9    C10   A    
C33   H6    S    
C34   C39   A    
C18   H21   S    
C21   N1    A    
C11   C13   A    
C25   O14   A    
O9    Zn1   S    
C11   H24   S    
C15   C21   A    
C6    C7    A    
C26   C39   A    
Br5   C42   S    
C37   H15   S    
C34   C42   A    
C36   H14   S    
C31   H25   S    
C27   C43   A    
C38   H19   S    
C33   O3    S    
C17   C18   A    
C32   O2    S    
C35   H10   S    
C43   O15   S    
C26   C43   A    
O13   Zn1   S    
C25   C27   S    
N2    Zn1   S    
C4    O10   A    
C40   C41   A    
C4    O9    A    
C33   H5    S    
O8    Zn2   S    
C31   O15   S    
C38   H18   S    
Br1   C22   S    
C10   C11   A    
C16   O11   A    
C5    O3    S    
C13   C14   A    
O1    Zn1   S    
C2    C4    S    
C3    C5    A    
C2    C23   A    
O14   Zn2   S    
C14   C16   S    
Br2   C17   S    
C16   O12   A    
C37   O6    S    
C36   H11   S    
C1    O1    A    
C30   H23   S    
C39   C40   A    
C27   C42   A    
C33   H7    S    
C38   H20   S    
C35   O4    S    
C35   H9    S    
C24   N2    A    
C31   H27   S    
C6    O4    S    
C3    O2    S    
C1    C10   S    
C1    O8    A    
Br7   C41   S    
O10   Zn2   S    
C38   O7    S    
C18   C19   A    
C22   C24   A    
C3    C9    A    
C32   H3    S    
Br3   C40   S    
Br6   C29   S    
C32   H2    S    
C15   C17   A    
C13   H12   S    
Br4   C24   S    
C25   O13   A    
C8    C14   A    
C5    C6    A    
C20   C21   A    
C2    C28   A    
C7    C8    A    
C37   H17   S    
C12   C23   A    
C12   C34   A    
C15   O5    S    
