data_mof_unit_44923.cif
_audit_creation_date              2013-03-05T15:54:02-0500
_audit_creation_method            fapswitch 2.2
_symmetry_space_group_name_H-M    P1
_symmetry_Int_Tables_number       1
_space_group_crystal_system       triclinic
_cell_length_a                    15.723924
_cell_length_b                    10.57927
_cell_length_c                    9.983086
_cell_angle_alpha                 92.402315
_cell_angle_beta                  89.911818
_cell_angle_gamma                 94.539664
_cell_volume                      1653.99535356

loop_
_atom_site_label
_atom_site_type_symbol
_atom_site_description
_atom_site_fract_x
_atom_site_fract_y
_atom_site_fract_z
_atom_type_partial_charge
O1    O     O_R   0.500000 0.316780 0.614690 -0.570768
O2    O     O_R   0.499990 0.316750 0.385360 -0.662982
C1    C     C_R   0.506772 0.260230 0.497395 0.969846
O3    O     O_R   0.377150 0.500020 0.614720 -0.537356
O4    O     O_R   0.377140 0.499990 0.385380 -0.640502
C2    C     C_R   0.338780 0.501732 0.500111 0.932731
Zn1   Zn    Zn3+2 0.500010 0.500020 0.653130 1.107109
Zn2   Zn    Zn3+2 0.499990 0.499980 0.346870 1.056144
O5    O     O_R   0.500010 0.683250 0.614640 -0.573642
O6    O     O_R   0.500000 0.683220 0.385310 -0.534807
O7    O     O_R   0.622860 0.500010 0.614620 -0.552528
O8    O     O_R   0.622850 0.499980 0.385280 -0.589285
C3    C     C_R   0.488023 0.737682 0.503634 0.927075
C4    C     C_R   0.661472 0.502291 0.499928 0.944443
C5    C     C_3   0.045376 0.446576 0.631393 -0.354255
C6    C     C_3   0.046970 0.453664 0.376624 -0.322708
C7    C     C_3   0.950569 0.466544 0.368538 -0.299283
H1    H     H_    0.078533 0.493819 0.286329 0.236614
H2    H     H_    0.058686 0.351562 0.371151 0.251456
H3    H     H_    0.917322 0.372756 0.339069 0.235217
H4    H     H_    0.937151 0.530582 0.287040 0.247191
C8    C     C_1   0.750514 0.507234 0.500283 0.006916
C9    C     C_3   0.084336 0.519755 0.508796 -0.017666
C10   C     C_3   0.946392 0.429551 0.616696 0.144735
C11   C     C_3   0.918066 0.518017 0.505602 -0.032528
C12   C     C_3   0.957079 0.660152 0.531215 0.128808
C13   C     C_3   0.059304 0.662780 0.517919 0.141849
C14   C     C_1   0.826008 0.512215 0.502128 0.082252
C15   C     C_1   0.175781 0.514095 0.504107 0.062603
C16   C     C_1   0.250554 0.508019 0.501119 -0.010378
H5    H     H_    0.058054 0.508798 0.722551 0.192452
H6    H     H_    0.917264 0.456103 0.714253 0.179677
H7    H     H_    0.448906 0.101774 0.298917 0.201734
C17   C     C_R   0.589874 0.121338 0.709771 0.379612
C18   C     C_R   0.587319 0.074995 0.838266 -0.289001
H8    H     H_    0.628320 0.120586 0.916119 0.229692
C19   C     C_R   0.530009 0.973104 0.867994 0.364380
C20   C     C_R   0.483272 0.905433 0.764506 0.433419
C21   C     C_R   0.494325 0.944031 0.630393 -0.132196
C22   C     C_R   0.533980 0.064316 0.609549 -0.043882
C23   C     C_R   0.511273 0.124663 0.492791 -0.106255
C24   C     C_R   0.468279 0.055700 0.387311 -0.143077
C25   C     C_R   0.446607 0.927752 0.397695 0.448257
C26   C     C_R   0.468176 0.869298 0.514659 -0.160076
C27   C     C_R   0.393537 0.327451 0.143400 -0.236481
H9    H     H_    0.390178 0.336082 0.248322 0.254748
C28   C     C_R   0.343059 0.227593 0.085456 -0.215140
C29   C     C_R   0.347971 0.207642 0.947699 0.373081
C30   C     C_R   0.389411 0.301734 0.867530 0.330300
C31   C     C_R   0.445750 0.407526 0.926553 -0.028867
C32   C     C_R   0.446998 0.412024 0.071225 0.028241
N1    N     N_R   0.499210 0.498800 0.142780 -0.155820
C33   C     C_R   0.553515 0.581021 0.074477 0.422516
C34   C     C_R   0.553260 0.581364 0.931696 0.400687
N2    N     N_R   0.499180 0.498720 0.857170 -0.136108
Cl1   Cl    Cl    0.904381 0.266935 0.585581 -0.428762
Cl2   Cl    Cl    0.913195 0.758690 0.407298 -0.373858
Cl3   Cl    Cl    0.672316 0.236974 0.674041 -0.535625
Cl4   Cl    Cl    0.520352 0.931176 0.035532 -0.454737
Cl5   Cl    Cl    0.399968 0.791810 0.807949 -0.408099
Cl6   Cl    Cl    0.383265 0.846025 0.271071 -0.426747
Cl7   Cl    Cl    0.627195 0.685228 0.165157 -0.402761
C35   C     C_2   0.086709 0.324945 0.660560 1.093897
O9    O     O_2   0.116956 0.312626 0.771664 -0.546033
O10   O     O_R   0.091784 0.228435 0.561463 -0.724688
H10   H     H_    0.121813 0.154028 0.593859 0.396948
C36   C     C_2   0.282681 0.150094 0.171834 1.052375
O11   O     O_2   0.292880 0.152967 0.293445 -0.627035
O12   O     O_R   0.211312 0.079677 0.116427 -0.665848
H11   H     H_    0.175312 0.033322 0.186121 0.395234
Cl8   Cl    Cl    0.300776 0.062126 0.874568 -0.399885
Cl9   Cl    Cl    0.343989 0.279673 0.707266 -0.514458
Cl10  Cl    Cl    0.626327 0.685546 0.848772 -0.480371
C37   C     C_2   0.105158 0.745325 0.629814 0.979557
O13   O     O_2   0.153564 0.701289 0.708190 -0.563018
O14   O     O_R   0.092007 0.874714 0.640954 -0.695359
H12   H     H_    0.125448 0.920698 0.717592 0.395643
Cl11  Cl    Cl    0.099400 0.738829 0.368056 -0.439491
C38   C     C_2   0.926704 0.712870 0.668064 0.899564
O15   O     O_2   0.954918 0.676914 0.772780 -0.635970
O16   O     O_R   0.865686 0.802494 0.674301 -0.650356
H13   H     H_    0.850728 0.829003 0.769699 0.391686

loop_
_geom_bond_atom_site_label_1
_geom_bond_atom_site_label_2
_geom_bond_distance
_ccdc_geom_bond_type
C35   O10   1.398397 S    
C23   C24   1.399233 A    
C18   H8    1.083141 S    
Zn1   N2    2.037587 S    
C13   Cl11  1.816803 S    
O16   H13   1.014071 S    
C27   H9    1.049217 S    
C11   C14   1.444361 S    
Zn1   O7    1.968996 S    
C12   C13   1.610777 S    
C15   C16   1.182813 T    
C37   O14   1.400298 S    
C17   C22   1.416183 A    
H7    C24   1.081418 S    
C9    C15   1.444457 S    
C18   C19   1.390794 A    
O4    C2    1.293788 A    
O7    C4    1.295394 A    
C27   C32   1.399799 A    
C7    H3    1.112755 S    
C17   C18   1.391743 A    
O5    C3    1.290939 A    
C1    C23   1.440341 S    
C6    C7    1.535160 S    
C30   Cl9   1.752194 S    
C9    C13   1.592263 S    
C13   C37   1.533400 S    
Zn2   N1    2.037013 S    
C5    C9    1.573088 S    
C8    C14   1.184196 T    
O3    Zn1   1.970109 S    
C28   C36   1.500215 S    
C27   C28   1.377714 A    
C37   O13   1.223547 D    
C36   O11   1.223638 D    
O14   H12   1.013930 S    
O3    C2    1.295768 A    
C21   C22   1.395566 A    
C38   O16   1.400807 S    
C11   C12   1.589027 S    
C33   C34   1.425563 A    
C7    H4    1.111213 S    
C32   N1    1.361822 A    
C36   O12   1.398320 S    
C25   C26   1.398515 A    
C10   H6    1.110516 S    
C19   C20   1.406059 A    
C34   Cl10  1.758745 S    
C33   Cl7   1.759112 S    
C28   C29   1.385539 A    
Zn2   O8    1.970108 S    
C31   C32   1.443176 A    
C5    C10   1.559009 S    
C10   C11   1.568067 S    
C19   Cl4   1.751556 S    
C20   Cl5   1.772418 S    
C6    H1    1.112062 S    
C29   C30   1.420737 A    
C2    C16   1.394090 S    
O8    C4    1.294919 A    
O10   H10   1.013822 S    
C6    C9    1.560492 S    
C38   O15   1.223038 D    
C24   C25   1.377583 A    
C29   Cl8   1.783323 S    
N1    C33   1.371516 A    
C25   Cl6   1.764490 S    
Zn1   O5    1.991892 S    
C34   N2    1.367758 A    
C22   C23   1.411903 A    
O1    Zn1   1.960309 S    
O2    Zn2   1.991893 S    
C12   C38   1.543333 S    
O6    C3    1.312323 A    
O4    Zn2   1.968996 S    
C5    H5    1.109404 S    
C21   C26   1.415087 A    
C10   Cl1   1.807871 S    
C31   N2    1.429087 A    
C7    C11   1.552248 S    
C4    C8    1.396919 S    
O2    C1    1.298603 A    
C20   C21   1.422449 A    
C6    H2    1.109146 S    
O12   H11   1.014128 S    
C12   Cl2   1.821498 S    
C35   O9    1.223506 D    
Zn2   O6    1.960309 S    
C30   C31   1.474427 A    
C17   Cl3   1.757372 S    
C5    C35   1.525564 S    
O1    C1    1.300527 A    
C3    C26   1.450558 S    
