data_mof_unit_20020.cif
_audit_creation_date              2013-03-05T16:35:41-0500
_audit_creation_method            fapswitch 2.2
_symmetry_space_group_name_H-M    P1
_symmetry_Int_Tables_number       1
_space_group_crystal_system       triclinic
_cell_length_a                    8.58951
_cell_length_b                    19.188116
_cell_length_c                    18.439339
_cell_angle_alpha                 90.14229
_cell_angle_beta                  98.736261
_cell_angle_gamma                 90.021676
_cell_volume                      3003.83759056

loop_
_atom_site_label
_atom_site_type_symbol
_atom_site_description
_atom_site_fract_x
_atom_site_fract_y
_atom_site_fract_z
_atom_type_partial_charge
O1    O     O_R   0.500010 0.398180 0.560840 -0.632369
O2    O     O_R   0.499990 0.601820 0.439160 -0.627676
O3    O     O_R   0.499930 0.398180 0.439210 -0.583028
O4    O     O_R   0.500070 0.601820 0.560790 -0.580329
C1    C     C_R   0.501200 0.365504 0.500005 0.925984
C2    C     C_R   0.493599 0.634402 0.499669 0.914196
O5    O     O_R   0.271780 0.500000 0.546590 -0.600298
O6    O     O_R   0.728220 0.500000 0.453410 -0.608847
O7    O     O_R   0.271710 0.499990 0.424960 -0.633599
O8    O     O_R   0.728290 0.500010 0.575040 -0.629271
C3    C     C_R   0.200795 0.499676 0.480841 0.994933
C4    C     C_R   0.799202 0.499924 0.519150 0.988045
Zn1   Zn    Zn3+2 0.500050 0.500000 0.581210 1.010205
Zn2   Zn    Zn3+2 0.499950 0.500000 0.418790 1.005076
C5    C     C_2   0.035784 0.499496 0.470450 -0.323394
C6    C     C_2   0.964204 0.499646 0.529531 -0.311839
C7    C     C_R   0.534026 0.749097 0.447218 -0.202288
C8    C     C_R   0.385759 0.260288 0.543307 -0.201984
H1    H     H_    0.606794 0.725082 0.410999 0.172803
H2    H     H_    0.329539 0.291886 0.580680 0.170619
C9    C     C_R   0.510248 0.820511 0.443706 -0.135960
C10   C     C_R   0.353160 0.189697 0.538612 -0.133555
H3    H     H_    0.566184 0.850834 0.405390 0.155227
H4    H     H_    0.275360 0.167354 0.573426 0.155692
C11   C     C_R   0.418726 0.852671 0.490813 0.044123
C12   C     C_R   0.420345 0.148265 0.489224 0.046940
C13   C     C_R   0.349884 0.813019 0.540989 -0.219447
C14   C     C_R   0.520614 0.177775 0.444433 -0.211011
C15   C     C_R   0.371231 0.741168 0.544555 0.318302
C16   C     C_R   0.556151 0.248738 0.449200 0.309814
C17   C     C_R   0.466786 0.709167 0.497889 -0.155815
C18   C     C_R   0.485755 0.290272 0.498646 -0.151722
C19   C     C_R   0.423786 0.965037 0.556427 -0.153846
C20   C     C_R   0.368497 0.036283 0.422819 -0.153025
C21   C     C_R   0.422578 0.037172 0.556049 -0.160303
C22   C     C_R   0.369414 0.963953 0.423194 -0.163791
H5    H     H_    0.448340 0.064904 0.607733 0.155842
H6    H     H_    0.349066 0.935966 0.371527 0.157213
C23   C     C_R   0.398594 0.073019 0.489228 0.110816
C24   C     C_R   0.400694 0.928179 0.489986 0.112131
C25   C     C_R   0.607637 0.540297 0.732363 -0.020650
C26   C     C_R   0.392466 0.459613 0.267686 -0.023730
H7    H     H_    0.688648 0.571283 0.706339 0.175573
H8    H     H_    0.311642 0.428561 0.293756 0.174490
C27   C     C_R   0.617799 0.540492 0.809521 0.241016
C28   C     C_R   0.382158 0.459409 0.190521 0.241717
C29   C     C_R   0.511201 0.498740 0.842265 0.055282
C30   C     C_R   0.488497 0.501251 0.157714 0.055621
C31   C     C_R   0.400490 0.458360 0.796150 -0.213697
C32   C     C_R   0.599105 0.541724 0.203779 -0.215025
C33   C     C_R   0.397304 0.459436 0.719887 0.033832
C34   C     C_R   0.602438 0.540654 0.280051 0.027321
H9    H     H_    0.312645 0.427721 0.684902 0.132790
H10   H     H_    0.687012 0.572443 0.314993 0.136834
N1    N     N_R   0.500020 0.499980 0.689440 -0.116344
N2    N     N_R   0.499980 0.500020 0.310560 -0.117678
C35   C     C_R   0.537232 0.437089 0.966283 0.335999
C36   C     C_R   0.462324 0.562888 0.033681 0.336142
C37   C     C_R   0.526793 0.439611 0.041877 -0.185756
C38   C     C_R   0.472783 0.560368 0.958088 -0.185057
H11   H     H_    0.550885 0.392995 0.074703 0.209709
H12   H     H_    0.448711 0.606984 0.925261 0.210106
C39   C     C_R   0.490431 0.501611 0.076483 -0.025707
C40   C     C_R   0.509153 0.498368 0.923484 -0.025640
H13   H     H_    0.973671 0.499420 0.414433 0.183308
H14   H     H_    0.026326 0.499705 0.585547 0.188770
H15   H     H_    0.316610 0.426231 0.819173 0.183561
H16   H     H_    0.682802 0.573920 0.180710 0.183800
N3    N     N_R   0.580642 0.372540 0.934780 0.219124
O9    O     O_R   0.547504 0.313361 0.963243 -0.322106
O10   O     O_R   0.668399 0.372391 0.883128 -0.341668
N4    N     N_R   0.418860 0.627431 0.065178 0.218985
O11   O     O_R   0.331093 0.627564 0.116826 -0.342469
O12   O     O_R   0.451913 0.686614 0.036700 -0.323190
H17   H     H_    0.275743 0.837851 0.576068 0.178314
H18   H     H_    0.577083 0.144869 0.408294 0.180025
N5    N     N_R   0.288734 0.701609 0.592745 0.213673
O13   O     O_R   0.199163 0.649809 0.566958 -0.399434
O14   O     O_R   0.279003 0.725105 0.658162 -0.346847
N6    N     N_R   0.667869 0.276824 0.406238 0.213990
O15   O     O_R   0.772371 0.322223 0.434712 -0.394668
O16   O     O_R   0.679778 0.250113 0.342371 -0.344488
H19   H     H_    0.449946 0.938130 0.608429 0.162164
H20   H     H_    0.348383 0.063583 0.370883 0.165416
N7    N     N_R   0.738521 0.581333 0.852908 0.212417
O17   O     O_R   0.795187 0.636329 0.824992 -0.334713
O18   O     O_R   0.805291 0.559669 0.916956 -0.320674
N8    N     N_R   0.261549 0.418464 0.147194 0.212236
O19   O     O_R   0.194526 0.440081 0.083169 -0.320588
O20   O     O_R   0.205222 0.363405 0.175150 -0.336651

loop_
_geom_bond_atom_site_label_1
_geom_bond_atom_site_label_2
_geom_bond_distance
_ccdc_geom_bond_type
Zn2   N2    1.995732 S    
C13   C15   1.391296 A    
C27   N7    1.440029 S    
C29   C31   1.406500 A    
N5    O13   1.300746 A    
O5    C3    1.271639 A    
C8    C18   1.401341 A    
C20   H20   1.083350 S    
O1    C1    1.285132 A    
C21   H5    1.083369 S    
C11   C24   1.457045 S    
C19   C21   1.384206 A    
C12   C23   1.455806 S    
C35   C37   1.411025 A    
C36   C38   1.411033 A    
C5    C6    1.329772 D    
C5    H13   1.088182 S    
C38   H12   1.083539 S    
C26   C28   1.412119 A    
C27   C29   1.419347 A    
O4    Zn1   1.990607 S    
N3    O10   1.301308 A    
C25   N1    1.361445 A    
C26   N2    1.361474 A    
C3    C5    1.401121 S    
C4    C6    1.401067 S    
C31   C33   1.402538 A    
C32   C34   1.402543 A    
C33   N1    1.360497 A    
C1    C18   1.449394 S    
C16   N6    1.439266 S    
C30   C32   1.406510 A    
C2    C17   1.452719 S    
C25   H7    1.081904 S    
O2    C2    1.286051 A    
C26   H8    1.081923 S    
C13   H17   1.083880 S    
C34   H10   1.081871 S    
C28   N8    1.440010 S    
N5    O14   1.301235 A    
C28   C30   1.419358 A    
C37   H11   1.083538 S    
C19   C24   1.400801 A    
N7    O18   1.301299 A    
C20   C23   1.400937 A    
C22   C24   1.401433 A    
N4    O12   1.301528 A    
C29   C40   1.500435 S    
N6    O15   1.301630 A    
C30   C39   1.500483 S    
N7    O17   1.301497 A    
C7    C9    1.385722 A    
C33   H9    1.081905 S    
O1    Zn1   1.988588 S    
C21   C23   1.400326 A    
O7    Zn2   1.980944 S    
O7    C3    1.274159 A    
O6    C4    1.271490 A    
C19   H19   1.083331 S    
O3    Zn2   1.990611 S    
O8    C4    1.274262 A    
N6    O16   1.301413 A    
N8    O20   1.301552 A    
C9    H3    1.083286 S    
C7    C17   1.400260 A    
C10   H4    1.083488 S    
O4    C2    1.284005 A    
C6    H14   1.088204 S    
C14   H18   1.083656 S    
C35   C40   1.417950 A    
C36   C39   1.417976 A    
C9    C11   1.399445 A    
O6    Zn2   1.967676 S    
C31   H15   1.083190 S    
C8    C10   1.382888 A    
C37   C39   1.406088 A    
N4    O11   1.301313 A    
O3    C1    1.284398 A    
O8    Zn1   1.980944 S    
C11   C13   1.397823 A    
C12   C14   1.400920 A    
C38   C40   1.406073 A    
C14   C16   1.394966 A    
C15   C17   1.415420 A    
C16   C18   1.412914 A    
C36   N4    1.439832 S    
C22   H6    1.083230 S    
C7    H1    1.083781 S    
C20   C22   1.387928 A    
C8    H2    1.083951 S    
N3    O9    1.301530 A    
O2    Zn2   1.988584 S    
O5    Zn1   1.967676 S    
C15   N5    1.436017 S    
N8    O19   1.301301 A    
C10   C12   1.396714 A    
C25   C27   1.412125 A    
C35   N3    1.439830 S    
C32   H16   1.083207 S    
C34   N2    1.360496 A    
Zn1   N1    1.995732 S    
