data_mof_unit_54569.cif
_audit_creation_date              2012-12-10T17:16:17-0500
_audit_creation_method            fapswitch 2.2
_symmetry_space_group_name_H-M    P1
_symmetry_Int_Tables_number       1
_space_group_crystal_system       triclinic
_cell_length_a                    19.31315
_cell_length_b                    12.934259
_cell_length_c                    11.820894
_cell_angle_alpha                 98.348917
_cell_angle_beta                  91.859455
_cell_angle_gamma                 92.957713
_cell_volume                      2915.30399728

loop_
_atom_site_label
_atom_site_type_symbol
_atom_type_description
_atom_site_fract_x
_atom_site_fract_y
_atom_site_fract_z
_atom_type_partial_charge
C1    C     C_R   0.502474 0.300153 0.479235 0.788179
C2    C     C_R   0.497307 0.699743 0.520596 0.783574
C3    C     C_R   0.489668 0.812061 0.531383 -0.078604
C4    C     C_R   0.509292 0.187533 0.467510 -0.078662
C5    C     C_R   0.556727 0.025750 0.382583 -0.200343
C6    C     C_R   0.441217 0.973370 0.615138 -0.199443
C7    C     C_R   0.552472 0.134233 0.385567 0.080957
C8    C     C_R   0.445945 0.864983 0.612495 0.075616
C9    C     C_R   0.472285 0.133272 0.541923 -0.300204
C10   C     C_R   0.525574 0.866041 0.455535 -0.282348
C11   C     C_R   0.477786 0.026584 0.538959 0.141680
C12   C     C_R   0.520123 0.972710 0.458758 0.139781
C13   C     C_R   0.419759 0.426706 0.035566 -0.350534
C14   C     C_R   0.561319 0.608098 0.969273 -0.352177
C15   C     C_R   0.429257 0.431632 0.154104 0.053661
C16   C     C_R   0.554819 0.597281 0.849770 0.045929
C17   C     C_R   0.535010 0.533574 0.148324 0.245863
C18   C     C_R   0.470717 0.455734 0.849958 0.252597
C19   C     C_R   0.520665 0.542831 0.031094 0.032817
C20   C     C_R   0.468419 0.477119 0.971602 0.030024
C21   C     C_R   0.367740 0.499766 0.501605 0.758121
C22   C     C_R   0.632233 0.500496 0.498538 0.766936
C23   C     C_R   0.258587 0.529156 0.606190 -0.212044
C24   C     C_R   0.741509 0.456200 0.400498 -0.215906
C25   C     C_R   0.186372 0.528946 0.606681 -0.153823
C26   C     C_R   0.813662 0.456158 0.401236 -0.158935
C27   C     C_R   0.146324 0.497602 0.504871 0.058975
C28   C     C_R   0.853580 0.501591 0.499098 0.059138
C29   C     C_R   0.179779 0.466340 0.402923 -0.159785
C30   C     C_R   0.819981 0.547499 0.595750 -0.160527
C31   C     C_R   0.251743 0.467016 0.402445 -0.176851
C32   C     C_R   0.747936 0.547591 0.594727 -0.179360
C33   C     C_R   0.291778 0.498474 0.503969 -0.026589
C34   C     C_R   0.708153 0.502033 0.497043 -0.015441
C35   C     C_R   0.929775 0.500450 0.500851 0.410637
C36   C     C_R   0.070109 0.498094 0.504040 0.409943
Cu1   Cu    Cu3+1 0.505120 0.507730 0.615930 0.922425
Cu2   Cu    Cu3+1 0.494880 0.492270 0.384070 0.924716
H1    H     H_    0.288387 0.554538 0.685319 0.141174
H2    H     H_    0.711948 0.418728 0.325370 0.133322
H3    H     H_    0.374114 0.383396 0.994664 0.161789
H4    H     H_    0.598449 0.667444 0.012509 0.158084
H5    H     H_    0.162052 0.553534 0.686653 0.151091
H6    H     H_    0.837998 0.419569 0.325564 0.152401
H7    H     H_    0.150490 0.441812 0.323024 0.152246
H8    H     H_    0.849220 0.583361 0.672384 0.151896
H9    H     H_    0.275949 0.442465 0.322324 0.142749
H10   H     H_    0.723354 0.583726 0.670434 0.143133
H11   H     H_    0.558532 0.824899 0.394169 0.134720
H12   H     H_    0.438208 0.174179 0.601480 0.149039
H13   H     H_    0.588565 0.981188 0.321985 0.126751
H14   H     H_    0.409283 0.017582 0.675781 0.123723
H15   H     H_    0.585826 0.648568 0.804361 0.133906
H16   H     H_    0.391112 0.392754 0.200757 0.133105
N1    N     N_R   0.031642 0.461340 0.407062 -0.242996
N2    N     N_R   0.968215 0.537170 0.597921 -0.242494
N3    N     N_R   0.962848 0.462390 0.405495 -0.242871
N4    N     N_R   0.037053 0.536003 0.599526 -0.242273
N5    N     N_R   0.512830 0.519350 0.790130 -0.184947
N6    N     N_R   0.487170 0.480650 0.209870 -0.187632
O1    O     O_R   0.503640 0.354460 0.582000 -0.587902
O2    O     O_R   0.496360 0.645540 0.418000 -0.576445
O3    O     O_R   0.494980 0.341410 0.386200 -0.591442
O4    O     O_R   0.505020 0.658590 0.613800 -0.596622
O5    O     O_R   0.404470 0.506520 0.597930 -0.593881
O6    O     O_R   0.595530 0.493480 0.402070 -0.599345
O7    O     O_R   0.395820 0.493460 0.402130 -0.581358
O8    O     O_R   0.604180 0.506540 0.597870 -0.576408
C37   C     C_3   0.404057 0.804605 0.691645 -0.367425
C38   C     C_3   0.350507 0.866561 0.762838 -0.383377
C39   C     C_3   0.308271 0.796365 0.831540 -0.828949
H17   H     H_    0.276839 0.735527 0.773033 0.251447
H18   H     H_    0.343068 0.758094 0.887484 0.254962
H19   H     H_    0.272505 0.844182 0.886107 0.246353
H20   H     H_    0.377600 0.930487 0.823906 0.218724
H21   H     H_    0.314214 0.900829 0.705454 0.228500
H22   H     H_    0.375854 0.736442 0.638379 0.200760
H23   H     H_    0.440690 0.774887 0.752124 0.218408
C40   C     C_3   0.593958 0.193946 0.305216 -0.373720
C41   C     C_3   0.644236 0.129866 0.228802 -0.379801
C42   C     C_3   0.684776 0.198117 0.155832 -0.844440
H24   H     H_    0.648830 0.239555 0.105035 0.250810
H25   H     H_    0.720068 0.256164 0.210975 0.248653
H26   H     H_    0.716684 0.148228 0.096018 0.247690
H27   H     H_    0.681876 0.094246 0.282693 0.226585
H28   H     H_    0.614464 0.066868 0.170209 0.219385
H29   H     H_    0.556894 0.226385 0.247662 0.220646
H30   H     H_    0.624478 0.260111 0.357874 0.195607
C43   C     C_3   0.440969 0.346991 0.797125 -0.375526
C44   C     C_3   0.368730 0.345416 0.737714 -0.298083
C45   C     C_3   0.320769 0.253907 0.761478 -0.913163
H31   H     H_    0.344612 0.178362 0.735151 0.246256
H32   H     H_    0.309867 0.261352 0.853808 0.253673
H33   H     H_    0.270789 0.253704 0.712243 0.259357
H34   H     H_    0.343367 0.419164 0.766927 0.221162
H35   H     H_    0.374057 0.336515 0.643920 0.235662
H36   H     H_    0.479082 0.303897 0.745712 0.201654
H37   H     H_    0.438034 0.294779 0.863753 0.172081
C46   C     C_3   0.610742 0.556574 0.188081 -0.356258
C47   C     C_3   0.625848 0.665908 0.257195 -0.327856
C48   C     C_3   0.702785 0.700117 0.259379 -0.884162
H38   H     H_    0.734502 0.643186 0.296403 0.275174
H39   H     H_    0.719463 0.706380 0.171460 0.253201
H40   H     H_    0.711868 0.777964 0.312799 0.243666
H41   H     H_    0.595724 0.724179 0.219185 0.199532
H42   H     H_    0.611102 0.666613 0.346536 0.250148
H43   H     H_    0.630703 0.491935 0.227268 0.201249
H44   H     H_    0.644198 0.549872 0.112953 0.168911

loop_
_geom_bond_atom_site_label_1
_geom_bond_atom_site_label_2
_ccdc_geom_bond_type
C48   H38   S    
C27   C29   A    
C15   N6    A    
C37   H22   S    
C19   C20   A    
C25   H5    S    
C13   H3    S    
C42   H24   S    
C26   H6    S    
C44   H34   S    
C46   H44   S    
C47   H41   S    
Cu1   Cu2   S    
C24   C26   A    
C36   N4    A    
C21   C33   S    
Cu1   O8    S    
C43   H36   S    
C16   H15   S    
C22   O6    A    
C41   H28   S    
C17   C19   A    
Cu2   O6    S    
C28   C35   S    
C23   C33   A    
Cu1   O5    S    
C31   C33   A    
C38   C39   S    
C14   H4    S    
C48   H39   S    
C31   H9    S    
C21   O7    A    
C32   H10   S    
C37   H23   S    
C4    C7    A    
C1    O3    A    
C40   H29   S    
C40   H30   S    
C42   H25   S    
C2    O4    A    
C22   C34   S    
C15   H16   S    
C5    C12   A    
C3    C8    A    
C45   H31   S    
C5    C7    A    
C6    C8    A    
C24   C34   A    
C29   H7    S    
Cu1   O4    S    
C16   N5    A    
C32   C34   A    
C41   H27   S    
C45   H32   S    
C9    C11   A    
C46   C47   S    
C8    C37   S    
C17   C46   S    
C22   O8    A    
Cu1   N5    S    
C10   C12   A    
Cu2   N6    S    
C48   H40   S    
N1    N3    A    
C38   H21   S    
C14   C16   A    
C6    C11   A    
C42   H26   S    
C7    C40   S    
Cu2   O3    S    
C13   C20   A    
C21   O5    A    
C35   N2    A    
C18   C43   S    
C47   H42   S    
C14   C19   A    
C30   H8    S    
C9    H12   S    
C41   C42   S    
C1    O1    A    
C39   H19   S    
Cu1   O1    S    
C11   C12   A    
C44   H35   S    
C27   C36   S    
C25   C27   A    
C46   H43   S    
C26   C28   A    
C43   H37   S    
C35   N3    A    
C1    C4    S    
C13   C15   A    
C2    C3    S    
C43   C44   S    
C39   H17   S    
C29   C31   A    
C36   N1    A    
C45   H33   S    
C30   C32   A    
C44   C45   S    
C23   H1    S    
C28   C30   A    
C47   C48   S    
C24   H2    S    
N2    N4    A    
C18   C20   A    
C23   C25   A    
C37   C38   S    
C17   N6    A    
C40   C41   S    
C18   N5    A    
Cu2   O7    S    
C39   H18   S    
C38   H20   S    
C3    C10   A    
C5    H13   S    
C6    H14   S    
C4    C9    A    
C10   H11   S    
C2    O2    A    
Cu2   O2    S    
