data_mof_unit_19081.cif
_audit_creation_date              2012-10-26T20:34:04-0400
_audit_creation_method            fapswitch 2.2
_symmetry_space_group_name_H-M    P1
_symmetry_Int_Tables_number       1
_space_group_crystal_system       triclinic
_cell_length_a                    15.923752
_cell_length_b                    9.081849
_cell_length_c                    7.868557
_cell_angle_alpha                 90.030297
_cell_angle_beta                  91.908317
_cell_angle_gamma                 90.033446
_cell_volume                      1137.29651437

loop_
_atom_site_label
_atom_site_type_symbol
_atom_type_description
_atom_site_fract_x
_atom_site_fract_y
_atom_site_fract_z
_atom_type_partial_charge
C1    C     C_R   0.500007 0.220363 0.499973 0.547160
C2    C     C_3   0.044375 0.400286 0.370646 0.093237
C3    C     C_3   0.958368 0.481674 0.678108 0.098549
C4    C     C_3   0.947074 0.401515 0.379618 0.124222
C5    C     C_1   0.749251 0.506414 0.509896 0.104680
C6    C     C_1   0.250749 0.506927 0.488893 0.106583
C7    C     C_3   0.083196 0.528122 0.482423 -0.086805
C8    C     C_3   0.916482 0.525995 0.502388 -0.089724
C9    C     C_3   0.946371 0.690143 0.452214 0.003426
C10   C     C_3   0.047833 0.686217 0.417100 -0.002140
C11   C     C_2   0.094070 0.819744 0.496501 0.638792
C12   C     C_1   0.824471 0.514364 0.511529 0.104404
C13   C     C_2   0.073652 0.709704 0.231211 0.677883
C14   C     C_2   0.921159 0.793344 0.599812 0.649774
C15   C     C_2   0.893896 0.756718 0.303334 0.675394
C16   C     C_1   0.175529 0.515664 0.482390 0.104883
C17   C     C_R   0.340070 0.500264 0.497072 0.549902
C18   C     C_R   0.659923 0.500309 0.502853 0.546468
C19   C     C_1   0.500024 0.934531 0.500039 -0.009085
C20   C     C_1   0.500020 0.065468 0.499963 -0.013319
C21   C     C_R   0.500018 0.779641 0.500028 0.557343
C22   C     C_3   0.055866 0.491533 0.667900 0.111742
Cl1   Cl    Cl    0.083229 0.381547 0.160074 -0.390149
Cl2   Cl    Cl    0.107113 0.601796 0.827090 -0.375842
Cl3   Cl    Cl    0.889999 0.379610 0.182236 -0.368756
Cl4   Cl    Cl    0.914454 0.567103 0.860115 -0.367170
Cu1   Cu    Cu3+1 0.500000 0.500010 0.669080 1.098388
Cu2   Cu    Cu3+1 0.500000 0.500010 0.330920 1.104327
H1    H     H_    0.943026 0.364133 0.703450 0.140090
H2    H     H_    0.930261 0.294165 0.438290 0.132683
H3    H     H_    0.080373 0.379804 0.701019 0.137564
H4    H     H_    0.066185 0.294748 0.429056 0.109911
H5    H     H_    0.101070 0.041472 0.511534 0.342555
H6    H     H_    0.051606 0.822524 0.013171 0.413281
H7    H     H_    0.826324 0.894194 0.719422 0.364450
H8    H     H_    0.803603 0.734460 0.118910 0.369904
N1    N     N_1   0.500000 0.499970 0.076820 -0.060323
N2    N     N_1   0.500000 0.499970 0.923180 -0.060626
O1    O     O_R   0.500000 0.288400 0.642760 -0.498195
O2    O     O_R   0.065151 0.961549 0.455996 -0.641562
O3    O     O_2   0.147266 0.691155 0.195890 -0.422326
O4    O     O_R   0.020404 0.773537 0.107846 -0.545111
O5    O     O_2   0.972155 0.840070 0.706153 -0.416828
O6    O     O_R   0.836160 0.828874 0.617451 -0.674520
O7    O     O_2   0.900220 0.888609 0.272618 -0.410466
O8    O     O_R   0.834876 0.674186 0.209074 -0.594719
O9    O     O_R   0.500000 0.288400 0.357240 -0.496389
O10   O     O_R   0.379440 0.500020 0.642850 -0.485411
O11   O     O_R   0.379440 0.500020 0.357150 -0.485159
O12   O     O_R   0.620560 0.500020 0.642850 -0.497022
O13   O     O_R   0.620560 0.500020 0.357150 -0.484949
O14   O     O_R   0.500000 0.711620 0.642810 -0.493220
O15   O     O_R   0.500000 0.711620 0.357190 -0.494503
O16   O     O_2   0.158971 0.806478 0.582372 -0.443276

loop_
_geom_bond_atom_site_label_1
_geom_bond_atom_site_label_2
_ccdc_geom_bond_type
Cu1   O10   S    
C8    C9    S    
C7    C10   S    
C2    C4    S    
C9    C14   S    
C17   O10   A    
Cu2   O9    S    
H8    O8    S    
N1    N2    T    
C8    C12   S    
C7    C22   S    
C9    C10   S    
C19   C20   T    
H6    O4    S    
Cu1   O12   S    
C4    C8    S    
Cu2   O15   S    
C22   H3    S    
C13   O3    D    
C4    Cl3   S    
C9    C15   S    
C4    H2    S    
C21   O15   A    
H7    O6    S    
C11   O16   D    
Cu2   N1    S    
C14   O6    S    
C13   O4    S    
C19   C21   S    
C18   O13   A    
C3    Cl4   S    
C11   O2    S    
Cu2   O13   S    
C22   Cl2   S    
H5    O2    S    
C10   C11   S    
C15   O7    D    
Cu1   N2    S    
C6    C16   T    
Cu1   Cu2   S    
Cu1   O14   S    
C18   O12   A    
C5    C12   T    
C2    H4    S    
C3    C8    S    
Cu2   O11   S    
C17   O11   A    
C2    Cl1   S    
C3    H1    S    
C6    C17   S    
C1    O1    A    
C7    C16   S    
C3    C22   S    
C5    C18   S    
C15   O8    S    
C21   O14   A    
C1    O9    A    
C2    C7    S    
Cu1   O1    S    
C14   O5    D    
C1    C20   S    
C10   C13   S    
