data_mof_unit_9386.cif
_audit_creation_date              2012-12-10T16:36:41-0500
_audit_creation_method            fapswitch 2.2
_symmetry_space_group_name_H-M    P1
_symmetry_Int_Tables_number       1
_space_group_crystal_system       triclinic
_cell_length_a                    14.075292
_cell_length_b                    16.466624
_cell_length_c                    15.139187
_cell_angle_alpha                 90.739766
_cell_angle_beta                  91.654425
_cell_angle_gamma                 89.854219
_cell_volume                      3507.08452766

loop_
_atom_site_label
_atom_site_type_symbol
_atom_type_description
_atom_site_fract_x
_atom_site_fract_y
_atom_site_fract_z
_atom_type_partial_charge
C1    C     C_R   0.681006 0.845501 0.519852 0.501909
C2    C     C_R   0.978181 0.543461 0.108546 0.017426
C3    C     C_R   0.577857 0.922788 0.129616 0.011675
C4    C     C_R   0.077865 0.422794 0.129615 0.011676
C5    C     C_R   0.575722 0.907930 0.037670 0.046989
C6    C     C_R   0.075728 0.407934 0.037669 0.046981
C7    C     C_2   0.238873 0.211314 0.484846 0.222618
C8    C     C_2   0.252382 0.777278 0.466896 0.241860
C9    C     C_2   0.738873 0.711313 0.484846 0.222616
C10   C     C_2   0.752381 0.277279 0.466898 0.241857
C11   C     C_2   0.754202 0.784611 0.521274 -0.085602
C12   C     C_R   0.680400 0.155386 0.520393 0.536143
C13   C     C_2   0.750637 0.218595 0.527183 -0.077070
C14   C     C_2   0.254202 0.284611 0.521275 -0.085571
C15   C     C_2   0.250637 0.718595 0.527183 -0.077065
C16   C     C_R   0.318318 0.154820 0.482476 0.511935
C17   C     C_R   0.320896 0.843259 0.479105 0.492344
C18   C     C_R   0.818318 0.654820 0.482477 0.511954
C19   C     C_R   0.820896 0.343259 0.479105 0.492338
C20   C     C_R   0.520997 0.999840 0.260686 0.527995
C21   C     C_R   0.020997 0.499839 0.260686 0.527944
C22   C     C_R   0.477940 0.000705 0.738638 0.531159
C23   C     C_R   0.181006 0.345501 0.519853 0.501913
C24   C     C_R   0.977941 0.500706 0.738638 0.531119
C25   C     C_R   0.529132 0.990517 0.164777 -0.056803
C26   C     C_R   0.029130 0.490516 0.164777 -0.056807
C27   C     C_R   0.467741 0.003047 0.834195 -0.013256
C28   C     C_R   0.967736 0.503046 0.834194 -0.013260
C29   C     C_R   0.397627 0.063333 0.963591 0.297253
C30   C     C_R   0.897615 0.563324 0.963590 0.297234
C31   C     C_R   0.400578 0.055252 0.871914 0.235734
C32   C     C_R   0.900572 0.555249 0.871913 0.235723
C33   C     C_R   0.527913 0.955036 0.887488 0.219453
C34   C     C_R   0.180400 0.655386 0.520394 0.536146
C35   C     C_R   0.027910 0.455037 0.887488 0.219462
C36   C     C_2   0.449724 0.125712 0.141233 0.604801
C37   C     C_2   0.949680 0.625692 0.141242 0.604865
C38   C     C_2   0.628014 0.864642 0.188885 0.596769
C39   C     C_2   0.128035 0.364655 0.188882 0.596785
C40   C     C_3   0.258046 0.058784 0.036256 -0.020379
C41   C     C_3   0.170822 0.108131 0.059899 -0.327391
C42   C     C_3   0.758024 0.558765 0.036236 -0.020322
C43   C     C_3   0.670833 0.608124 0.059958 -0.327342
C44   C     C_2   0.623403 0.833734 0.003467 0.640841
C45   C     C_R   0.522968 0.960458 0.980829 -0.078271
C46   C     C_2   0.123417 0.333743 0.003465 0.640843
C47   C     C_3   0.264013 0.062419 0.787071 -0.003870
C48   C     C_3   0.203127 0.118530 0.729763 -0.328361
C49   C     C_3   0.764037 0.562441 0.787020 -0.003819
C50   C     C_3   0.703097 0.618619 0.729842 -0.328327
C51   C     C_3   0.679735 0.949923 0.839228 0.001021
C52   C     C_3   0.751452 0.896909 0.791967 -0.334242
C53   C     C_3   0.179733 0.449934 0.839226 0.001023
C54   C     C_3   0.251453 0.396926 0.791963 -0.334232
C55   C     C_3   0.625520 0.699253 0.375001 0.016331
C56   C     C_R   0.022965 0.460457 0.980828 -0.078269
C57   C     C_3   0.525643 0.668399 0.353087 -0.345062
C58   C     C_3   0.731603 0.250372 0.319861 -0.016409
C59   C     C_3   0.656303 0.233004 0.248096 -0.318842
C60   C     C_3   0.125521 0.199256 0.375001 0.016347
C61   C     C_3   0.025621 0.168447 0.353099 -0.345072
C62   C     C_3   0.231614 0.750376 0.319857 -0.016405
C63   C     C_3   0.156318 0.732998 0.248091 -0.318827
C64   C     C_R   0.466108 0.022907 0.018075 -0.088971
C65   C     C_R   0.966097 0.522901 0.018075 -0.088981
C66   C     C_R   0.478197 0.043470 0.108545 0.017404
H1    H     H_    0.326066 0.304874 0.537898 0.087585
H2    H     H_    0.235079 0.009146 0.989786 0.102914
H3    H     H_    0.137236 0.133502 0.999027 0.194015
H4    H     H_    0.118596 0.068654 0.092176 0.110786
H5    H     H_    0.191285 0.158441 0.106127 0.216539
H6    H     H_    0.787086 0.530754 0.097729 0.163020
H7    H     H_    0.735015 0.509170 0.989727 0.102944
H8    H     H_    0.637228 0.633546 0.999121 0.194038
H9    H     H_    0.618607 0.568642 0.092225 0.110778
H10   H     H_    0.691342 0.658398 0.106219 0.216517
H11   H     H_    0.745166 0.769976 0.992832 0.368041
H12   H     H_    0.298255 0.718795 0.584942 0.084551
H13   H     H_    0.245189 0.269998 0.992824 0.368047
H14   H     H_    0.220022 0.041171 0.841950 0.132475
H15   H     H_    0.285003 0.009238 0.745846 0.112535
H16   H     H_    0.244799 0.140560 0.673752 0.175258
H17   H     H_    0.139796 0.085303 0.703090 0.113151
H18   H     H_    0.179176 0.171515 0.769567 0.188524
H19   H     H_    0.720076 0.541072 0.841868 0.132347
H20   H     H_    0.785055 0.509339 0.745687 0.112585
H21   H     H_    0.744741 0.640779 0.673867 0.175272
H22   H     H_    0.639787 0.585394 0.703114 0.113165
H23   H     H_    0.826066 0.804874 0.537896 0.087586
H24   H     H_    0.679109 0.671524 0.769761 0.188533
H25   H     H_    0.710342 0.966955 0.905540 0.151963
H26   H     H_    0.668139 0.006007 0.799951 0.115196
H27   H     H_    0.723473 0.880243 0.724835 0.159257
H28   H     H_    0.819214 0.930471 0.785822 0.100573
H29   H     H_    0.765408 0.840593 0.829847 0.197048
H30   H     H_    0.210340 0.466967 0.905538 0.151967
H31   H     H_    0.168132 0.506018 0.799951 0.115197
H32   H     H_    0.223474 0.380259 0.724832 0.159258
H33   H     H_    0.319212 0.430492 0.785817 0.100569
H34   H     H_    0.798258 0.218792 0.584940 0.084554
H35   H     H_    0.265415 0.340610 0.829842 0.197055
H36   H     H_    0.676042 0.667410 0.330971 0.168208
H37   H     H_    0.626813 0.765564 0.362162 0.156197
H38   H     H_    0.473349 0.701046 0.394242 0.144805
H39   H     H_    0.507283 0.678737 0.282327 0.144756
H40   H     H_    0.521490 0.602301 0.366111 0.170873
H41   H     H_    0.772316 0.193057 0.331526 0.133512
H42   H     H_    0.780549 0.297659 0.295781 0.149160
H43   H     H_    0.615192 0.289071 0.233149 0.183088
H44   H     H_    0.690635 0.211291 0.187002 0.120890
H45   H     H_    0.375989 0.193743 0.227528 0.333032
H46   H     H_    0.607010 0.185375 0.270437 0.176855
H47   H     H_    0.176019 0.167384 0.330970 0.168237
H48   H     H_    0.126855 0.265566 0.362153 0.156195
H49   H     H_    0.973351 0.201123 0.394258 0.144805
H50   H     H_    0.007260 0.178787 0.282339 0.144750
H51   H     H_    0.021427 0.102351 0.366129 0.170861
H52   H     H_    0.272339 0.693068 0.331522 0.133500
H53   H     H_    0.280549 0.797671 0.295779 0.149170
H54   H     H_    0.115192 0.789057 0.233147 0.183104
H55   H     H_    0.190656 0.711295 0.186997 0.120887
H56   H     H_    0.875865 0.693694 0.227501 0.333026
H57   H     H_    0.107038 0.685357 0.270429 0.176846
H58   H     H_    0.739633 0.842949 0.271899 0.322101
H59   H     H_    0.239661 0.342975 0.271891 0.322115
H60   H     H_    0.287095 0.030833 0.097786 0.163068
O1    O     O_3   0.500000 1.000000 0.500000 -0.460985
O2    O     O_R   0.885830 0.337110 0.539910 -0.569477
O3    O     O_R   0.692160 0.095230 0.468550 -0.538628
O4    O     O_R   0.692160 0.904770 0.468550 -0.550801
O5    O     O_R   0.192160 0.595230 0.468550 -0.538621
O6    O     O_R   0.192160 0.404770 0.468550 -0.550811
O7    O     O_R   0.316720 0.904790 0.427870 -0.522527
O8    O     O_R   0.316720 0.095210 0.427870 -0.509969
O9    O     O_R   0.816720 0.404790 0.427870 -0.522516
O10   O     O_R   0.816720 0.595210 0.427870 -0.509971
O11   O     O_R   0.594900 0.000000 0.310900 -0.508495
O12   O     O_3   1.000000 0.500000 0.500000 -0.460986
O13   O     O_R   0.094900 0.500000 0.310900 -0.508500
O14   O     O_R   0.483090 0.932320 0.697550 -0.506374
O15   O     O_R   0.483090 0.067680 0.697550 -0.520993
O16   O     O_R   0.983090 0.432320 0.697550 -0.506374
O17   O     O_R   0.983090 0.567680 0.697550 -0.521003
O18   O     O_R   0.438930 0.000000 0.294000 -0.504360
O19   O     O_R   0.938930 0.500000 0.294000 -0.504355
O20   O     O_2   0.477108 0.185881 0.102933 -0.490270
O21   O     O_R   0.390440 0.134754 0.213202 -0.688010
O22   O     O_2   0.977089 0.685872 0.102981 -0.490310
O23   O     O_R   0.605310 0.837110 0.563680 -0.500459
O24   O     O_R   0.890336 0.634711 0.213168 -0.687987
O25   O     O_2   0.599355 0.794866 0.193126 -0.581502
O26   O     O_R   0.710325 0.888616 0.235964 -0.644210
O27   O     O_2   0.099385 0.294877 0.193128 -0.581503
O28   O     O_R   0.210346 0.388638 0.235955 -0.644209
O29   O     O_3   0.325753 0.110451 0.998490 -0.507848
O30   O     O_3   0.825737 0.610438 0.998489 -0.507851
O31   O     O_2   0.577307 0.782916 0.961205 -0.489957
O32   O     O_R   0.720533 0.821885 0.020745 -0.676421
O33   O     O_2   0.077326 0.282918 0.961210 -0.489939
O34   O     O_R   0.605310 0.162890 0.563680 -0.526013
O35   O     O_R   0.220550 0.321906 0.020736 -0.676424
O36   O     O_3   0.344230 0.105748 0.819843 -0.509440
O37   O     O_3   0.844238 0.605762 0.819846 -0.509438
O38   O     O_3   0.594340 0.905956 0.846964 -0.505645
O39   O     O_3   0.094342 0.405961 0.846963 -0.505641
O40   O     O_3   0.647625 0.683977 0.464621 -0.556729
O41   O     O_3   0.686609 0.277895 0.396917 -0.549066
O42   O     O_3   0.147625 0.183979 0.464620 -0.556735
O43   O     O_3   0.186613 0.777891 0.396914 -0.549068
O44   O     O_R   0.105310 0.337110 0.563680 -0.500449
O45   O     O_R   0.105310 0.662890 0.563680 -0.526016
O46   O     O_R   0.385830 0.162890 0.539910 -0.562474
O47   O     O_R   0.385830 0.837110 0.539910 -0.569471
O48   O     O_R   0.885830 0.662890 0.539910 -0.562469
Zn1   Zn    Zn3+2 0.493670 0.096680 0.574000 0.958516
Zn2   Zn    Zn3+2 0.493670 0.903320 0.574000 0.953552
Zn3   Zn    Zn3+2 0.993670 0.596680 0.574000 0.958506
Zn4   Zn    Zn3+2 0.993670 0.403320 0.574000 0.953548
Zn5   Zn    Zn3+2 0.617760 0.000000 0.438070 0.958783
Zn6   Zn    Zn3+2 0.117760 0.500000 0.438070 0.958776
Zn7   Zn    Zn3+2 0.394920 1.000000 0.413930 0.973039
Zn8   Zn    Zn3+2 0.894920 0.500000 0.413930 0.973041

loop_
_geom_bond_atom_site_label_1
_geom_bond_atom_site_label_2
_ccdc_geom_bond_type
C20   O11   A    
C57   H39   S    
C7    O42   S    
C55   H37   S    
C33   C45   A    
C20   O18   A    
C54   H35   S    
C60   H48   S    
C1    C11   S    
C37   O24   S    
C21   C26   S    
C2    C65   A    
O12   Zn6   S    
C53   C54   S    
C27   C33   A    
O3    Zn5   S    
C55   H36   S    
C60   O42   S    
O44   Zn4   S    
H56   O24   S    
C9    O40   S    
C36   C66   S    
C15   H12   S    
C20   C25   S    
C24   O17   A    
C19   O9    A    
C56   C65   A    
C32   O37   S    
C22   O14   A    
C19   O2    A    
O1    Zn2   S    
C59   H44   S    
C44   O32   S    
C52   H29   S    
C58   H41   S    
C57   H38   S    
C16   O46   A    
O13   Zn6   S    
C51   H25   S    
C47   O36   S    
C50   H24   S    
C7    C14   D    
C3    C38   S    
C24   O16   A    
C10   O41   S    
C46   O35   S    
C61   H49   S    
C14   H1    S    
C40   O29   S    
C18   O10   A    
C15   C34   S    
O46   Zn1   S    
C50   H22   S    
H11   O32   S    
C41   H5    S    
C43   H8    S    
C30   O30   S    
C57   H40   S    
H58   O26   S    
C29   C64   A    
C16   O8    A    
C53   H30   S    
O1    Zn1   S    
C44   O31   D    
C60   H47   S    
C47   H14   S    
H13   O35   S    
C59   H43   S    
C38   O26   S    
C63   H55   S    
C17   O47   A    
C43   H9    S    
C62   H52   S    
C12   O3    A    
C39   O28   S    
C27   C31   A    
C51   C52   S    
C49   H19   S    
C3    C25   A    
C33   O38   S    
C28   C35   A    
C4    C6    A    
C1    O4    A    
C53   H31   S    
C58   C59   S    
C61   H51   S    
O19   Zn8   S    
C48   H18   S    
O17   Zn3   S    
C60   C61   S    
C21   O19   A    
C14   C23   S    
C42   O30   S    
C62   C63   S    
H45   O21   S    
C51   H26   S    
C11   H23   S    
C36   O21   S    
C4    C26   A    
C47   C48   S    
O11   Zn5   S    
C4    C39   S    
C28   C32   A    
C10   C19   S    
O14   Zn2   S    
C40   H60   S    
C61   H50   S    
C42   H6    S    
C59   H46   S    
C51   O38   S    
C2    C26   A    
C12   O34   A    
C52   H28   S    
C58   O41   S    
C9    C11   D    
O48   Zn3   S    
C62   H53   S    
C50   H21   S    
O6    Zn6   S    
C18   O48   A    
C53   O39   S    
C7    C16   S    
C5    C44   S    
C39   O27   D    
C34   O5    A    
C8    C15   D    
C22   C27   S    
C55   C57   S    
C17   O7    A    
O1    Zn7   S    
O34   Zn1   S    
C54   H33   S    
O2    Zn4   S    
C42   C43   S    
C21   O13   A    
O8    Zn7   S    
O12   Zn4   S    
C38   O25   D    
H59   O28   S    
C41   H3    S    
O47   Zn2   S    
O7    Zn7   S    
C43   H10   S    
C62   O43   S    
O18   Zn7   S    
C40   C41   S    
C42   H7    S    
C6    C46   S    
C35   C56   A    
C49   H20   S    
C8    O43   S    
O45   Zn3   S    
C25   C66   A    
C24   C28   S    
C6    C56   A    
C1    O23   A    
C3    C5    A    
C10   C13   D    
C63   H57   S    
O5    Zn6   S    
C45   C64   A    
C8    C17   S    
O9    Zn8   S    
C48   H17   S    
C29   O29   S    
O23   Zn2   S    
O1    Zn5   S    
C52   H27   S    
C29   C31   A    
C36   O20   D    
C30   C32   A    
C63   H54   S    
C2    C37   S    
O16   Zn4   S    
C23   O44   A    
C5    C45   A    
C13   H34   S    
C46   O33   D    
C22   O15   A    
C35   O39   S    
C48   H16   S    
C23   O6    A    
C58   H42   S    
C47   H15   S    
C37   O22   D    
O12   Zn8   S    
C49   O37   S    
C30   C65   A    
O4    Zn5   S    
C9    C18   S    
C12   C13   S    
C49   C50   S    
C40   H2    S    
O10   Zn8   S    
O15   Zn1   S    
C31   O36   S    
C54   H32   S    
C55   O40   S    
O12   Zn3   S    
C34   O45   A    
C64   C66   A    
C41   H4    S    
