data_mof_unit_6713.cif
_audit_creation_date              2012-12-11T17:45:32-0500
_audit_creation_method            fapswitch 2.2
_symmetry_space_group_name_H-M    P1
_symmetry_Int_Tables_number       1
_space_group_crystal_system       triclinic
_cell_length_a                    15.154674
_cell_length_b                    14.947152
_cell_length_c                    15.185419
_cell_angle_alpha                 110.045191
_cell_angle_beta                  108.977679
_cell_angle_gamma                 108.959515
_cell_volume                      2661.71536361

loop_
_atom_site_label
_atom_site_type_symbol
_atom_type_description
_atom_site_fract_x
_atom_site_fract_y
_atom_site_fract_z
_atom_type_partial_charge
C1    C     C_R   0.975237 0.248398 0.061299 -0.108270
C2    C     C_R   0.319849 0.775289 0.322393 0.053938
C3    C     C_R   0.295144 0.498668 0.927145 0.008932
C4    C     C_R   0.956278 0.496857 0.307744 0.098710
C5    C     C_R   0.686007 0.408927 0.955029 -0.168126
C6    C     C_R   0.023118 0.594001 0.783498 -0.122072
C7    C     C_R   0.783932 0.211796 0.691678 -0.151236
C8    C     C_R   0.005958 0.805351 0.098386 -0.149613
C9    C     C_R   0.090728 0.803917 0.004020 -0.151237
C10   C     C_R   0.696333 0.204473 0.785175 -0.139362
C11   C     C_R   0.777190 0.592525 0.049498 0.017980
C12   C     C_R   0.312399 0.752485 0.222446 -0.138585
C13   C     C_R   0.945716 0.412056 0.686929 -0.061035
C14   C     C_R   0.675108 0.501888 0.984759 -0.042277
C15   C     C_R   0.962616 0.506881 0.681401 0.049507
C16   C     C_R   0.689502 0.151802 0.686264 0.065444
C17   C     C_R   0.061421 0.868045 0.066491 0.069254
C18   C     C_R   0.625159 0.275850 0.114601 -0.119534
C19   C     C_R   0.710471 0.362111 0.215271 -0.158135
C20   C     C_R   0.762755 0.340492 0.293906 0.126564
C21   C     C_R   0.723704 0.231656 0.272125 -0.150421
C22   C     C_R   0.636016 0.146041 0.172379 -0.117874
C23   C     C_R   0.205979 0.408475 0.900440 -0.132849
C24   C     C_R   0.587447 0.168185 0.093294 -0.096461
C25   C     C_R   0.864767 0.439334 0.491584 -0.258354
C26   C     C_R   0.957376 0.517080 0.589521 0.114503
C27   C     C_R   0.050781 0.588172 0.595511 -0.006549
C28   C     C_R   0.052162 0.571710 0.500391 -0.074571
C29   C     C_R   0.955595 0.497904 0.402064 0.023068
C30   C     C_R   0.861595 0.429390 0.396608 0.011382
C31   C     C_R   0.159138 0.778469 0.749553 -0.248926
C32   C     C_R   0.252467 0.864948 0.843622 -0.121199
C33   C     C_R   0.339455 0.850347 0.886653 -0.075250
C34   C     C_R   0.001972 0.589166 0.301606 -0.129513
C35   C     C_R   0.333557 0.749547 0.835779 -0.238387
C36   C     C_R   0.239009 0.660159 0.742952 0.001053
C37   C     C_R   0.150365 0.675156 0.699260 0.075654
C38   C     C_R   0.137099 0.917001 0.428035 -0.124305
C39   C     C_R   0.236336 0.940283 0.433786 -0.142998
C40   C     C_R   0.310390 0.930380 0.508733 0.104232
C41   C     C_R   0.290607 0.913600 0.587394 -0.162045
C42   C     C_R   0.194016 0.897879 0.585345 -0.160355
C43   C     C_R   0.115988 0.896381 0.504065 -0.132179
C44   C     C_R   0.501436 0.028753 0.590790 -0.243269
C45   C     C_R   0.295299 0.590040 0.991201 -0.135796
C46   C     C_R   0.599701 0.047614 0.597322 0.067067
C47   C     C_R   0.607472 0.969755 0.519431 -0.005262
C48   C     C_R   0.514129 0.876053 0.433677 -0.226605
C49   C     C_R   0.414591 0.860226 0.424669 0.071673
C50   C     C_R   0.408920 0.937060 0.506451 0.025351
C51   C     C_R   0.734472 0.028461 0.455113 -0.111846
C52   C     C_R   0.841448 0.087123 0.482598 -0.127949
C53   C     C_R   0.923506 0.101262 0.571769 -0.098305
C54   C     C_R   0.898384 0.053665 0.631192 -0.103976
C55   C     C_R   0.791920 0.997761 0.606078 -0.102842
C56   C     C_R   0.920737 0.406590 0.213331 -0.084055
C57   C     C_R   0.710064 0.989836 0.521231 0.137774
C58   C     C_3   0.478590 0.397811 0.858561 -0.415568
C59   C     C_3   0.372851 0.399276 0.836954 -0.407032
C60   C     C_3   0.553636 0.500376 0.061216 -0.198766
C61   C     C_3   0.574129 0.601625 0.956392 -0.371978
C62   C     C_3   0.573653 0.501694 0.966952 0.333768
C63   C     C_3   0.393419 0.497836 0.935579 0.370190
C64   C     C_3   0.443812 0.490925 0.038143 -0.386735
C65   C     C_3   0.471623 0.603446 0.946695 -0.414695
C66   C     C_R   0.150354 0.056616 0.788262 -0.144009
C67   C     C_R   0.217761 0.735074 0.308080 -0.079036
C68   C     C_R   0.117203 0.059041 0.864393 -0.183768
C69   C     C_R   0.190731 0.130356 0.974808 0.112750
C70   C     C_R   0.298349 0.196059 0.008077 -0.164783
C71   C     C_R   0.331221 0.191811 0.931446 -0.142958
C72   C     C_R   0.257420 0.122930 0.821803 -0.110889
C73   C     C_R   0.164744 0.037334 0.073058 -0.225074
C74   C     C_R   0.094739 0.984443 0.102464 0.049480
C75   C     C_R   0.047505 0.040141 0.149203 0.019580
C76   C     C_R   0.069355 0.141740 0.159450 -0.207945
C77   C     C_R   0.102204 0.168819 0.091963 0.053305
C78   C     C_R   0.069505 0.255063 0.974203 -0.147904
C79   C     C_R   0.158261 0.119965 0.053786 0.026025
C80   C     C_R   0.851205 0.946011 0.081609 -0.132328
C81   C     C_R   0.764291 0.907809 0.098281 -0.216043
C82   C     C_R   0.780902 0.907526 0.194218 -0.075641
C83   C     C_R   0.885275 0.948583 0.274990 0.025833
C84   C     C_R   0.972717 0.997614 0.262337 -0.325080
C85   C     C_R   0.955874 0.989456 0.163257 0.144950
C86   C     C_R   0.054214 0.225251 0.046842 0.064088
H1    H     H_    0.940519 0.232367 0.109359 0.094175
H2    H     H_    0.045914 0.677991 0.808176 0.120357
H3    H     H_    0.807824 0.195630 0.632275 0.124149
H4    H     H_    0.997940 0.837113 0.168298 0.101547
H5    H     H_    0.148213 0.830615 0.978691 0.104040
H6    H     H_    0.642521 0.173561 0.812996 0.091440
H7    H     H_    0.907419 0.330264 0.620386 0.098480
H8    H     H_    0.521341 0.102178 0.015031 0.099117
H9    H     H_    0.589801 0.291937 0.052018 0.092008
H10   H     H_    0.738973 0.445023 0.230128 0.101735
H11   H     H_    0.376866 0.773566 0.204087 0.102631
H12   H     H_    0.762815 0.212851 0.331342 0.110541
H13   H     H_    0.607152 0.062448 0.155706 0.102757
H14   H     H_    0.795336 0.384456 0.489388 0.129302
H15   H     H_    0.092183 0.791101 0.716657 0.124511
H16   H     H_    0.257546 0.943455 0.882886 0.137346
H17   H     H_    0.411980 0.917262 0.959459 0.095948
H18   H     H_    0.403546 0.742181 0.869722 0.099210
H19   H     H_    0.038963 0.877682 0.499578 0.128605
H20   H     H_    0.176950 0.323755 0.845586 0.099491
H21   H     H_    0.075532 0.910838 0.362312 0.090448
H22   H     H_    0.251472 0.955706 0.374018 0.119453
H23   H     H_    0.348786 0.909994 0.648476 0.122209
H24   H     H_    0.178625 0.884479 0.645219 0.133352
H25   H     H_    0.495111 0.089464 0.649156 0.127821
H26   H     H_    0.518831 0.817813 0.371413 0.149990
H27   H     H_    0.672363 0.023931 0.390096 0.097733
H28   H     H_    0.860915 0.123309 0.436097 0.112463
H29   H     H_    0.006376 0.148113 0.594054 0.108590
H30   H     H_    0.961600 0.065308 0.700346 0.107559
H31   H     H_    0.027453 0.672226 0.357883 0.098111
H32   H     H_    0.774395 0.969641 0.658438 0.103136
H33   H     H_    0.469392 0.322108 0.860980 0.146338
H34   H     H_    0.493521 0.393650 0.790537 0.171020
H35   H     H_    0.340738 0.405704 0.763586 0.175487
H36   H     H_    0.313254 0.320686 0.820978 0.161327
H37   H     H_    0.551168 0.426583 0.063960 0.062651
H38   H     H_    0.390475 0.411537 0.026652 0.149578
H39   H     H_    0.640307 0.680465 0.026410 0.187997
H40   H     H_    0.581733 0.597835 0.884864 0.154236
H41   H     H_    0.434146 0.609840 0.875211 0.136905
H42   H     H_    0.348736 0.674755 0.021034 0.093941
H43   H     H_    0.493506 0.677447 0.019230 0.171994
H44   H     H_    0.448844 0.554469 0.107898 0.187048
H45   H     H_    0.283493 0.120441 0.763001 0.123027
H46   H     H_    0.093389 0.002022 0.703398 0.118066
H47   H     H_    0.034682 0.004585 0.837701 0.118400
H48   H     H_    0.356923 0.248132 0.092894 0.124105
H49   H     H_    0.414036 0.241313 0.956912 0.106379
H50   H     H_    0.209337 0.002515 0.045369 0.123278
H51   H     H_    0.037209 0.185315 0.200144 0.139668
H52   H     H_    0.872085 0.321990 0.187769 0.101876
H53   H     H_    0.837419 0.944008 0.006175 0.114352
H54   H     H_    0.683840 0.875485 0.035702 0.124513
H55   H     H_    0.712506 0.873144 0.204239 0.172036
H56   H     H_    0.053910 0.037245 0.327053 0.127520
H57   H     H_    0.194793 0.732555 0.367450 0.139412
H58   H     H_    0.126413 0.254488 0.947162 0.125559
H59   H     H_    0.624806 0.324294 0.911659 0.096977
N1    N     N_R   0.947080 0.293830 0.002870 -0.044294
N2    N     N_R   0.054040 0.556820 0.847890 -0.039333
N3    N     N_R   0.848290 0.293830 0.791110 -0.043669
N4    N     N_R   0.995680 0.706170 0.053910 -0.043607
N5    N     N_R   0.052920 0.706170 0.997130 -0.041780
N6    N     N_R   0.791050 0.293830 0.847890 -0.037914
N7    N     N_R   0.846330 0.556820 0.053910 -0.053703
N8    N     N_R   0.997640 0.443180 0.791110 -0.044760
N9    N     N_R   0.208950 0.706170 0.152110 -0.042375
N10   N     N_R   0.153670 0.443180 0.946090 -0.038675
N11   N     N_R   0.002360 0.556820 0.208890 -0.039093
N12   N     N_R   0.210070 0.556820 0.002870 -0.034039
N13   N     N_R   0.945960 0.443180 0.152110 -0.042506
N14   N     N_R   0.151710 0.706170 0.208890 -0.053447
N15   N     N_R   0.004320 0.293830 0.946090 -0.043736
N16   N     N_R   0.789930 0.443180 0.997130 -0.040359
Ni1   Ni    Ni4+2 0.869690 0.369690 0.000000 0.213775
Ni2   Ni    Ni4+2 0.130310 0.630310 0.000000 0.222496
Ni3   Ni    Ni4+2 0.000970 0.369690 0.869780 0.223062
Ni4   Ni    Ni4+2 0.999030 0.630310 0.130220 0.203921
N17   N     N_3   0.805834 0.699099 0.125037 -0.207434
H60   H     H_    0.875593 0.728837 0.195483 0.108839
H61   H     H_    0.820956 0.747173 0.090174 0.126444
C87   C     C_2   0.157299 0.624917 0.504857 0.495925
H62   H     H_    0.218914 0.706735 0.569744 0.008174
O1    O     O_2   0.177970 0.575134 0.439206 -0.571164
C88   C     C_2   0.237360 0.554802 0.692623 0.495261
H63   H     H_    0.311898 0.553744 0.708355 -0.009789
O2    O     O_2   0.153584 0.468075 0.634054 -0.584936
C89   C     C_2   0.640912 0.596444 0.171384 0.565043
H64   H     H_    0.706645 0.589625 0.219175 0.000751
O3    O     O_2   0.640610 0.682987 0.206440 -0.566300
C90   C     C_2   0.904606 0.934998 0.369619 0.476510
H65   H     H_    0.983734 0.984985 0.439716 -0.008595
O4    O     O_2   0.833300 0.868186 0.370792 -0.540837

loop_
_geom_bond_atom_site_label_1
_geom_bond_atom_site_label_2
_ccdc_geom_bond_type
C59   H35   S    
C81   H54   S    
C66   C68   A    
C63   C65   S    
C58   C62   S    
C21   H12   S    
C23   N10   A    
N10   N12   A    
C41   C42   A    
C3    C23   A    
C35   C36   A    
N3    N6    A    
C67   H57   S    
C9    H5    S    
C80   C85   A    
C34   N11   A    
C90   H65   S    
C89   O3    D    
C20   C30   S    
C76   H51   S    
C52   C53   A    
N5    Ni2   S    
N1    Ni1   S    
C26   C27   A    
C51   H27   S    
C18   C24   A    
N15   Ni3   S    
C28   C29   A    
C27   C37   S    
C78   H58   S    
C71   H49   S    
C38   C39   A    
C11   C14   A    
C40   C50   S    
N1    N15   A    
C45   H42   S    
C7    H3    S    
C38   H21   S    
C6    H2    S    
C60   C62   S    
C18   C19   A    
C73   C74   A    
C1    H1    S    
C56   N13   A    
C6    C15   A    
C54   C55   A    
C75   C85   S    
C66   C72   A    
C47   C48   A    
C88   O2    D    
C68   C69   A    
C54   H30   S    
C11   N17   S    
C61   H40   S    
C51   C57   A    
C5    C14   A    
N12   Ni2   S    
C4    C29   S    
C78   C86   A    
C59   H36   S    
C43   H19   S    
C2    C12   A    
C41   H23   S    
C21   C22   A    
C4    C56   A    
N17   H61   S    
C18   H9    S    
C87   O1    D    
C1    N1    A    
C61   C62   S    
C82   H55   S    
C44   C46   A    
N16   Ni1   S    
C66   H46   S    
C77   C79   A    
N7    Ni4   S    
C39   H22   S    
C4    C34   A    
C9    N5    A    
C36   C88   S    
C5    H59   S    
C74   C75   A    
N8    Ni3   S    
C51   C52   A    
N3    Ni3   S    
C87   H62   S    
N9    Ni2   S    
C45   N12   A    
C76   C77   A    
C35   H18   S    
C16   C46   S    
C39   C40   A    
C15   C26   S    
C25   C26   A    
C53   C54   A    
C23   H20   S    
C3    C45   A    
C81   C82   A    
C31   C37   A    
C61   H39   S    
C13   H7    S    
C5    N16   A    
C60   H37   S    
C75   C76   A    
C29   C30   A    
C2    C49   S    
C24   H8    S    
C10   N6    A    
C47   C57   S    
C56   H52   S    
C28   C87   S    
C25   H14   S    
C65   H43   S    
C83   C84   A    
C73   H50   S    
C84   H56   S    
N6    Ni1   S    
C58   H34   S    
C73   C79   A    
N4    Ni4   S    
C84   C85   A    
C13   N8    A    
C12   H11   S    
C70   C71   A    
N2    Ni2   S    
C9    C17   A    
C40   C41   A    
C48   H26   S    
C64   H44   S    
C77   C86   S    
C2    C67   A    
C52   H28   S    
C55   C57   A    
N17   H60   S    
C22   C24   A    
C69   C79   S    
C8    H4    S    
C42   C43   A    
C31   H15   S    
N9    N14   A    
C88   H63   S    
C72   H45   S    
C7    N3    A    
C44   C50   A    
C25   C30   A    
C46   C47   A    
C68   H47   S    
C22   H13   S    
C83   C90   S    
C33   H17   S    
C65   H41   S    
C31   C32   A    
C7    C16   A    
N7    N16   A    
C12   N9    A    
C80   C81   A    
C90   O4    D    
C3    C63   S    
N10   Ni3   S    
C80   H53   S    
C64   H38   S    
C59   C63   S    
C8    C17   A    
C60   C64   S    
C32   C33   A    
C19   C20   A    
C13   C15   A    
C8    N4    A    
C58   C59   S    
C38   C43   A    
C89   H64   S    
C10   C16   A    
N4    N5    A    
C6    N2    A    
C17   C74   S    
N11   Ni4   S    
C34   H31   S    
C48   C49   A    
C78   N15   A    
N11   N13   A    
C58   H33   S    
C33   C35   A    
C32   H16   S    
C61   C65   S    
C42   H24   S    
C69   C70   A    
N2    N8    A    
N13   Ni1   S    
C10   H6    S    
C63   C64   S    
C44   H25   S    
N14   Ni4   S    
C11   N7    A    
C1    C86   A    
C71   C72   A    
C20   C21   A    
C36   C37   A    
C49   C50   A    
C27   C28   A    
C70   H48   S    
C60   C89   S    
C67   N14   A    
C82   C83   A    
C19   H10   S    
C53   H29   S    
C55   H32   S    
C14   C62   S    
